MODEL 1
REMARK VINA RESULT:      -4.0      0.000      0.000
REMARK  Name = 11912266
REMARK  10 active torsions:
REMARK  status: ('A' for Active; 'I' for Inactive)
REMARK    1  A    between atoms: S_1  and  N_6
REMARK    2  A    between atoms: S_1  and  C_17
REMARK    3  A    between atoms: O_5  and  C_23
REMARK    4  A    between atoms: O_5  and  C_25
REMARK    5  A    between atoms: N_7  and  C_20
REMARK    6  A    between atoms: C_8  and  C_13
REMARK    7  A    between atoms: C_9  and  C_14
REMARK    8  A    between atoms: C_13  and  C_15
REMARK    9  A    between atoms: C_14  and  C_16
REMARK   10  A    between atoms: C_20  and  C_23
REMARK                            x       y       z     vdW  Elec       q    Type
REMARK                         _______ _______ _______ _____ _____    ______ ____
ROOT
ATOM      6  N   UNL     1      -2.162   0.201  24.487  0.00  0.00    -0.176 NA
ATOM      8  C   UNL     1      -0.307   1.782  24.969  0.00  0.00    +0.008 C 
ATOM      9  C   UNL     1       0.646   0.882  24.145  0.00  0.00    +0.003 C 
ATOM     10  C   UNL     1      -0.124   0.056  23.104  0.00  0.00    +0.021 C 
ATOM     11  C   UNL     1      -1.440   0.935  25.568  0.00  0.00    +0.113 C 
ATOM     12  C   UNL     1      -1.264  -0.729  23.746  0.00  0.00    +0.110 C 
ENDROOT
BRANCH   6   1
ATOM      1  S   UNL     1      -3.684  -0.449  24.933  0.00  0.00    +0.061 S 
ATOM      2  O   UNL     1      -3.552  -1.125  26.206  0.00  0.00    -0.153 OA
ATOM      3  O   UNL     1      -4.260  -1.120  23.787  0.00  0.00    -0.153 OA
BRANCH   1  17
ATOM     17  C   UNL     1      -4.588   1.043  25.202  0.00  0.00    +0.105 A 
ATOM     18  C   UNL     1      -5.739   1.028  25.991  0.00  0.00    +0.028 A 
ATOM     19  C   UNL     1      -4.152   2.236  24.626  0.00  0.00    +0.028 A 
ATOM     21  C   UNL     1      -6.453   2.206  26.203  0.00  0.00    +0.002 A 
ATOM     22  C   UNL     1      -4.867   3.414  24.839  0.00  0.00    +0.002 A 
ATOM     24  C   UNL     1      -6.018   3.400  25.627  0.00  0.00    +0.000 A 
ENDBRANCH   1  17
ENDBRANCH   6   1
BRANCH   8  13
ATOM     13  C   UNL     1      -0.879   2.971  24.185  0.00  0.00    +0.002 C 
ATOM     15  C   UNL     1      -0.951   4.212  25.049  0.00  0.00    +0.004 C 
ENDBRANCH   8  13
BRANCH   9  14
ATOM     14  C   UNL     1       1.785   1.658  23.484  0.00  0.00    +0.099 C 
BRANCH  14  16
ATOM      4  O   UNL     1       2.409  -0.109  21.953  0.00  0.00    -0.276 OA
ATOM      7  N   UNL     1       4.064   1.009  23.142  0.00  0.00    -0.313 N 
ATOM     16  C   UNL     1       2.755   0.747  22.763  0.00  0.00    +0.213 C 
ATOM     26  H   UNL     1       4.244   1.733  23.832  0.00  0.00    +0.149 HD
BRANCH   7  20
ATOM     20  C   UNL     1       5.198   0.286  22.616  0.00  0.00    +0.132 C 
BRANCH  20  23
ATOM     23  C   UNL     1       6.145  -0.148  23.719  0.00  0.00    +0.178 C 
BRANCH  23   5
ATOM      5  O   UNL     1       5.458  -1.009  24.619  0.00  0.00    -0.381 OA
ATOM     25  C   UNL     1       4.681  -1.976  23.925  0.00  0.00    +0.194 C 
ENDBRANCH  23   5
ENDBRANCH  20  23
ENDBRANCH   7  20
ENDBRANCH  14  16
ENDBRANCH   9  14
TORSDOF 8
ENDMDL
MODEL 2
REMARK VINA RESULT:      -3.7      2.225      2.965
REMARK  Name = 11912266
REMARK  10 active torsions:
REMARK  status: ('A' for Active; 'I' for Inactive)
REMARK    1  A    between atoms: S_1  and  N_6
REMARK    2  A    between atoms: S_1  and  C_17
REMARK    3  A    between atoms: O_5  and  C_23
REMARK    4  A    between atoms: O_5  and  C_25
REMARK    5  A    between atoms: N_7  and  C_20
REMARK    6  A    between atoms: C_8  and  C_13
REMARK    7  A    between atoms: C_9  and  C_14
REMARK    8  A    between atoms: C_13  and  C_15
REMARK    9  A    between atoms: C_14  and  C_16
REMARK   10  A    between atoms: C_20  and  C_23
REMARK                            x       y       z     vdW  Elec       q    Type
REMARK                         _______ _______ _______ _____ _____    ______ ____
ROOT
ATOM      6  N   UNL     1      -1.894   2.738  24.681  0.00  0.00    -0.176 NA
ATOM      8  C   UNL     1      -1.496   0.461  23.768  0.00  0.00    +0.008 C 
ATOM      9  C   UNL     1      -0.050   0.882  23.409  0.00  0.00    +0.003 C 
ATOM     10  C   UNL     1       0.439   2.030  24.304  0.00  0.00    +0.021 C 
ATOM     11  C   UNL     1      -2.417   1.691  23.754  0.00  0.00    +0.113 C 
ATOM     12  C   UNL     1      -0.534   3.205  24.287  0.00  0.00    +0.110 C 
ENDROOT
BRANCH   6   1
ATOM      1  S   UNL     1      -3.005   3.979  25.087  0.00  0.00    +0.061 S 
ATOM      2  O   UNL     1      -3.212   4.823  23.930  0.00  0.00    -0.153 OA
ATOM      3  O   UNL     1      -2.631   4.542  26.366  0.00  0.00    -0.153 OA
BRANCH   1  17
ATOM     17  C   UNL     1      -4.466   3.016  25.322  0.00  0.00    +0.105 A 
ATOM     18  C   UNL     1      -4.975   2.252  24.272  0.00  0.00    +0.028 A 
ATOM     19  C   UNL     1      -5.112   3.022  26.559  0.00  0.00    +0.028 A 
ATOM     21  C   UNL     1      -6.130   1.493  24.459  0.00  0.00    +0.002 A 
ATOM     22  C   UNL     1      -6.267   2.262  26.745  0.00  0.00    +0.002 A 
ATOM     24  C   UNL     1      -6.776   1.497  25.696  0.00  0.00    +0.000 A 
ENDBRANCH   1  17
ENDBRANCH   6   1
BRANCH   8  13
ATOM     13  C   UNL     1      -1.617  -0.287  25.103  0.00  0.00    +0.002 C 
ATOM     15  C   UNL     1      -3.049  -0.703  25.367  0.00  0.00    +0.004 C 
ENDBRANCH   8  13
BRANCH   9  14
ATOM     14  C   UNL     1       0.939  -0.284  23.437  0.00  0.00    +0.099 C 
BRANCH  14  16
ATOM      4  O   UNL     1       2.122  -0.262  21.326  0.00  0.00    -0.276 OA
ATOM      7  N   UNL     1       3.213   0.444  23.253  0.00  0.00    -0.313 N 
ATOM     16  C   UNL     1       2.131  -0.044  22.535  0.00  0.00    +0.213 C 
ATOM     26  H   UNL     1       3.121   0.579  24.256  0.00  0.00    +0.149 HD
BRANCH   7  20
ATOM     20  C   UNL     1       4.486   0.759  22.648  0.00  0.00    +0.132 C 
BRANCH  20  23
ATOM     23  C   UNL     1       5.634   0.542  23.616  0.00  0.00    +0.178 C 
BRANCH  23   5
ATOM      5  O   UNL     1       5.283  -0.475  24.545  0.00  0.00    -0.381 OA
ATOM     25  C   UNL     1       5.024  -1.711  23.892  0.00  0.00    +0.194 C 
ENDBRANCH  23   5
ENDBRANCH  20  23
ENDBRANCH   7  20
ENDBRANCH  14  16
ENDBRANCH   9  14
TORSDOF 8
ENDMDL
MODEL 3
REMARK VINA RESULT:      -3.5     15.765     17.383
REMARK  Name = 11912266
REMARK  10 active torsions:
REMARK  status: ('A' for Active; 'I' for Inactive)
REMARK    1  A    between atoms: S_1  and  N_6
REMARK    2  A    between atoms: S_1  and  C_17
REMARK    3  A    between atoms: O_5  and  C_23
REMARK    4  A    between atoms: O_5  and  C_25
REMARK    5  A    between atoms: N_7  and  C_20
REMARK    6  A    between atoms: C_8  and  C_13
REMARK    7  A    between atoms: C_9  and  C_14
REMARK    8  A    between atoms: C_13  and  C_15
REMARK    9  A    between atoms: C_14  and  C_16
REMARK   10  A    between atoms: C_20  and  C_23
REMARK                            x       y       z     vdW  Elec       q    Type
REMARK                         _______ _______ _______ _____ _____    ______ ____
ROOT
ATOM      6  N   UNL     1      -8.655  -9.928  11.751  0.00  0.00    -0.176 NA
ATOM      8  C   UNL     1      -9.074  -9.936  14.200  0.00  0.00    +0.008 C 
ATOM      9  C   UNL     1      -7.556 -10.129  14.436  0.00  0.00    +0.003 C 
ATOM     10  C   UNL     1      -6.731  -9.591  13.257  0.00  0.00    +0.021 C 
ATOM     11  C   UNL     1      -9.472 -10.536  12.842  0.00  0.00    +0.113 C 
ATOM     12  C   UNL     1      -7.199 -10.185  11.932  0.00  0.00    +0.110 C 
ENDROOT
BRANCH   6   1
ATOM      1  S   UNL     1      -9.251 -10.180  10.163  0.00  0.00    +0.061 S 
ATOM      2  O   UNL     1     -10.566 -10.779  10.243  0.00  0.00    -0.153 OA
ATOM      3  O   UNL     1      -8.206 -10.776   9.360  0.00  0.00    -0.153 OA
BRANCH   1  17
ATOM     17  C   UNL     1      -9.451  -8.505   9.641  0.00  0.00    +0.105 A 
ATOM     18  C   UNL     1     -10.559  -7.770  10.061  0.00  0.00    +0.028 A 
ATOM     19  C   UNL     1      -8.499  -7.918   8.806  0.00  0.00    +0.028 A 
ATOM     21  C   UNL     1     -10.716  -6.448   9.648  0.00  0.00    +0.002 A 
ATOM     22  C   UNL     1      -8.656  -6.595   8.393  0.00  0.00    +0.002 A 
ATOM     24  C   UNL     1      -9.765  -5.859   8.814  0.00  0.00    +0.000 A 
ENDBRANCH   1  17
ENDBRANCH   6   1
BRANCH   8  13
ATOM     13  C   UNL     1      -9.542  -8.478  14.303  0.00  0.00    +0.002 C 
ATOM     15  C   UNL     1     -10.322  -8.244  15.580  0.00  0.00    +0.004 C 
ENDBRANCH   8  13
BRANCH   9  14
ATOM     14  C   UNL     1      -7.071  -9.525  15.755  0.00  0.00    +0.099 C 
BRANCH  14  16
ATOM      4  O   UNL     1      -5.762 -10.771  17.363  0.00  0.00    -0.276 OA
ATOM      7  N   UNL     1      -4.784 -10.112  15.361  0.00  0.00    -0.313 N 
ATOM     16  C   UNL     1      -5.824 -10.210  16.273  0.00  0.00    +0.213 C 
ATOM     26  H   UNL     1      -4.934  -9.614  14.488  0.00  0.00    +0.149 HD
BRANCH   7  20
ATOM     20  C   UNL     1      -3.473 -10.673  15.595  0.00  0.00    +0.132 C 
BRANCH  20  23
ATOM     23  C   UNL     1      -2.573 -10.517  14.383  0.00  0.00    +0.178 C 
BRANCH  23   5
ATOM      5  O   UNL     1      -1.341  -9.931  14.783  0.00  0.00    -0.381 OA
ATOM     25  C   UNL     1      -0.916 -10.421  16.047  0.00  0.00    +0.194 C 
ENDBRANCH  23   5
ENDBRANCH  20  23
ENDBRANCH   7  20
ENDBRANCH  14  16
ENDBRANCH   9  14
TORSDOF 8
ENDMDL
MODEL 4
REMARK VINA RESULT:      -2.9     16.121     17.933
REMARK  Name = 11912266
REMARK  10 active torsions:
REMARK  status: ('A' for Active; 'I' for Inactive)
REMARK    1  A    between atoms: S_1  and  N_6
REMARK    2  A    between atoms: S_1  and  C_17
REMARK    3  A    between atoms: O_5  and  C_23
REMARK    4  A    between atoms: O_5  and  C_25
REMARK    5  A    between atoms: N_7  and  C_20
REMARK    6  A    between atoms: C_8  and  C_13
REMARK    7  A    between atoms: C_9  and  C_14
REMARK    8  A    between atoms: C_13  and  C_15
REMARK    9  A    between atoms: C_14  and  C_16
REMARK   10  A    between atoms: C_20  and  C_23
REMARK                            x       y       z     vdW  Elec       q    Type
REMARK                         _______ _______ _______ _____ _____    ______ ____
ROOT
ATOM      6  N   UNL     1      -7.586  -9.741  10.599  0.00  0.00    -0.176 NA
ATOM      8  C   UNL     1      -5.227  -8.973  10.734  0.00  0.00    +0.008 C 
ATOM      9  C   UNL     1      -5.115  -9.632  12.131  0.00  0.00    +0.003 C 
ATOM     10  C   UNL     1      -6.123 -10.781  12.290  0.00  0.00    +0.021 C 
ATOM     11  C   UNL     1      -6.683  -8.560  10.466  0.00  0.00    +0.113 C 
ATOM     12  C   UNL     1      -7.543 -10.327  11.969  0.00  0.00    +0.110 C 
ENDROOT
BRANCH   6   1
ATOM      1  S   UNL     1      -9.155  -9.541   9.937  0.00  0.00    +0.061 S 
ATOM      2  O   UNL     1     -10.116  -9.468  11.016  0.00  0.00    -0.153 OA
ATOM      3  O   UNL     1      -9.325 -10.476   8.846  0.00  0.00    -0.153 OA
BRANCH   1  17
ATOM     17  C   UNL     1      -8.993  -7.923   9.247  0.00  0.00    +0.105 A 
ATOM     18  C   UNL     1     -10.072  -7.039   9.281  0.00  0.00    +0.028 A 
ATOM     19  C   UNL     1      -7.786  -7.531   8.668  0.00  0.00    +0.028 A 
ATOM     21  C   UNL     1      -9.944  -5.763   8.735  0.00  0.00    +0.002 A 
ATOM     22  C   UNL     1      -7.658  -6.253   8.124  0.00  0.00    +0.002 A 
ATOM     24  C   UNL     1      -8.737  -5.369   8.156  0.00  0.00    +0.000 A 
ENDBRANCH   1  17
ENDBRANCH   6   1
BRANCH   8  13
ATOM     13  C   UNL     1      -4.693  -9.842   9.587  0.00  0.00    +0.002 C 
ATOM     15  C   UNL     1      -4.543  -9.034   8.315  0.00  0.00    +0.004 C 
ENDBRANCH   8  13
BRANCH   9  14
ATOM     14  C   UNL     1      -3.699 -10.106  12.460  0.00  0.00    +0.099 C 
BRANCH  14  16
ATOM      4  O   UNL     1      -2.384 -10.403  14.469  0.00  0.00    -0.276 OA
ATOM      7  N   UNL     1      -4.701 -10.322  14.623  0.00  0.00    -0.313 N 
ATOM     16  C   UNL     1      -3.490 -10.292  13.948  0.00  0.00    +0.213 C 
ATOM     26  H   UNL     1      -5.566 -10.234  14.096  0.00  0.00    +0.149 HD
BRANCH   7  20
ATOM     20  C   UNL     1      -4.803 -10.492  16.054  0.00  0.00    +0.132 C 
BRANCH  20  23
ATOM     23  C   UNL     1      -6.250 -10.516  16.513  0.00  0.00    +0.178 C 
BRANCH  23   5
ATOM      5  O   UNL     1      -6.636  -9.212  16.926  0.00  0.00    -0.381 OA
ATOM     25  C   UNL     1      -8.004  -9.170  17.309  0.00  0.00    +0.194 C 
ENDBRANCH  23   5
ENDBRANCH  20  23
ENDBRANCH   7  20
ENDBRANCH  14  16
ENDBRANCH   9  14
TORSDOF 8
ENDMDL
MODEL 5
REMARK VINA RESULT:      -2.8     16.583     17.875
REMARK  Name = 11912266
REMARK  10 active torsions:
REMARK  status: ('A' for Active; 'I' for Inactive)
REMARK    1  A    between atoms: S_1  and  N_6
REMARK    2  A    between atoms: S_1  and  C_17
REMARK    3  A    between atoms: O_5  and  C_23
REMARK    4  A    between atoms: O_5  and  C_25
REMARK    5  A    between atoms: N_7  and  C_20
REMARK    6  A    between atoms: C_8  and  C_13
REMARK    7  A    between atoms: C_9  and  C_14
REMARK    8  A    between atoms: C_13  and  C_15
REMARK    9  A    between atoms: C_14  and  C_16
REMARK   10  A    between atoms: C_20  and  C_23
REMARK                            x       y       z     vdW  Elec       q    Type
REMARK                         _______ _______ _______ _____ _____    ______ ____
ROOT
ATOM      6  N   UNL     1      -8.144  -9.456  10.325  0.00  0.00    -0.176 NA
ATOM      8  C   UNL     1      -6.849 -10.538  12.149  0.00  0.00    +0.008 C 
ATOM      9  C   UNL     1      -5.543 -10.223  11.379  0.00  0.00    +0.003 C 
ATOM     10  C   UNL     1      -5.719  -9.016  10.446  0.00  0.00    +0.021 C 
ATOM     11  C   UNL     1      -8.016 -10.687  11.161  0.00  0.00    +0.113 C 
ATOM     12  C   UNL     1      -6.917  -9.198   9.519  0.00  0.00    +0.110 C 
ENDROOT
BRANCH   6   1
ATOM      1  S   UNL     1      -9.625  -9.298   9.477  0.00  0.00    +0.061 S 
ATOM      2  O   UNL     1     -10.720  -9.544  10.390  0.00  0.00    -0.153 OA
ATOM      3  O   UNL     1      -9.524 -10.012   8.222  0.00  0.00    -0.153 OA
BRANCH   1  17
ATOM     17  C   UNL     1      -9.593  -7.568   9.123  0.00  0.00    +0.105 A 
ATOM     18  C   UNL     1     -10.719  -6.784   9.372  0.00  0.00    +0.028 A 
ATOM     19  C   UNL     1      -8.440  -6.987   8.594  0.00  0.00    +0.028 A 
ATOM     21  C   UNL     1     -10.694  -5.419   9.092  0.00  0.00    +0.002 A 
ATOM     22  C   UNL     1      -8.415  -5.621   8.315  0.00  0.00    +0.002 A 
ATOM     24  C   UNL     1      -9.541  -4.836   8.563  0.00  0.00    +0.000 A 
ENDBRANCH   1  17
ENDBRANCH   6   1
BRANCH   8  13
ATOM     13  C   UNL     1      -7.194  -9.516  13.240  0.00  0.00    +0.002 C 
ATOM     15  C   UNL     1      -8.137 -10.109  14.266  0.00  0.00    +0.004 C 
ENDBRANCH   8  13
BRANCH   9  14
ATOM     14  C   UNL     1      -4.337 -10.023  12.298  0.00  0.00    +0.099 C 
BRANCH  14  16
ATOM      4  O   UNL     1      -2.944 -10.611  10.409  0.00  0.00    -0.276 OA
ATOM      7  N   UNL     1      -1.949  -9.875  12.376  0.00  0.00    -0.313 N 
ATOM     16  C   UNL     1      -3.024 -10.211  11.567  0.00  0.00    +0.213 C 
ATOM     26  H   UNL     1      -2.122  -9.564  13.328  0.00  0.00    +0.149 HD
BRANCH   7  20
ATOM     20  C   UNL     1      -0.575  -9.961  11.939  0.00  0.00    +0.132 C 
BRANCH  20  23
ATOM     23  C   UNL     1      -0.189  -8.779  11.070  0.00  0.00    +0.178 C 
BRANCH  23   5
ATOM      5  O   UNL     1       0.896  -8.085  11.671  0.00  0.00    -0.381 OA
ATOM     25  C   UNL     1       0.443  -7.135  12.627  0.00  0.00    +0.194 C 
ENDBRANCH  23   5
ENDBRANCH  20  23
ENDBRANCH   7  20
ENDBRANCH  14  16
ENDBRANCH   9  14
TORSDOF 8
ENDMDL
MODEL 6
REMARK VINA RESULT:      -2.7      3.007      6.602
REMARK  Name = 11912266
REMARK  10 active torsions:
REMARK  status: ('A' for Active; 'I' for Inactive)
REMARK    1  A    between atoms: S_1  and  N_6
REMARK    2  A    between atoms: S_1  and  C_17
REMARK    3  A    between atoms: O_5  and  C_23
REMARK    4  A    between atoms: O_5  and  C_25
REMARK    5  A    between atoms: N_7  and  C_20
REMARK    6  A    between atoms: C_8  and  C_13
REMARK    7  A    between atoms: C_9  and  C_14
REMARK    8  A    between atoms: C_13  and  C_15
REMARK    9  A    between atoms: C_14  and  C_16
REMARK   10  A    between atoms: C_20  and  C_23
REMARK                            x       y       z     vdW  Elec       q    Type
REMARK                         _______ _______ _______ _____ _____    ______ ____
ROOT
ATOM      6  N   UNL     1      -0.553   0.928  24.220  0.00  0.00    -0.176 NA
ATOM      8  C   UNL     1      -0.001   3.103  25.288  0.00  0.00    +0.008 C 
ATOM      9  C   UNL     1      -1.157   3.760  24.495  0.00  0.00    +0.003 C 
ATOM     10  C   UNL     1      -2.233   2.732  24.114  0.00  0.00    +0.021 C 
ATOM     11  C   UNL     1       0.547   1.896  24.510  0.00  0.00    +0.113 C 
ATOM     12  C   UNL     1      -1.628   1.536  23.385  0.00  0.00    +0.110 C 
ENDROOT
BRANCH   6   1
ATOM      1  S   UNL     1      -0.043  -0.634  23.733  0.00  0.00    +0.061 S 
ATOM      2  O   UNL     1       1.113  -1.018  24.515  0.00  0.00    -0.153 OA
ATOM      3  O   UNL     1      -0.018  -0.689  22.287  0.00  0.00    -0.153 OA
BRANCH   1  17
ATOM     17  C   UNL     1      -1.416  -1.593  24.291  0.00  0.00    +0.105 A 
ATOM     18  C   UNL     1      -1.784  -2.751  23.604  0.00  0.00    +0.028 A 
ATOM     19  C   UNL     1      -2.134  -1.192  25.418  0.00  0.00    +0.028 A 
ATOM     21  C   UNL     1      -2.869  -3.507  24.045  0.00  0.00    +0.002 A 
ATOM     22  C   UNL     1      -3.219  -1.949  25.859  0.00  0.00    +0.002 A 
ATOM     24  C   UNL     1      -3.587  -3.107  25.173  0.00  0.00    +0.000 A 
ENDBRANCH   1  17
ENDBRANCH   6   1
BRANCH   8  13
ATOM     13  C   UNL     1      -0.376   2.695  26.720  0.00  0.00    +0.002 C 
ATOM     15  C   UNL     1       0.855   2.573  27.593  0.00  0.00    +0.004 C 
ENDBRANCH   8  13
BRANCH   9  14
ATOM     14  C   UNL     1      -1.783   4.952  25.222  0.00  0.00    +0.099 C 
BRANCH  14  16
ATOM      4  O   UNL     1      -3.101   4.365  27.164  0.00  0.00    -0.276 OA
ATOM      7  N   UNL     1      -4.127   4.489  25.083  0.00  0.00    -0.313 N 
ATOM     16  C   UNL     1      -3.052   4.572  25.955  0.00  0.00    +0.213 C 
ATOM     26  H   UNL     1      -3.979   4.668  24.094  0.00  0.00    +0.149 HD
BRANCH   7  20
ATOM     20  C   UNL     1      -5.463   4.141  25.507  0.00  0.00    +0.132 C 
BRANCH  20  23
ATOM     23  C   UNL     1      -5.577   2.665  25.842  0.00  0.00    +0.178 C 
BRANCH  23   5
ATOM      5  O   UNL     1      -5.736   1.920  24.641  0.00  0.00    -0.381 OA
ATOM     25  C   UNL     1      -5.059   0.672  24.709  0.00  0.00    +0.194 C 
ENDBRANCH  23   5
ENDBRANCH  20  23
ENDBRANCH   7  20
ENDBRANCH  14  16
ENDBRANCH   9  14
TORSDOF 8
ENDMDL
MODEL 7
REMARK VINA RESULT:      -2.7      2.868      6.925
REMARK  Name = 11912266
REMARK  10 active torsions:
REMARK  status: ('A' for Active; 'I' for Inactive)
REMARK    1  A    between atoms: S_1  and  N_6
REMARK    2  A    between atoms: S_1  and  C_17
REMARK    3  A    between atoms: O_5  and  C_23
REMARK    4  A    between atoms: O_5  and  C_25
REMARK    5  A    between atoms: N_7  and  C_20
REMARK    6  A    between atoms: C_8  and  C_13
REMARK    7  A    between atoms: C_9  and  C_14
REMARK    8  A    between atoms: C_13  and  C_15
REMARK    9  A    between atoms: C_14  and  C_16
REMARK   10  A    between atoms: C_20  and  C_23
REMARK                            x       y       z     vdW  Elec       q    Type
REMARK                         _______ _______ _______ _____ _____    ______ ____
ROOT
ATOM      6  N   UNL     1      -2.450  -0.683  24.674  0.00  0.00    -0.176 NA
ATOM      8  C   UNL     1      -4.204   0.573  23.440  0.00  0.00    +0.008 C 
ATOM      9  C   UNL     1      -5.148   0.406  24.657  0.00  0.00    +0.003 C 
ATOM     10  C   UNL     1      -4.356   0.214  25.959  0.00  0.00    +0.021 C 
ATOM     11  C   UNL     1      -3.206  -0.595  23.389  0.00  0.00    +0.113 C 
ATOM     12  C   UNL     1      -3.350  -0.927  25.837  0.00  0.00    +0.110 C 
ENDROOT
BRANCH   6   1
ATOM      1  S   UNL     1      -1.036  -1.650  24.627  0.00  0.00    +0.061 S 
ATOM      2  O   UNL     1      -1.193  -2.665  23.608  0.00  0.00    -0.153 OA
ATOM      3  O   UNL     1      -0.664  -2.002  25.980  0.00  0.00    -0.153 OA
BRANCH   1  17
ATOM     17  C   UNL     1       0.129  -0.463  24.034  0.00  0.00    +0.105 A 
ATOM     18  C   UNL     1       1.121  -0.849  23.132  0.00  0.00    +0.028 A 
ATOM     19  C   UNL     1       0.056   0.861  24.468  0.00  0.00    +0.028 A 
ATOM     21  C   UNL     1       2.040   0.089  22.665  0.00  0.00    +0.002 A 
ATOM     22  C   UNL     1       0.975   1.799  23.999  0.00  0.00    +0.002 A 
ATOM     24  C   UNL     1       1.968   1.414  23.098  0.00  0.00    +0.000 A 
ENDBRANCH   1  17
ENDBRANCH   6   1
BRANCH   8  13
ATOM     13  C   UNL     1      -3.464   1.916  23.401  0.00  0.00    +0.002 C 
ATOM     15  C   UNL     1      -2.540   1.996  22.205  0.00  0.00    +0.004 C 
ENDBRANCH   8  13
BRANCH   9  14
ATOM     14  C   UNL     1      -6.152   1.550  24.799  0.00  0.00    +0.099 C 
BRANCH  14  16
ATOM      4  O   UNL     1      -6.132   2.637  26.961  0.00  0.00    -0.276 OA
ATOM      7  N   UNL     1      -4.759   3.440  25.267  0.00  0.00    -0.313 N 
ATOM     16  C   UNL     1      -5.703   2.582  25.812  0.00  0.00    +0.213 C 
ATOM     26  H   UNL     1      -4.478   3.317  24.298  0.00  0.00    +0.149 HD
BRANCH   7  20
ATOM     20  C   UNL     1      -4.158   4.525  26.007  0.00  0.00    +0.132 C 
BRANCH  20  23
ATOM     23  C   UNL     1      -2.769   4.164  26.501  0.00  0.00    +0.178 C 
BRANCH  23   5
ATOM      5  O   UNL     1      -1.929   3.890  25.388  0.00  0.00    -0.381 OA
ATOM     25  C   UNL     1      -1.175   5.034  25.010  0.00  0.00    +0.194 C 
ENDBRANCH  23   5
ENDBRANCH  20  23
ENDBRANCH   7  20
ENDBRANCH  14  16
ENDBRANCH   9  14
TORSDOF 8
ENDMDL
MODEL 8
REMARK VINA RESULT:      -1.5     16.290     17.753
REMARK  Name = 11912266
REMARK  10 active torsions:
REMARK  status: ('A' for Active; 'I' for Inactive)
REMARK    1  A    between atoms: S_1  and  N_6
REMARK    2  A    between atoms: S_1  and  C_17
REMARK    3  A    between atoms: O_5  and  C_23
REMARK    4  A    between atoms: O_5  and  C_25
REMARK    5  A    between atoms: N_7  and  C_20
REMARK    6  A    between atoms: C_8  and  C_13
REMARK    7  A    between atoms: C_9  and  C_14
REMARK    8  A    between atoms: C_13  and  C_15
REMARK    9  A    between atoms: C_14  and  C_16
REMARK   10  A    between atoms: C_20  and  C_23
REMARK                            x       y       z     vdW  Elec       q    Type
REMARK                         _______ _______ _______ _____ _____    ______ ____
ROOT
ATOM      6  N   UNL     1      -6.814  -9.563  11.673  0.00  0.00    -0.176 NA
ATOM      8  C   UNL     1      -5.092  -8.829  10.039  0.00  0.00    +0.008 C 
ATOM      9  C   UNL     1      -4.001  -9.081  11.109  0.00  0.00    +0.003 C 
ATOM     10  C   UNL     1      -4.458 -10.124  12.140  0.00  0.00    +0.021 C 
ATOM     11  C   UNL     1      -6.424  -8.480  10.722  0.00  0.00    +0.113 C 
ATOM     12  C   UNL     1      -5.804  -9.750  12.753  0.00  0.00    +0.110 C 
ENDROOT
BRANCH   6   1
ATOM      1  S   UNL     1      -8.446  -9.525  12.195  0.00  0.00    +0.061 S 
ATOM      2  O   UNL     1      -8.702  -8.262  12.853  0.00  0.00    -0.153 OA
ATOM      3  O   UNL     1      -8.760 -10.781  12.842  0.00  0.00    -0.153 OA
BRANCH   1  17
ATOM     17  C   UNL     1      -9.268  -9.498  10.633  0.00  0.00    +0.105 A 
ATOM     18  C   UNL     1      -9.689 -10.691  10.045  0.00  0.00    +0.028 A 
ATOM     19  C   UNL     1      -9.495  -8.282   9.986  0.00  0.00    +0.028 A 
ATOM     21  C   UNL     1     -10.337 -10.668   8.811  0.00  0.00    +0.002 A 
ATOM     22  C   UNL     1     -10.144  -8.261   8.752  0.00  0.00    +0.002 A 
ATOM     24  C   UNL     1     -10.565  -9.454   8.163  0.00  0.00    +0.000 A 
ENDBRANCH   1  17
ENDBRANCH   6   1
BRANCH   8  13
ATOM     13  C   UNL     1      -5.281  -9.989   9.052  0.00  0.00    +0.002 C 
ATOM     15  C   UNL     1      -6.636  -9.921   8.382  0.00  0.00    +0.004 C 
ENDBRANCH   8  13
BRANCH   9  14
ATOM     14  C   UNL     1      -2.650  -9.471  10.509  0.00  0.00    +0.099 C 
BRANCH  14  16
ATOM      4  O   UNL     1      -0.446  -9.256  11.483  0.00  0.00    -0.276 OA
ATOM      7  N   UNL     1      -2.094 -10.422  12.634  0.00  0.00    -0.313 N 
ATOM     16  C   UNL     1      -1.593  -9.685  11.571  0.00  0.00    +0.213 C 
ATOM     26  H   UNL     1      -3.058 -10.742  12.605  0.00  0.00    +0.149 HD
BRANCH   7  20
ATOM     20  C   UNL     1      -1.304 -10.779  13.789  0.00  0.00    +0.132 C 
BRANCH  20  23
ATOM     23  C   UNL     1      -1.602  -9.876  14.972  0.00  0.00    +0.178 C 
BRANCH  23   5
ATOM      5  O   UNL     1      -2.407 -10.578  15.910  0.00  0.00    -0.381 OA
ATOM     25  C   UNL     1      -3.780 -10.544  15.548  0.00  0.00    +0.194 C 
ENDBRANCH  23   5
ENDBRANCH  20  23
ENDBRANCH   7  20
ENDBRANCH  14  16
ENDBRANCH   9  14
TORSDOF 8
ENDMDL
MODEL 9
REMARK VINA RESULT:      -1.3      2.625      4.969
REMARK  Name = 11912266
REMARK  10 active torsions:
REMARK  status: ('A' for Active; 'I' for Inactive)
REMARK    1  A    between atoms: S_1  and  N_6
REMARK    2  A    between atoms: S_1  and  C_17
REMARK    3  A    between atoms: O_5  and  C_23
REMARK    4  A    between atoms: O_5  and  C_25
REMARK    5  A    between atoms: N_7  and  C_20
REMARK    6  A    between atoms: C_8  and  C_13
REMARK    7  A    between atoms: C_9  and  C_14
REMARK    8  A    between atoms: C_13  and  C_15
REMARK    9  A    between atoms: C_14  and  C_16
REMARK   10  A    between atoms: C_20  and  C_23
REMARK                            x       y       z     vdW  Elec       q    Type
REMARK                         _______ _______ _______ _____ _____    ______ ____
ROOT
ATOM      6  N   UNL     1      -4.017   1.689  24.854  0.00  0.00    -0.176 NA
ATOM      8  C   UNL     1      -4.278  -0.699  25.492  0.00  0.00    +0.008 C 
ATOM      9  C   UNL     1      -4.071  -1.094  24.009  0.00  0.00    +0.003 C 
ATOM     10  C   UNL     1      -3.263  -0.029  23.252  0.00  0.00    +0.021 C 
ATOM     11  C   UNL     1      -4.884   0.711  25.576  0.00  0.00    +0.113 C 
ATOM     12  C   UNL     1      -3.883   1.356  23.408  0.00  0.00    +0.110 C 
ENDROOT
BRANCH   6   1
ATOM      1  S   UNL     1      -4.327   3.339  25.200  0.00  0.00    +0.061 S 
ATOM      2  O   UNL     1      -4.786   3.455  26.567  0.00  0.00    -0.153 OA
ATOM      3  O   UNL     1      -5.082   3.913  24.107  0.00  0.00    -0.153 OA
BRANCH   1  17
ATOM     17  C   UNL     1      -2.685   3.982  25.125  0.00  0.00    +0.105 A 
ATOM     18  C   UNL     1      -2.479   5.345  24.910  0.00  0.00    +0.028 A 
ATOM     19  C   UNL     1      -1.593   3.127  25.279  0.00  0.00    +0.028 A 
ATOM     21  C   UNL     1      -1.182   5.853  24.850  0.00  0.00    +0.002 A 
ATOM     22  C   UNL     1      -0.296   3.636  25.220  0.00  0.00    +0.002 A 
ATOM     24  C   UNL     1      -0.089   4.999  25.005  0.00  0.00    +0.000 A 
ENDBRANCH   1  17
ENDBRANCH   6   1
BRANCH   8  13
ATOM     13  C   UNL     1      -3.009  -0.792  26.348  0.00  0.00    +0.002 C 
ATOM     15  C   UNL     1      -3.146  -1.860  27.413  0.00  0.00    +0.004 C 
ENDBRANCH   8  13
BRANCH   9  14
ATOM     14  C   UNL     1      -3.436  -2.475  23.839  0.00  0.00    +0.099 C 
BRANCH  14  16
ATOM      4  O   UNL     1      -1.445  -3.415  24.844  0.00  0.00    -0.276 OA
ATOM      7  N   UNL     1      -1.338  -1.322  23.839  0.00  0.00    -0.313 N 
ATOM     16  C   UNL     1      -1.976  -2.486  24.240  0.00  0.00    +0.213 C 
ATOM     26  H   UNL     1      -1.872  -0.606  23.354  0.00  0.00    +0.149 HD
BRANCH   7  20
ATOM     20  C   UNL     1       0.059  -1.059  24.093  0.00  0.00    +0.132 C 
BRANCH  20  23
ATOM     23  C   UNL     1       0.535   0.186  23.368  0.00  0.00    +0.178 C 
BRANCH  23   5
ATOM      5  O   UNL     1       1.441  -0.185  22.338  0.00  0.00    -0.381 OA
ATOM     25  C   UNL     1       2.763   0.253  22.623  0.00  0.00    +0.194 C 
ENDBRANCH  23   5
ENDBRANCH  20  23
ENDBRANCH   7  20
ENDBRANCH  14  16
ENDBRANCH   9  14
TORSDOF 8
ENDMDL
MODEL 10
REMARK VINA RESULT:      -1.3      2.986      4.977
REMARK  Name = 11912266
REMARK  10 active torsions:
REMARK  status: ('A' for Active; 'I' for Inactive)
REMARK    1  A    between atoms: S_1  and  N_6
REMARK    2  A    between atoms: S_1  and  C_17
REMARK    3  A    between atoms: O_5  and  C_23
REMARK    4  A    between atoms: O_5  and  C_25
REMARK    5  A    between atoms: N_7  and  C_20
REMARK    6  A    between atoms: C_8  and  C_13
REMARK    7  A    between atoms: C_9  and  C_14
REMARK    8  A    between atoms: C_13  and  C_15
REMARK    9  A    between atoms: C_14  and  C_16
REMARK   10  A    between atoms: C_20  and  C_23
REMARK                            x       y       z     vdW  Elec       q    Type
REMARK                         _______ _______ _______ _____ _____    ______ ____
ROOT
ATOM      6  N   UNL     1      -1.649   2.752  25.187  0.00  0.00    -0.176 NA
ATOM      8  C   UNL     1      -0.493   1.603  23.312  0.00  0.00    +0.008 C 
ATOM      9  C   UNL     1       0.270   0.735  24.343  0.00  0.00    +0.003 C 
ATOM     10  C   UNL     1      -0.509   0.617  25.661  0.00  0.00    +0.021 C 
ATOM     11  C   UNL     1      -0.859   2.958  23.937  0.00  0.00    +0.113 C 
ATOM     12  C   UNL     1      -0.885   1.989  26.213  0.00  0.00    +0.110 C 
ENDROOT
BRANCH   6   1
ATOM      1  S   UNL     1      -2.473   4.138  25.769  0.00  0.00    +0.061 S 
ATOM      2  O   UNL     1      -2.232   5.243  24.867  0.00  0.00    -0.153 OA
ATOM      3  O   UNL     1      -2.230   4.266  27.189  0.00  0.00    -0.153 OA
BRANCH   1  17
ATOM     17  C   UNL     1      -4.146   3.616  25.548  0.00  0.00    +0.105 A 
ATOM     18  C   UNL     1      -5.190   4.523  25.732  0.00  0.00    +0.028 A 
ATOM     19  C   UNL     1      -4.422   2.296  25.191  0.00  0.00    +0.028 A 
ATOM     21  C   UNL     1      -6.510   4.109  25.559  0.00  0.00    +0.002 A 
ATOM     22  C   UNL     1      -5.743   1.883  25.017  0.00  0.00    +0.002 A 
ATOM     24  C   UNL     1      -6.788   2.789  25.201  0.00  0.00    +0.000 A 
ENDBRANCH   1  17
ENDBRANCH   6   1
BRANCH   8  13
ATOM     13  C   UNL     1      -1.739   0.926  22.725  0.00  0.00    +0.002 C 
ATOM     15  C   UNL     1      -2.653   1.940  22.070  0.00  0.00    +0.004 C 
ENDBRANCH   8  13
BRANCH   9  14
ATOM     14  C   UNL     1       0.639  -0.649  23.807  0.00  0.00    +0.099 C 
BRANCH  14  16
ATOM      4  O   UNL     1       0.317  -2.335  25.512  0.00  0.00    -0.276 OA
ATOM      7  N   UNL     1      -1.323  -2.017  23.896  0.00  0.00    -0.313 N 
ATOM     16  C   UNL     1      -0.111  -1.755  24.518  0.00  0.00    +0.213 C 
ATOM     26  H   UNL     1      -1.580  -1.487  23.068  0.00  0.00    +0.149 HD
BRANCH   7  20
ATOM     20  C   UNL     1      -2.245  -3.028  24.358  0.00  0.00    +0.132 C 
BRANCH  20  23
ATOM     23  C   UNL     1      -3.686  -2.567  24.240  0.00  0.00    +0.178 C 
BRANCH  23   5
ATOM      5  O   UNL     1      -3.780  -1.207  24.644  0.00  0.00    -0.381 OA
ATOM     25  C   UNL     1      -3.633  -1.069  26.051  0.00  0.00    +0.194 C 
ENDBRANCH  23   5
ENDBRANCH  20  23
ENDBRANCH   7  20
ENDBRANCH  14  16
ENDBRANCH   9  14
TORSDOF 8
ENDMDL
