MODEL 1
REMARK VINA RESULT:      -3.5      0.000      0.000
REMARK  Name = 11942948
REMARK  7 active torsions:
REMARK  status: ('A' for Active; 'I' for Inactive)
REMARK    1  A    between atoms: O_3  and  C_18
REMARK    2  A    between atoms: N_5  and  C_16
REMARK    3  A    between atoms: N_6  and  C_25
REMARK    4  A    between atoms: C_10  and  C_16
REMARK    5  A    between atoms: C_11  and  C_17
REMARK    6  A    between atoms: C_18  and  C_21
REMARK    7  A    between atoms: C_25  and  C_26
REMARK                            x       y       z     vdW  Elec       q    Type
REMARK                         _______ _______ _______ _____ _____    ______ ____
ROOT
ATOM      4  N   UNL     1      -2.039   4.495  25.732  0.00  0.00    -0.297 NA
ATOM      9  C   UNL     1      -3.914   4.073  23.978  0.00  0.00    +0.005 C 
ATOM     10  C   UNL     1      -1.607   3.445  24.771  0.00  0.00    +0.078 C 
ATOM     11  C   UNL     1      -4.463   3.978  25.414  0.00  0.00    +0.092 C 
ATOM     12  C   UNL     1      -2.759   3.066  23.813  0.00  0.00    +0.025 C 
ATOM     13  C   UNL     1      -3.318   5.484  23.822  0.00  0.00    +0.020 C 
ATOM     14  C   UNL     1      -3.295   4.089  26.410  0.00  0.00    +0.097 C 
ATOM     15  C   UNL     1      -2.311   5.734  24.961  0.00  0.00    +0.085 C 
ENDROOT
BRANCH  11  17
ATOM      2  O   UNL     1      -6.108   2.617  26.480  0.00  0.00    -0.275 OA
ATOM      6  N   UNL     1      -4.860   1.717  24.734  0.00  0.00    -0.311 N 
ATOM     17  C   UNL     1      -5.245   2.715  25.612  0.00  0.00    +0.218 C 
ATOM     32  H   UNL     1      -4.166   1.914  24.021  0.00  0.00    +0.149 HD
BRANCH   6  25
ATOM     25  C   UNL     1      -5.445   0.395  24.733  0.00  0.00    +0.139 C 
BRANCH  25  26
ATOM      1  F   UNL     1      -1.532  -3.635  24.894  0.00  0.00    -0.205 F 
ATOM     26  C   UNL     1      -4.400  -0.682  24.777  0.00  0.00    -0.030 A 
ATOM     27  C   UNL     1      -4.453  -1.728  23.863  0.00  0.00    +0.008 A 
ATOM     28  C   UNL     1      -3.389  -0.622  25.730  0.00  0.00    +0.008 A 
ATOM     29  C   UNL     1      -3.481  -2.728  23.903  0.00  0.00    +0.038 A 
ATOM     30  C   UNL     1      -2.419  -1.622  25.770  0.00  0.00    +0.038 A 
ATOM     31  C   UNL     1      -2.464  -2.675  24.856  0.00  0.00    +0.123 A 
ENDBRANCH  25  26
ENDBRANCH   6  25
ENDBRANCH  11  17
BRANCH  10  16
ATOM     16  C   UNL     1      -1.025   2.217  25.474  0.00  0.00    +0.164 C 
BRANCH  16   5
ATOM      5  N   UNL     1      -0.169   1.444  24.589  0.00  0.00    -0.250 N 
ATOM      7  N   UNL     1      -0.694   0.504  23.798  0.00  0.00    -0.065 NA
ATOM      8  N   UNL     1       0.312  -0.031  23.116  0.00  0.00    -0.132 NA
ATOM     21  C   UNL     1       1.463   0.597  23.503  0.00  0.00    +0.114 A 
ATOM     22  C   UNL     1       1.173   1.548  24.449  0.00  0.00    +0.136 A 
BRANCH  21  18
ATOM     18  C   UNL     1       2.804   0.218  22.910  0.00  0.00    +0.111 C 
ATOM     19  C   UNL     1       3.437  -1.024  23.564  0.00  0.00    +0.041 C 
ATOM     20  C   UNL     1       3.934   1.246  23.092  0.00  0.00    +0.041 C 
ATOM     23  C   UNL     1       4.923  -0.970  23.206  0.00  0.00    +0.003 C 
ATOM     24  C   UNL     1       5.213   0.469  22.793  0.00  0.00    +0.003 C 
BRANCH  18   3
ATOM      3  O   UNL     1       2.663  -0.051  21.509  0.00  0.00    -0.382 OA
ATOM     33  H   UNL     1       1.956   0.522  21.165  0.00  0.00    +0.211 HD
ENDBRANCH  18   3
ENDBRANCH  21  18
ENDBRANCH  16   5
ENDBRANCH  10  16
TORSDOF 7
ENDMDL
MODEL 2
REMARK VINA RESULT:      -2.6      2.164      4.792
REMARK  Name = 11942948
REMARK  7 active torsions:
REMARK  status: ('A' for Active; 'I' for Inactive)
REMARK    1  A    between atoms: O_3  and  C_18
REMARK    2  A    between atoms: N_5  and  C_16
REMARK    3  A    between atoms: N_6  and  C_25
REMARK    4  A    between atoms: C_10  and  C_16
REMARK    5  A    between atoms: C_11  and  C_17
REMARK    6  A    between atoms: C_18  and  C_21
REMARK    7  A    between atoms: C_25  and  C_26
REMARK                            x       y       z     vdW  Elec       q    Type
REMARK                         _______ _______ _______ _____ _____    ______ ____
ROOT
ATOM      4  N   UNL     1      -2.913  -1.716  23.670  0.00  0.00    -0.297 NA
ATOM      9  C   UNL     1      -3.423  -1.086  26.143  0.00  0.00    +0.005 C 
ATOM     10  C   UNL     1      -1.802  -0.898  24.224  0.00  0.00    +0.078 C 
ATOM     11  C   UNL     1      -4.600  -0.716  25.219  0.00  0.00    +0.092 C 
ATOM     12  C   UNL     1      -2.148  -0.382  25.639  0.00  0.00    +0.025 C 
ATOM     13  C   UNL     1      -3.200  -2.602  25.993  0.00  0.00    +0.020 C 
ATOM     14  C   UNL     1      -4.194  -0.972  23.757  0.00  0.00    +0.097 C 
ATOM     15  C   UNL     1      -3.035  -2.942  24.499  0.00  0.00    +0.085 C 
ENDROOT
BRANCH  11  17
ATOM      2  O   UNL     1      -5.830   1.007  26.319  0.00  0.00    -0.275 OA
ATOM      6  N   UNL     1      -4.454   1.573  24.530  0.00  0.00    -0.311 N 
ATOM     17  C   UNL     1      -5.033   0.702  25.436  0.00  0.00    +0.218 C 
ATOM     32  H   UNL     1      -3.770   1.226  23.865  0.00  0.00    +0.149 HD
BRANCH   6  25
ATOM     25  C   UNL     1      -4.725   2.992  24.512  0.00  0.00    +0.139 C 
BRANCH  25  26
ATOM      1  F   UNL     1      -0.038   6.040  25.090  0.00  0.00    -0.205 F 
ATOM     26  C   UNL     1      -3.473   3.806  24.666  0.00  0.00    -0.030 A 
ATOM     27  C   UNL     1      -3.432   5.104  24.172  0.00  0.00    +0.008 A 
ATOM     28  C   UNL     1      -2.367   3.253  25.302  0.00  0.00    +0.008 A 
ATOM     29  C   UNL     1      -2.268   5.861  24.316  0.00  0.00    +0.038 A 
ATOM     30  C   UNL     1      -1.203   4.009  25.444  0.00  0.00    +0.038 A 
ATOM     31  C   UNL     1      -1.155   5.314  24.953  0.00  0.00    +0.123 A 
ENDBRANCH  25  26
ENDBRANCH   6  25
ENDBRANCH  11  17
BRANCH  10  16
ATOM     16  C   UNL     1      -1.394   0.241  23.287  0.00  0.00    +0.164 C 
BRANCH  16   5
ATOM      5  N   UNL     1       0.032   0.517  23.362  0.00  0.00    -0.250 N 
ATOM      7  N   UNL     1       0.469   1.637  23.942  0.00  0.00    -0.065 NA
ATOM      8  N   UNL     1       1.796   1.621  23.859  0.00  0.00    -0.132 NA
ATOM     21  C   UNL     1       2.161   0.471  23.218  0.00  0.00    +0.114 A 
ATOM     22  C   UNL     1       1.041  -0.251  22.891  0.00  0.00    +0.136 A 
BRANCH  21  18
ATOM     18  C   UNL     1       3.617   0.143  22.960  0.00  0.00    +0.111 C 
ATOM     19  C   UNL     1       4.058  -1.207  23.556  0.00  0.00    +0.041 C 
ATOM     20  C   UNL     1       4.645   1.089  23.603  0.00  0.00    +0.041 C 
ATOM     23  C   UNL     1       5.585  -1.150  23.627  0.00  0.00    +0.003 C 
ATOM     24  C   UNL     1       5.964   0.324  23.543  0.00  0.00    +0.003 C 
BRANCH  18   3
ATOM      3  O   UNL     1       3.868   0.099  21.548  0.00  0.00    -0.382 OA
ATOM     33  H   UNL     1       4.811   0.290  21.407  0.00  0.00    +0.211 HD
ENDBRANCH  18   3
ENDBRANCH  21  18
ENDBRANCH  16   5
ENDBRANCH  10  16
TORSDOF 7
ENDMDL
MODEL 3
REMARK VINA RESULT:      -1.1      2.352      7.074
REMARK  Name = 11942948
REMARK  7 active torsions:
REMARK  status: ('A' for Active; 'I' for Inactive)
REMARK    1  A    between atoms: O_3  and  C_18
REMARK    2  A    between atoms: N_5  and  C_16
REMARK    3  A    between atoms: N_6  and  C_25
REMARK    4  A    between atoms: C_10  and  C_16
REMARK    5  A    between atoms: C_11  and  C_17
REMARK    6  A    between atoms: C_18  and  C_21
REMARK    7  A    between atoms: C_25  and  C_26
REMARK                            x       y       z     vdW  Elec       q    Type
REMARK                         _______ _______ _______ _____ _____    ______ ____
ROOT
ATOM      4  N   UNL     1      -3.617  -1.043  25.866  0.00  0.00    -0.297 NA
ATOM      9  C   UNL     1      -1.833  -2.340  24.486  0.00  0.00    +0.005 C 
ATOM     10  C   UNL     1      -4.166  -1.392  24.529  0.00  0.00    +0.078 C 
ATOM     11  C   UNL     1      -1.259  -1.022  25.040  0.00  0.00    +0.092 C 
ATOM     12  C   UNL     1      -3.079  -2.027  23.634  0.00  0.00    +0.025 C 
ATOM     13  C   UNL     1      -2.302  -3.165  25.698  0.00  0.00    +0.020 C 
ATOM     14  C   UNL     1      -2.386  -0.226  25.721  0.00  0.00    +0.097 C 
ATOM     15  C   UNL     1      -3.253  -2.307  26.554  0.00  0.00    +0.085 C 
ENDROOT
BRANCH  11  17
ATOM      2  O   UNL     1      -1.095   0.794  23.499  0.00  0.00    -0.275 OA
ATOM      6  N   UNL     1       0.609  -0.791  23.559  0.00  0.00    -0.311 N 
ATOM     17  C   UNL     1      -0.590  -0.226  23.960  0.00  0.00    +0.218 C 
ATOM     32  H   UNL     1       0.962  -1.614  24.036  0.00  0.00    +0.149 HD
BRANCH   6  25
ATOM     25  C   UNL     1       1.438  -0.230  22.517  0.00  0.00    +0.139 C 
BRANCH  25  26
ATOM      1  F   UNL     1       6.849  -0.016  24.019  0.00  0.00    -0.205 F 
ATOM     26  C   UNL     1       2.883  -0.173  22.917  0.00  0.00    -0.030 A 
ATOM     27  C   UNL     1       3.614   0.987  22.692  0.00  0.00    +0.008 A 
ATOM     28  C   UNL     1       3.477  -1.282  23.510  0.00  0.00    +0.008 A 
ATOM     29  C   UNL     1       4.957   1.041  23.065  0.00  0.00    +0.038 A 
ATOM     30  C   UNL     1       4.820  -1.229  23.882  0.00  0.00    +0.038 A 
ATOM     31  C   UNL     1       5.560  -0.067  23.661  0.00  0.00    +0.123 A 
ENDBRANCH  25  26
ENDBRANCH   6  25
ENDBRANCH  11  17
BRANCH  10  16
ATOM     16  C   UNL     1      -4.840  -0.200  23.847  0.00  0.00    +0.164 C 
BRANCH  16   5
ATOM      5  N   UNL     1      -4.510   1.055  24.503  0.00  0.00    -0.250 N 
ATOM      7  N   UNL     1      -5.350   1.588  25.395  0.00  0.00    -0.065 NA
ATOM      8  N   UNL     1      -4.795   2.718  25.818  0.00  0.00    -0.132 NA
ATOM     21  C   UNL     1      -3.601   2.868  25.169  0.00  0.00    +0.114 A 
ATOM     22  C   UNL     1      -3.402   1.809  24.320  0.00  0.00    +0.136 A 
BRANCH  21  18
ATOM     18  C   UNL     1      -2.711   4.066  25.427  0.00  0.00    +0.111 C 
ATOM     19  C   UNL     1      -2.952   5.233  24.451  0.00  0.00    +0.041 C 
ATOM     20  C   UNL     1      -1.202   3.837  25.231  0.00  0.00    +0.041 C 
ATOM     23  C   UNL     1      -1.702   6.109  24.535  0.00  0.00    +0.003 C 
ATOM     24  C   UNL     1      -0.608   5.239  25.143  0.00  0.00    +0.003 C 
BRANCH  18   3
ATOM      3  O   UNL     1      -2.922   4.558  26.757  0.00  0.00    -0.382 OA
ATOM     33  H   UNL     1      -2.665   3.856  27.379  0.00  0.00    +0.211 HD
ENDBRANCH  18   3
ENDBRANCH  21  18
ENDBRANCH  16   5
ENDBRANCH  10  16
TORSDOF 7
ENDMDL
MODEL 4
REMARK VINA RESULT:      -0.1      2.391      5.988
REMARK  Name = 11942948
REMARK  7 active torsions:
REMARK  status: ('A' for Active; 'I' for Inactive)
REMARK    1  A    between atoms: O_3  and  C_18
REMARK    2  A    between atoms: N_5  and  C_16
REMARK    3  A    between atoms: N_6  and  C_25
REMARK    4  A    between atoms: C_10  and  C_16
REMARK    5  A    between atoms: C_11  and  C_17
REMARK    6  A    between atoms: C_18  and  C_21
REMARK    7  A    between atoms: C_25  and  C_26
REMARK                            x       y       z     vdW  Elec       q    Type
REMARK                         _______ _______ _______ _____ _____    ______ ____
ROOT
ATOM      4  N   UNL     1      -2.521   4.817  23.646  0.00  0.00    -0.297 NA
ATOM      9  C   UNL     1      -1.326   3.913  25.773  0.00  0.00    +0.005 C 
ATOM     10  C   UNL     1      -3.499   4.109  24.514  0.00  0.00    +0.078 C 
ATOM     11  C   UNL     1      -0.593   3.472  24.492  0.00  0.00    +0.092 C 
ATOM     12  C   UNL     1      -2.789   3.431  25.708  0.00  0.00    +0.025 C 
ATOM     13  C   UNL     1      -1.350   5.452  25.763  0.00  0.00    +0.020 C 
ATOM     14  C   UNL     1      -1.415   3.904  23.265  0.00  0.00    +0.097 C 
ATOM     15  C   UNL     1      -1.945   5.939  24.428  0.00  0.00    +0.085 C 
ENDROOT
BRANCH  11  17
ATOM      2  O   UNL     1      -0.754   1.268  25.395  0.00  0.00    -0.275 OA
ATOM      6  N   UNL     1       0.421   1.590  23.412  0.00  0.00    -0.311 N 
ATOM     17  C   UNL     1      -0.336   1.995  24.497  0.00  0.00    +0.218 C 
ATOM     32  H   UNL     1       0.679   2.264  22.699  0.00  0.00    +0.149 HD
BRANCH   6  25
ATOM     25  C   UNL     1       0.826   0.220  23.196  0.00  0.00    +0.139 C 
BRANCH  25  26
ATOM      1  F   UNL     1       6.415  -0.364  23.288  0.00  0.00    -0.205 F 
ATOM     26  C   UNL     1       2.318   0.064  23.220  0.00  0.00    -0.030 A 
ATOM     27  C   UNL     1       3.127   1.128  22.841  0.00  0.00    +0.008 A 
ATOM     28  C   UNL     1       2.877  -1.144  23.622  0.00  0.00    +0.008 A 
ATOM     29  C   UNL     1       4.515   0.983  22.864  0.00  0.00    +0.038 A 
ATOM     30  C   UNL     1       4.264  -1.290  23.644  0.00  0.00    +0.038 A 
ATOM     31  C   UNL     1       5.083  -0.225  23.266  0.00  0.00    +0.123 A 
ENDBRANCH  25  26
ENDBRANCH   6  25
ENDBRANCH  11  17
BRANCH  10  16
ATOM     16  C   UNL     1      -4.364   3.119  23.731  0.00  0.00    +0.164 C 
BRANCH  16   5
ATOM      5  N   UNL     1      -4.308   1.783  24.301  0.00  0.00    -0.250 N 
ATOM      7  N   UNL     1      -5.077   1.465  25.345  0.00  0.00    -0.065 NA
ATOM      8  N   UNL     1      -4.812   0.199  25.647  0.00  0.00    -0.132 NA
ATOM     21  C   UNL     1      -3.866  -0.253  24.770  0.00  0.00    +0.114 A 
ATOM     22  C   UNL     1      -3.530   0.752  23.897  0.00  0.00    +0.136 A 
BRANCH  21  18
ATOM     18  C   UNL     1      -3.339  -1.670  24.841  0.00  0.00    +0.111 C 
ATOM     19  C   UNL     1      -1.842  -1.787  24.498  0.00  0.00    +0.041 C 
ATOM     20  C   UNL     1      -3.942  -2.665  23.834  0.00  0.00    +0.041 C 
ATOM     23  C   UNL     1      -1.609  -3.259  24.154  0.00  0.00    +0.003 C 
ATOM     24  C   UNL     1      -2.978  -3.848  23.837  0.00  0.00    +0.003 C 
BRANCH  18   3
ATOM      3  O   UNL     1      -3.526  -2.198  26.161  0.00  0.00    -0.382 OA
ATOM     33  H   UNL     1      -4.218  -1.671  26.597  0.00  0.00    +0.211 HD
ENDBRANCH  18   3
ENDBRANCH  21  18
ENDBRANCH  16   5
ENDBRANCH  10  16
TORSDOF 7
ENDMDL
