MODEL 1
REMARK VINA RESULT:       0.9      0.000      0.000
REMARK  Name = 28960653
REMARK  6 active torsions:
REMARK  status: ('A' for Active; 'I' for Inactive)
REMARK    1  A    between atoms: N_6  and  C_18
REMARK    2  A    between atoms: N_7  and  C_13
REMARK    3  A    between atoms: N_9  and  C_21
REMARK    4  A    between atoms: C_14  and  C_17
REMARK    5  A    between atoms: C_20  and  C_22
REMARK    6  A    between atoms: C_25  and  C_29
REMARK                            x       y       z     vdW  Elec       q    Type
REMARK                         _______ _______ _______ _____ _____    ______ ____
ROOT
ATOM      6  N   UNL     1      -3.095   4.125  26.282  0.00  0.00    -0.293 NA
ATOM     13  C   UNL     1      -1.886   5.135  24.563  0.00  0.00    +0.090 C 
ATOM     14  C   UNL     1      -3.859   3.785  25.066  0.00  0.00    +0.147 C 
ATOM     15  C   UNL     1      -2.995   4.314  23.905  0.00  0.00    +0.052 C 
ATOM     16  C   UNL     1      -2.392   5.376  25.977  0.00  0.00    +0.107 C 
ATOM     18  C   UNL     1      -3.931   4.246  27.470  0.00  0.00    +0.105 C 
ENDROOT
BRANCH  13   7
ATOM      5  O   UNL     1      -1.320   2.649  23.258  0.00  0.00    -0.253 OA
ATOM      7  N   UNL     1      -0.630   4.423  24.569  0.00  0.00    -0.295 N 
ATOM      9  N   UNL     1       0.874   2.758  24.087  0.00  0.00    -0.269 N 
ATOM     19  C   UNL     1      -0.436   3.208  23.903  0.00  0.00    +0.304 C 
ATOM     32  H   UNL     1       0.127   4.785  25.143  0.00  0.00    +0.151 HD
ATOM     33  H   UNL     1       1.483   3.343  24.652  0.00  0.00    +0.156 HD
BRANCH   9  21
ATOM     21  C   UNL     1       1.464   1.577  23.579  0.00  0.00    +0.035 A 
ATOM     23  C   UNL     1       2.846   1.399  23.657  0.00  0.00    +0.035 A 
ATOM     24  C   UNL     1       0.666   0.591  23.000  0.00  0.00    +0.023 A 
ATOM     25  C   UNL     1       3.428   0.234  23.156  0.00  0.00    +0.057 A 
ATOM     27  C   UNL     1       1.248  -0.574  22.501  0.00  0.00    +0.002 A 
ATOM     28  C   UNL     1       2.629  -0.752  22.578  0.00  0.00    +0.012 A 
BRANCH  25  29
ATOM      1  F   UNL     1       5.519   1.008  23.984  0.00  0.00    -0.166 F 
ATOM      2  F   UNL     1       5.273  -1.145  23.803  0.00  0.00    -0.166 F 
ATOM      3  F   UNL     1       5.528   0.068  22.023  0.00  0.00    -0.166 F 
ATOM     29  C   UNL     1       4.905   0.044  23.239  0.00  0.00    +0.417 C 
ENDBRANCH  25  29
ENDBRANCH   9  21
ENDBRANCH  13   7
BRANCH  14  17
ATOM      4  O   UNL     1      -5.468   1.946  25.058  0.00  0.00    -0.336 OA
ATOM      8  N   UNL     1      -3.347   1.307  24.726  0.00  0.00    -0.189 NA
ATOM     10  N   UNL     1      -5.501   0.554  24.908  0.00  0.00    -0.054 NA
ATOM     17  C   UNL     1      -4.165   2.308  24.938  0.00  0.00    +0.245 A 
ATOM     20  C   UNL     1      -4.213   0.252  24.715  0.00  0.00    +0.222 A 
BRANCH  20  22
ATOM     11  N   UNL     1      -4.614  -1.932  23.890  0.00  0.00    -0.249 NA
ATOM     12  N   UNL     1      -2.071  -2.760  24.735  0.00  0.00    -0.260 NA
ATOM     22  C   UNL     1      -3.759  -1.093  24.507  0.00  0.00    +0.129 A 
ATOM     26  C   UNL     1      -2.510  -1.500  24.923  0.00  0.00    +0.142 A 
ATOM     30  C   UNL     1      -4.175  -3.193  23.703  0.00  0.00    +0.131 A 
ATOM     31  C   UNL     1      -2.926  -3.599  24.117  0.00  0.00    +0.130 A 
ENDBRANCH  20  22
ENDBRANCH  14  17
TORSDOF 5
ENDMDL
MODEL 2
REMARK VINA RESULT:       1.1      1.521      5.125
REMARK  Name = 28960653
REMARK  6 active torsions:
REMARK  status: ('A' for Active; 'I' for Inactive)
REMARK    1  A    between atoms: N_6  and  C_18
REMARK    2  A    between atoms: N_7  and  C_13
REMARK    3  A    between atoms: N_9  and  C_21
REMARK    4  A    between atoms: C_14  and  C_17
REMARK    5  A    between atoms: C_20  and  C_22
REMARK    6  A    between atoms: C_25  and  C_29
REMARK                            x       y       z     vdW  Elec       q    Type
REMARK                         _______ _______ _______ _____ _____    ______ ____
ROOT
ATOM      6  N   UNL     1      -4.172  -1.574  24.050  0.00  0.00    -0.293 NA
ATOM     13  C   UNL     1      -2.443  -2.811  25.006  0.00  0.00    +0.090 C 
ATOM     14  C   UNL     1      -3.968  -0.936  25.365  0.00  0.00    +0.147 C 
ATOM     15  C   UNL     1      -2.728  -1.642  25.949  0.00  0.00    +0.052 C 
ATOM     16  C   UNL     1      -3.726  -2.962  24.204  0.00  0.00    +0.107 C 
ATOM     18  C   UNL     1      -5.550  -1.493  23.582  0.00  0.00    +0.105 C 
ENDROOT
BRANCH  13   7
ATOM      5  O   UNL     1      -0.471  -0.764  25.366  0.00  0.00    -0.253 OA
ATOM      7  N   UNL     1      -1.316  -2.537  24.146  0.00  0.00    -0.295 N 
ATOM      9  N   UNL     1       0.582  -1.487  23.397  0.00  0.00    -0.269 N 
ATOM     19  C   UNL     1      -0.396  -1.513  24.395  0.00  0.00    +0.304 C 
ATOM     32  H   UNL     1      -1.228  -3.066  23.283  0.00  0.00    +0.151 HD
ATOM     33  H   UNL     1       0.500  -2.181  22.658  0.00  0.00    +0.156 HD
BRANCH   9  21
ATOM     21  C   UNL     1       1.684  -0.607  23.284  0.00  0.00    +0.035 A 
ATOM     23  C   UNL     1       2.974  -1.066  23.553  0.00  0.00    +0.035 A 
ATOM     24  C   UNL     1       1.481   0.720  22.904  0.00  0.00    +0.023 A 
ATOM     25  C   UNL     1       4.060  -0.198  23.442  0.00  0.00    +0.057 A 
ATOM     27  C   UNL     1       2.568   1.588  22.792  0.00  0.00    +0.002 A 
ATOM     28  C   UNL     1       3.857   1.129  23.062  0.00  0.00    +0.012 A 
BRANCH  25  29
ATOM      1  F   UNL     1       5.516  -2.050  23.767  0.00  0.00    -0.166 F 
ATOM      2  F   UNL     1       6.364  -0.294  22.804  0.00  0.00    -0.166 F 
ATOM      3  F   UNL     1       5.932  -0.260  24.929  0.00  0.00    -0.166 F 
ATOM     29  C   UNL     1       5.439  -0.688  23.729  0.00  0.00    +0.417 C 
ENDBRANCH  25  29
ENDBRANCH   9  21
ENDBRANCH  13   7
BRANCH  14  17
ATOM      4  O   UNL     1      -4.932   1.309  25.396  0.00  0.00    -0.336 OA
ATOM      8  N   UNL     1      -2.708   1.271  25.131  0.00  0.00    -0.189 NA
ATOM     10  N   UNL     1      -4.530   2.647  25.296  0.00  0.00    -0.054 NA
ATOM     17  C   UNL     1      -3.799   0.566  25.289  0.00  0.00    +0.245 A 
ATOM     20  C   UNL     1      -3.206   2.542  25.141  0.00  0.00    +0.222 A 
BRANCH  20  22
ATOM     11  N   UNL     1      -1.125   3.467  24.489  0.00  0.00    -0.249 NA
ATOM     12  N   UNL     1      -1.986   6.030  25.234  0.00  0.00    -0.260 NA
ATOM     22  C   UNL     1      -2.353   3.687  24.997  0.00  0.00    +0.129 A 
ATOM     26  C   UNL     1      -2.776   4.946  25.364  0.00  0.00    +0.142 A 
ATOM     30  C   UNL     1      -0.334   4.551  24.360  0.00  0.00    +0.131 A 
ATOM     31  C   UNL     1      -0.757   5.810  24.726  0.00  0.00    +0.130 A 
ENDBRANCH  20  22
ENDBRANCH  14  17
TORSDOF 5
ENDMDL
MODEL 3
REMARK VINA RESULT:       2.7      2.445      5.493
REMARK  Name = 28960653
REMARK  6 active torsions:
REMARK  status: ('A' for Active; 'I' for Inactive)
REMARK    1  A    between atoms: N_6  and  C_18
REMARK    2  A    between atoms: N_7  and  C_13
REMARK    3  A    between atoms: N_9  and  C_21
REMARK    4  A    between atoms: C_14  and  C_17
REMARK    5  A    between atoms: C_20  and  C_22
REMARK    6  A    between atoms: C_25  and  C_29
REMARK                            x       y       z     vdW  Elec       q    Type
REMARK                         _______ _______ _______ _____ _____    ______ ____
ROOT
ATOM      6  N   UNL     1      -3.946   4.431  24.159  0.00  0.00    -0.293 NA
ATOM     13  C   UNL     1      -5.247   3.523  25.867  0.00  0.00    +0.090 C 
ATOM     14  C   UNL     1      -3.047   4.440  25.329  0.00  0.00    +0.147 C 
ATOM     15  C   UNL     1      -3.837   3.704  26.430  0.00  0.00    +0.052 C 
ATOM     16  C   UNL     1      -5.308   4.495  24.699  0.00  0.00    +0.107 C 
ATOM     18  C   UNL     1      -3.680   5.516  23.223  0.00  0.00    +0.105 C 
ENDROOT
BRANCH  13   7
ATOM      5  O   UNL     1      -3.260   1.509  25.422  0.00  0.00    -0.253 OA
ATOM      7  N   UNL     1      -5.477   2.166  25.433  0.00  0.00    -0.295 N 
ATOM      9  N   UNL     1      -4.966   0.014  24.818  0.00  0.00    -0.269 N 
ATOM     19  C   UNL     1      -4.445   1.241  25.238  0.00  0.00    +0.304 C 
ATOM     32  H   UNL     1      -6.423   1.891  25.189  0.00  0.00    +0.151 HD
ATOM     33  H   UNL     1      -5.976  -0.041  24.715  0.00  0.00    +0.156 HD
BRANCH   9  21
ATOM     21  C   UNL     1      -4.257  -1.172  24.517  0.00  0.00    +0.035 A 
ATOM     23  C   UNL     1      -2.920  -1.302  24.896  0.00  0.00    +0.035 A 
ATOM     24  C   UNL     1      -4.895  -2.212  23.841  0.00  0.00    +0.023 A 
ATOM     25  C   UNL     1      -2.223  -2.473  24.599  0.00  0.00    +0.057 A 
ATOM     27  C   UNL     1      -4.196  -3.383  23.545  0.00  0.00    +0.002 A 
ATOM     28  C   UNL     1      -2.860  -3.513  23.923  0.00  0.00    +0.012 A 
BRANCH  25  29
ATOM      1  F   UNL     1       0.058  -2.598  23.937  0.00  0.00    -0.166 F 
ATOM      2  F   UNL     1      -0.359  -1.617  25.832  0.00  0.00    -0.166 F 
ATOM      3  F   UNL     1      -0.526  -3.773  25.671  0.00  0.00    -0.166 F 
ATOM     29  C   UNL     1      -0.794  -2.612  25.003  0.00  0.00    +0.417 C 
ENDBRANCH  25  29
ENDBRANCH   9  21
ENDBRANCH  13   7
BRANCH  14  17
ATOM      4  O   UNL     1      -0.638   4.337  25.723  0.00  0.00    -0.336 OA
ATOM      8  N   UNL     1      -1.394   2.809  24.270  0.00  0.00    -0.189 NA
ATOM     10  N   UNL     1       0.481   3.599  25.317  0.00  0.00    -0.054 NA
ATOM     17  C   UNL     1      -1.699   3.807  25.060  0.00  0.00    +0.245 A 
ATOM     20  C   UNL     1      -0.045   2.718  24.460  0.00  0.00    +0.222 A 
BRANCH  20  22
ATOM     11  N   UNL     1       2.063   1.998  23.655  0.00  0.00    -0.249 NA
ATOM     12  N   UNL     1       0.917  -0.354  22.645  0.00  0.00    -0.260 NA
ATOM     22  C   UNL     1       0.747   1.734  23.782  0.00  0.00    +0.129 A 
ATOM     26  C   UNL     1       0.184   0.578  23.285  0.00  0.00    +0.142 A 
ATOM     30  C   UNL     1       2.795   1.065  23.014  0.00  0.00    +0.131 A 
ATOM     31  C   UNL     1       2.232  -0.090  22.518  0.00  0.00    +0.130 A 
ENDBRANCH  20  22
ENDBRANCH  14  17
TORSDOF 5
ENDMDL
MODEL 4
REMARK VINA RESULT:       4.2      3.147      7.246
REMARK  Name = 28960653
REMARK  6 active torsions:
REMARK  status: ('A' for Active; 'I' for Inactive)
REMARK    1  A    between atoms: N_6  and  C_18
REMARK    2  A    between atoms: N_7  and  C_13
REMARK    3  A    between atoms: N_9  and  C_21
REMARK    4  A    between atoms: C_14  and  C_17
REMARK    5  A    between atoms: C_20  and  C_22
REMARK    6  A    between atoms: C_25  and  C_29
REMARK                            x       y       z     vdW  Elec       q    Type
REMARK                         _______ _______ _______ _____ _____    ______ ____
ROOT
ATOM      6  N   UNL     1      -2.006  -1.977  25.723  0.00  0.00    -0.293 NA
ATOM     13  C   UNL     1      -3.844  -2.331  24.335  0.00  0.00    +0.090 C 
ATOM     14  C   UNL     1      -1.407  -2.448  24.458  0.00  0.00    +0.147 C 
ATOM     15  C   UNL     1      -2.595  -2.542  23.480  0.00  0.00    +0.052 C 
ATOM     16  C   UNL     1      -3.359  -2.540  25.761  0.00  0.00    +0.107 C 
ATOM     18  C   UNL     1      -1.228  -2.348  26.899  0.00  0.00    +0.105 C 
ENDROOT
BRANCH  13   7
ATOM      5  O   UNL     1      -2.832   0.108  25.445  0.00  0.00    -0.253 OA
ATOM      7  N   UNL     1      -4.394  -1.008  24.156  0.00  0.00    -0.295 N 
ATOM      9  N   UNL     1      -4.579   1.268  24.391  0.00  0.00    -0.269 N 
ATOM     19  C   UNL     1      -3.836   0.136  24.737  0.00  0.00    +0.304 C 
ATOM     32  H   UNL     1      -5.267  -0.912  23.645  0.00  0.00    +0.151 HD
ATOM     33  H   UNL     1      -5.387   1.118  23.793  0.00  0.00    +0.156 HD
BRANCH   9  21
ATOM     21  C   UNL     1      -4.345   2.610  24.772  0.00  0.00    +0.035 A 
ATOM     23  C   UNL     1      -3.055   3.139  24.709  0.00  0.00    +0.035 A 
ATOM     24  C   UNL     1      -5.404   3.405  25.211  0.00  0.00    +0.023 A 
ATOM     25  C   UNL     1      -2.825   4.462  25.084  0.00  0.00    +0.057 A 
ATOM     27  C   UNL     1      -5.173   4.729  25.586  0.00  0.00    +0.002 A 
ATOM     28  C   UNL     1      -3.884   5.257  25.523  0.00  0.00    +0.012 A 
BRANCH  25  29
ATOM      1  F   UNL     1      -0.575   4.388  25.850  0.00  0.00    -0.166 F 
ATOM      2  F   UNL     1      -0.885   4.955  23.774  0.00  0.00    -0.166 F 
ATOM      3  F   UNL     1      -1.381   6.348  25.361  0.00  0.00    -0.166 F 
ATOM     29  C   UNL     1      -1.447   5.028  25.017  0.00  0.00    +0.417 C 
ENDBRANCH  25  29
ENDBRANCH   9  21
ENDBRANCH  13   7
BRANCH  14  17
ATOM      4  O   UNL     1      -0.681  -0.483  23.201  0.00  0.00    -0.336 OA
ATOM      8  N   UNL     1       0.995  -1.659  24.109  0.00  0.00    -0.189 NA
ATOM     10  N   UNL     1       0.498   0.182  22.843  0.00  0.00    -0.054 NA
ATOM     17  C   UNL     1      -0.300  -1.554  23.944  0.00  0.00    +0.245 A 
ATOM     20  C   UNL     1       1.443  -0.572  23.415  0.00  0.00    +0.222 A 
BRANCH  20  22
ATOM     11  N   UNL     1       3.699  -1.197  23.774  0.00  0.00    -0.249 NA
ATOM     12  N   UNL     1       4.586   1.228  22.678  0.00  0.00    -0.260 NA
ATOM     22  C   UNL     1       2.841  -0.265  23.315  0.00  0.00    +0.129 A 
ATOM     26  C   UNL     1       3.276   0.926  22.777  0.00  0.00    +0.142 A 
ATOM     30  C   UNL     1       5.009  -0.895  23.675  0.00  0.00    +0.131 A 
ATOM     31  C   UNL     1       5.444   0.296  23.136  0.00  0.00    +0.130 A 
ENDBRANCH  20  22
ENDBRANCH  14  17
TORSDOF 5
ENDMDL
MODEL 5
REMARK VINA RESULT:       4.5      2.069      2.534
REMARK  Name = 28960653
REMARK  6 active torsions:
REMARK  status: ('A' for Active; 'I' for Inactive)
REMARK    1  A    between atoms: N_6  and  C_18
REMARK    2  A    between atoms: N_7  and  C_13
REMARK    3  A    between atoms: N_9  and  C_21
REMARK    4  A    between atoms: C_14  and  C_17
REMARK    5  A    between atoms: C_20  and  C_22
REMARK    6  A    between atoms: C_25  and  C_29
REMARK                            x       y       z     vdW  Elec       q    Type
REMARK                         _______ _______ _______ _____ _____    ______ ____
ROOT
ATOM      6  N   UNL     1      -3.161   4.447  26.305  0.00  0.00    -0.293 NA
ATOM     13  C   UNL     1      -2.026   5.429  24.521  0.00  0.00    +0.090 C 
ATOM     14  C   UNL     1      -4.032   4.180  25.144  0.00  0.00    +0.147 C 
ATOM     15  C   UNL     1      -3.226   4.689  23.931  0.00  0.00    +0.052 C 
ATOM     16  C   UNL     1      -2.411   5.663  25.974  0.00  0.00    +0.107 C 
ATOM     18  C   UNL     1      -3.898   4.585  27.555  0.00  0.00    +0.105 C 
ENDROOT
BRANCH  13   7
ATOM      5  O   UNL     1      -1.840   2.625  23.963  0.00  0.00    -0.253 OA
ATOM      7  N   UNL     1      -0.816   4.648  24.418  0.00  0.00    -0.295 N 
ATOM      9  N   UNL     1       0.497   2.792  24.104  0.00  0.00    -0.269 N 
ATOM     19  C   UNL     1      -0.813   3.276  24.142  0.00  0.00    +0.304 C 
ATOM     32  H   UNL     1       0.069   5.099  24.626  0.00  0.00    +0.151 HD
ATOM     33  H   UNL     1       1.238   3.467  24.274  0.00  0.00    +0.156 HD
BRANCH   9  21
ATOM     21  C   UNL     1       0.925   1.467  23.856  0.00  0.00    +0.035 A 
ATOM     23  C   UNL     1       0.279   0.396  24.475  0.00  0.00    +0.035 A 
ATOM     24  C   UNL     1       1.994   1.230  22.991  0.00  0.00    +0.023 A 
ATOM     25  C   UNL     1       0.701  -0.910  24.229  0.00  0.00    +0.057 A 
ATOM     27  C   UNL     1       2.416  -0.077  22.745  0.00  0.00    +0.002 A 
ATOM     28  C   UNL     1       1.770  -1.147  23.365  0.00  0.00    +0.012 A 
BRANCH  25  29
ATOM      1  F   UNL     1      -0.821  -1.655  25.898  0.00  0.00    -0.166 F 
ATOM      2  F   UNL     1      -0.767  -2.789  24.043  0.00  0.00    -0.166 F 
ATOM      3  F   UNL     1       0.867  -2.955  25.459  0.00  0.00    -0.166 F 
ATOM     29  C   UNL     1       0.011  -2.054  24.891  0.00  0.00    +0.417 C 
ENDBRANCH  25  29
ENDBRANCH   9  21
ENDBRANCH  13   7
BRANCH  14  17
ATOM      4  O   UNL     1      -5.759   2.473  24.875  0.00  0.00    -0.336 OA
ATOM      8  N   UNL     1      -3.677   1.657  25.001  0.00  0.00    -0.189 NA
ATOM     10  N   UNL     1      -5.880   1.082  24.770  0.00  0.00    -0.054 NA
ATOM     17  C   UNL     1      -4.431   2.727  25.008  0.00  0.00    +0.245 A 
ATOM     20  C   UNL     1      -4.610   0.672  24.853  0.00  0.00    +0.222 A 
BRANCH  20  22
ATOM     11  N   UNL     1      -4.425  -1.335  23.608  0.00  0.00    -0.249 NA
ATOM     12  N   UNL     1      -3.375  -2.669  25.840  0.00  0.00    -0.260 NA
ATOM     22  C   UNL     1      -4.241  -0.713  24.789  0.00  0.00    +0.129 A 
ATOM     26  C   UNL     1      -3.726  -1.368  25.886  0.00  0.00    +0.142 A 
ATOM     30  C   UNL     1      -4.076  -2.636  23.563  0.00  0.00    +0.131 A 
ATOM     31  C   UNL     1      -3.560  -3.291  24.659  0.00  0.00    +0.130 A 
ENDBRANCH  20  22
ENDBRANCH  14  17
TORSDOF 5
ENDMDL
