MODEL 1
REMARK VINA RESULT:       0.2      0.000      0.000
REMARK  Name = 28959913
REMARK  10 active torsions:
REMARK  status: ('A' for Active; 'I' for Inactive)
REMARK    1  A    between atoms: O_3  and  C_22
REMARK    2  A    between atoms: O_5  and  C_23
REMARK    3  A    between atoms: O_5  and  C_29
REMARK    4  A    between atoms: N_7  and  C_15
REMARK    5  A    between atoms: N_8  and  C_24
REMARK    6  A    between atoms: C_9  and  C_13
REMARK    7  A    between atoms: C_10  and  C_16
REMARK    8  A    between atoms: C_13  and  C_15
REMARK    9  A    between atoms: C_16  and  C_22
REMARK   10  A    between atoms: C_19  and  C_23
REMARK                            x       y       z     vdW  Elec       q    Type
REMARK                         _______ _______ _______ _____ _____    ______ ____
ROOT
ATOM      2  O   UNL     1      -6.659   1.576  26.894  0.00  0.00    -0.272 OA
ATOM      6  N   UNL     1      -5.279   2.818  25.498  0.00  0.00    -0.298 N 
ATOM      9  C   UNL     1      -3.100   3.217  24.373  0.00  0.00    +0.011 C 
ATOM     10  C   UNL     1      -2.806   4.324  25.417  0.00  0.00    +0.006 C 
ATOM     11  C   UNL     1      -4.621   3.046  24.205  0.00  0.00    +0.111 C 
ATOM     12  C   UNL     1      -3.555   4.072  26.736  0.00  0.00    +0.023 C 
ATOM     14  C   UNL     1      -5.048   3.863  26.495  0.00  0.00    +0.108 C 
ATOM     19  C   UNL     1      -6.096   1.731  25.807  0.00  0.00    +0.253 C 
ENDROOT
BRANCH   9  13
ATOM     13  C   UNL     1      -2.445   1.868  24.695  0.00  0.00    +0.020 C 
BRANCH  13  15
ATOM     15  C   UNL     1      -2.238   1.049  23.430  0.00  0.00    +0.085 C 
BRANCH  15   7
ATOM      7  N   UNL     1      -0.822   1.046  23.066  0.00  0.00    -0.299 NA
ATOM      8  N   UNL     1       1.933   0.333  23.313  0.00  0.00    -0.327 N 
ATOM     17  C   UNL     1      -0.375  -0.315  22.744  0.00  0.00    +0.103 C 
ATOM     18  C   UNL     1      -0.008   1.595  24.158  0.00  0.00    +0.103 C 
ATOM     20  C   UNL     1       1.092  -0.323  22.307  0.00  0.00    +0.120 C 
ATOM     21  C   UNL     1       1.471   1.651  23.767  0.00  0.00    +0.120 C 
BRANCH   8  24
ATOM      1  F   UNL     1       7.362  -0.701  23.447  0.00  0.00    -0.205 F 
ATOM     24  C   UNL     1       3.308   0.072  23.347  0.00  0.00    +0.030 A 
ATOM     25  C   UNL     1       3.769  -1.187  23.737  0.00  0.00    +0.026 A 
ATOM     26  C   UNL     1       4.216   1.067  22.990  0.00  0.00    +0.026 A 
ATOM     27  C   UNL     1       5.138  -1.447  23.770  0.00  0.00    +0.040 A 
ATOM     28  C   UNL     1       5.586   0.807  23.023  0.00  0.00    +0.040 A 
ATOM     30  C   UNL     1       6.047  -0.451  23.414  0.00  0.00    +0.124 A 
ENDBRANCH   8  24
ENDBRANCH  15   7
ENDBRANCH  13  15
ENDBRANCH   9  13
BRANCH  10  16
ATOM     16  C   UNL     1      -1.314   4.527  25.674  0.00  0.00    +0.124 C 
BRANCH  16  22
ATOM      4  O   UNL     1       0.243   4.942  23.844  0.00  0.00    -0.251 OA
ATOM     22  C   UNL     1      -0.662   5.319  24.574  0.00  0.00    +0.305 C 
BRANCH  22   3
ATOM      3  O   UNL     1      -1.234   6.548  24.496  0.00  0.00    -0.481 OA
ATOM     36  H   UNL     1      -1.802   6.638  23.700  0.00  0.00    +0.295 HD
ENDBRANCH  22   3
ENDBRANCH  16  22
ENDBRANCH  10  16
BRANCH  19  23
ATOM     23  C   UNL     1      -6.282   0.696  24.727  0.00  0.00    +0.324 C 
BRANCH  23   5
ATOM      5  O   UNL     1      -5.005   0.435  24.196  0.00  0.00    -0.483 OA
BRANCH   5  29
ATOM     29  C   UNL     1      -4.395  -0.743  24.566  0.00  0.00    +0.121 A 
ATOM     31  C   UNL     1      -3.743  -0.835  25.796  0.00  0.00    +0.045 A 
ATOM     32  C   UNL     1      -4.429  -1.843  23.710  0.00  0.00    +0.045 A 
ATOM     33  C   UNL     1      -3.126  -2.029  26.170  0.00  0.00    +0.004 A 
ATOM     34  C   UNL     1      -3.812  -3.038  24.084  0.00  0.00    +0.004 A 
ATOM     35  C   UNL     1      -3.160  -3.129  25.314  0.00  0.00    +0.000 A 
ENDBRANCH   5  29
ENDBRANCH  23   5
ENDBRANCH  19  23
TORSDOF 10
ENDMDL
MODEL 2
REMARK VINA RESULT:       1.9      2.431      5.003
REMARK  Name = 28959913
REMARK  10 active torsions:
REMARK  status: ('A' for Active; 'I' for Inactive)
REMARK    1  A    between atoms: O_3  and  C_22
REMARK    2  A    between atoms: O_5  and  C_23
REMARK    3  A    between atoms: O_5  and  C_29
REMARK    4  A    between atoms: N_7  and  C_15
REMARK    5  A    between atoms: N_8  and  C_24
REMARK    6  A    between atoms: C_9  and  C_13
REMARK    7  A    between atoms: C_10  and  C_16
REMARK    8  A    between atoms: C_13  and  C_15
REMARK    9  A    between atoms: C_16  and  C_22
REMARK   10  A    between atoms: C_19  and  C_23
REMARK                            x       y       z     vdW  Elec       q    Type
REMARK                         _______ _______ _______ _____ _____    ______ ____
ROOT
ATOM      2  O   UNL     1      -0.212   5.215  24.630  0.00  0.00    -0.272 OA
ATOM      6  N   UNL     1      -1.927   3.994  25.614  0.00  0.00    -0.298 N 
ATOM      9  C   UNL     1      -3.674   2.229  25.537  0.00  0.00    +0.011 C 
ATOM     10  C   UNL     1      -4.740   3.343  25.391  0.00  0.00    +0.006 C 
ATOM     11  C   UNL     1      -2.436   2.781  26.267  0.00  0.00    +0.111 C 
ATOM     12  C   UNL     1      -4.151   4.611  24.749  0.00  0.00    +0.023 C 
ATOM     14  C   UNL     1      -2.901   5.078  25.490  0.00  0.00    +0.108 C 
ATOM     19  C   UNL     1      -0.623   4.175  25.153  0.00  0.00    +0.253 C 
ENDROOT
BRANCH   9  13
ATOM     13  C   UNL     1      -3.262   1.582  24.208  0.00  0.00    +0.020 C 
BRANCH  13  15
ATOM     15  C   UNL     1      -3.059   0.084  24.373  0.00  0.00    +0.085 C 
BRANCH  15   7
ATOM      7  N   UNL     1      -1.735  -0.296  23.880  0.00  0.00    -0.299 NA
ATOM      8  N   UNL     1       1.112  -0.162  23.686  0.00  0.00    -0.327 N 
ATOM     17  C   UNL     1      -0.892  -0.773  24.983  0.00  0.00    +0.103 C 
ATOM     18  C   UNL     1      -1.089   0.842  23.213  0.00  0.00    +0.103 C 
ATOM     20  C   UNL     1       0.478  -1.226  24.472  0.00  0.00    +0.120 C 
ATOM     21  C   UNL     1       0.274   0.442  22.642  0.00  0.00    +0.120 C 
BRANCH   8  24
ATOM      1  F   UNL     1       6.586  -0.208  22.915  0.00  0.00    -0.205 F 
ATOM     24  C   UNL     1       2.497  -0.174  23.491  0.00  0.00    +0.030 A 
ATOM     25  C   UNL     1       3.131   0.933  22.925  0.00  0.00    +0.026 A 
ATOM     26  C   UNL     1       3.244  -1.291  23.863  0.00  0.00    +0.026 A 
ATOM     27  C   UNL     1       4.512   0.921  22.730  0.00  0.00    +0.040 A 
ATOM     28  C   UNL     1       4.626  -1.303  23.669  0.00  0.00    +0.040 A 
ATOM     30  C   UNL     1       5.260  -0.197  23.102  0.00  0.00    +0.124 A 
ENDBRANCH   8  24
ENDBRANCH  15   7
ENDBRANCH  13  15
ENDBRANCH   9  13
BRANCH  10  16
ATOM     16  C   UNL     1      -5.987   2.887  24.635  0.00  0.00    +0.124 C 
BRANCH  16  22
ATOM      4  O   UNL     1      -6.529   0.517  24.443  0.00  0.00    -0.251 OA
ATOM     22  C   UNL     1      -6.462   1.540  25.108  0.00  0.00    +0.305 C 
BRANCH  22   3
ATOM      3  O   UNL     1      -6.816   1.614  26.417  0.00  0.00    -0.481 OA
ATOM     36  H   UNL     1      -7.786   1.524  26.539  0.00  0.00    +0.295 HD
ENDBRANCH  22   3
ENDBRANCH  16  22
ENDBRANCH  10  16
BRANCH  19  23
ATOM     23  C   UNL     1       0.319   3.010  25.314  0.00  0.00    +0.324 C 
BRANCH  23   5
ATOM      5  O   UNL     1      -0.066   2.341  26.490  0.00  0.00    -0.483 OA
BRANCH   5  29
ATOM     29  C   UNL     1       0.738   2.495  27.598  0.00  0.00    +0.121 A 
ATOM     31  C   UNL     1       2.056   2.927  27.449  0.00  0.00    +0.045 A 
ATOM     32  C   UNL     1       0.234   2.220  28.869  0.00  0.00    +0.045 A 
ATOM     33  C   UNL     1       2.869   3.084  28.571  0.00  0.00    +0.004 A 
ATOM     34  C   UNL     1       1.047   2.377  29.991  0.00  0.00    +0.004 A 
ATOM     35  C   UNL     1       2.365   2.809  29.842  0.00  0.00    +0.000 A 
ENDBRANCH   5  29
ENDBRANCH  23   5
ENDBRANCH  19  23
TORSDOF 10
ENDMDL
MODEL 3
REMARK VINA RESULT:       2.5      1.787      4.391
REMARK  Name = 28959913
REMARK  10 active torsions:
REMARK  status: ('A' for Active; 'I' for Inactive)
REMARK    1  A    between atoms: O_3  and  C_22
REMARK    2  A    between atoms: O_5  and  C_23
REMARK    3  A    between atoms: O_5  and  C_29
REMARK    4  A    between atoms: N_7  and  C_15
REMARK    5  A    between atoms: N_8  and  C_24
REMARK    6  A    between atoms: C_9  and  C_13
REMARK    7  A    between atoms: C_10  and  C_16
REMARK    8  A    between atoms: C_13  and  C_15
REMARK    9  A    between atoms: C_16  and  C_22
REMARK   10  A    between atoms: C_19  and  C_23
REMARK                            x       y       z     vdW  Elec       q    Type
REMARK                         _______ _______ _______ _____ _____    ______ ____
ROOT
ATOM      2  O   UNL     1      -6.900   1.785  24.182  0.00  0.00    -0.272 OA
ATOM      6  N   UNL     1      -5.375   0.384  25.235  0.00  0.00    -0.298 N 
ATOM      9  C   UNL     1      -3.048  -0.288  25.788  0.00  0.00    +0.011 C 
ATOM     10  C   UNL     1      -3.172  -1.433  24.751  0.00  0.00    +0.006 C 
ATOM     11  C   UNL     1      -4.441   0.083  26.327  0.00  0.00    +0.111 C 
ATOM     12  C   UNL     1      -4.196  -1.096  23.655  0.00  0.00    +0.023 C 
ATOM     14  C   UNL     1      -5.539  -0.690  24.256  0.00  0.00    +0.108 C 
ATOM     19  C   UNL     1      -6.101   1.567  25.097  0.00  0.00    +0.253 C 
ENDROOT
BRANCH   9  13
ATOM     13  C   UNL     1      -2.334   0.961  25.254  0.00  0.00    +0.020 C 
BRANCH  13  15
ATOM     15  C   UNL     1      -2.251   0.932  23.736  0.00  0.00    +0.085 C 
BRANCH  15   7
ATOM      7  N   UNL     1      -0.853   1.012  23.312  0.00  0.00    -0.299 NA
ATOM      8  N   UNL     1       1.925   0.345  23.350  0.00  0.00    -0.327 N 
ATOM     17  C   UNL     1      -0.393  -0.287  22.805  0.00  0.00    +0.103 C 
ATOM     18  C   UNL     1      -0.001   1.442  24.428  0.00  0.00    +0.103 C 
ATOM     20  C   UNL     1       1.052  -0.203  22.307  0.00  0.00    +0.120 C 
ATOM     21  C   UNL     1       1.457   1.585  23.984  0.00  0.00    +0.120 C 
BRANCH   8  24
ATOM      1  F   UNL     1       7.374  -0.555  23.119  0.00  0.00    -0.205 F 
ATOM     24  C   UNL     1       3.304   0.118  23.291  0.00  0.00    +0.030 A 
ATOM     25  C   UNL     1       3.832  -1.089  23.752  0.00  0.00    +0.026 A 
ATOM     26  C   UNL     1       4.151   1.096  22.771  0.00  0.00    +0.026 A 
ATOM     27  C   UNL     1       5.206  -1.316  23.694  0.00  0.00    +0.040 A 
ATOM     28  C   UNL     1       5.526   0.869  22.713  0.00  0.00    +0.040 A 
ATOM     30  C   UNL     1       6.054  -0.337  23.174  0.00  0.00    +0.124 A 
ENDBRANCH   8  24
ENDBRANCH  15   7
ENDBRANCH  13  15
ENDBRANCH   9  13
BRANCH  10  16
ATOM     16  C   UNL     1      -1.832  -1.832  24.133  0.00  0.00    +0.124 C 
BRANCH  16  22
ATOM      4  O   UNL     1      -0.780  -3.615  25.421  0.00  0.00    -0.251 OA
ATOM     22  C   UNL     1      -0.904  -2.429  25.155  0.00  0.00    +0.305 C 
BRANCH  22   3
ATOM      3  O   UNL     1      -0.196  -1.441  25.762  0.00  0.00    -0.481 OA
ATOM     36  H   UNL     1      -0.766  -0.880  26.331  0.00  0.00    +0.295 HD
ENDBRANCH  22   3
ENDBRANCH  16  22
ENDBRANCH  10  16
BRANCH  19  23
ATOM     23  C   UNL     1      -5.873   2.627  26.144  0.00  0.00    +0.324 C 
BRANCH  23   5
ATOM      5  O   UNL     1      -5.484   3.792  25.459  0.00  0.00    -0.483 OA
BRANCH   5  29
ATOM     29  C   UNL     1      -4.134   4.038  25.344  0.00  0.00    +0.121 A 
ATOM     31  C   UNL     1      -3.571   4.265  24.088  0.00  0.00    +0.045 A 
ATOM     32  C   UNL     1      -3.330   4.060  26.483  0.00  0.00    +0.045 A 
ATOM     33  C   UNL     1      -2.203   4.515  23.972  0.00  0.00    +0.004 A 
ATOM     34  C   UNL     1      -1.962   4.310  26.367  0.00  0.00    +0.004 A 
ATOM     35  C   UNL     1      -1.400   4.537  25.111  0.00  0.00    +0.000 A 
ENDBRANCH   5  29
ENDBRANCH  23   5
ENDBRANCH  19  23
TORSDOF 10
ENDMDL
MODEL 4
REMARK VINA RESULT:       2.5      1.617      4.508
REMARK  Name = 28959913
REMARK  10 active torsions:
REMARK  status: ('A' for Active; 'I' for Inactive)
REMARK    1  A    between atoms: O_3  and  C_22
REMARK    2  A    between atoms: O_5  and  C_23
REMARK    3  A    between atoms: O_5  and  C_29
REMARK    4  A    between atoms: N_7  and  C_15
REMARK    5  A    between atoms: N_8  and  C_24
REMARK    6  A    between atoms: C_9  and  C_13
REMARK    7  A    between atoms: C_10  and  C_16
REMARK    8  A    between atoms: C_13  and  C_15
REMARK    9  A    between atoms: C_16  and  C_22
REMARK   10  A    between atoms: C_19  and  C_23
REMARK                            x       y       z     vdW  Elec       q    Type
REMARK                         _______ _______ _______ _____ _____    ______ ____
ROOT
ATOM      2  O   UNL     1      -5.983   4.400  25.109  0.00  0.00    -0.272 OA
ATOM      6  N   UNL     1      -5.257   2.294  25.772  0.00  0.00    -0.298 N 
ATOM      9  C   UNL     1      -3.752   0.331  25.542  0.00  0.00    +0.011 C 
ATOM     10  C   UNL     1      -4.916  -0.436  24.868  0.00  0.00    +0.006 C 
ATOM     11  C   UNL     1      -4.313   1.419  26.477  0.00  0.00    +0.111 C 
ATOM     12  C   UNL     1      -5.907   0.522  24.186  0.00  0.00    +0.023 C 
ATOM     14  C   UNL     1      -6.387   1.603  25.151  0.00  0.00    +0.108 C 
ATOM     19  C   UNL     1      -5.161   3.684  25.687  0.00  0.00    +0.253 C 
ENDROOT
BRANCH   9  13
ATOM     13  C   UNL     1      -2.753   0.945  24.552  0.00  0.00    +0.020 C 
BRANCH  13  15
ATOM     15  C   UNL     1      -2.643   0.095  23.295  0.00  0.00    +0.085 C 
BRANCH  15   7
ATOM      7  N   UNL     1      -1.265  -0.367  23.127  0.00  0.00    -0.299 NA
ATOM      8  N   UNL     1       1.580  -0.212  23.325  0.00  0.00    -0.327 N 
ATOM     17  C   UNL     1      -0.603  -0.498  24.430  0.00  0.00    +0.103 C 
ATOM     18  C   UNL     1      -0.512   0.560  22.273  0.00  0.00    +0.103 C 
ATOM     20  C   UNL     1       0.822  -1.035  24.272  0.00  0.00    +0.120 C 
ATOM     21  C   UNL     1       0.915   0.058  22.042  0.00  0.00    +0.120 C 
BRANCH   8  24
ATOM      1  F   UNL     1       7.107  -0.311  23.411  0.00  0.00    -0.205 F 
ATOM     24  C   UNL     1       2.979  -0.237  23.347  0.00  0.00    +0.030 A 
ATOM     25  C   UNL     1       3.703   0.877  22.921  0.00  0.00    +0.026 A 
ATOM     26  C   UNL     1       3.648  -1.375  23.796  0.00  0.00    +0.026 A 
ATOM     27  C   UNL     1       5.097   0.851  22.943  0.00  0.00    +0.040 A 
ATOM     28  C   UNL     1       5.043  -1.400  23.818  0.00  0.00    +0.040 A 
ATOM     30  C   UNL     1       5.767  -0.287  23.391  0.00  0.00    +0.124 A 
ENDBRANCH   8  24
ENDBRANCH  15   7
ENDBRANCH  13  15
ENDBRANCH   9  13
BRANCH  10  16
ATOM     16  C   UNL     1      -4.442  -1.508  23.887  0.00  0.00    +0.124 C 
BRANCH  16  22
ATOM      4  O   UNL     1      -3.582  -2.805  25.764  0.00  0.00    -0.251 OA
ATOM     22  C   UNL     1      -3.599  -2.551  24.569  0.00  0.00    +0.305 C 
BRANCH  22   3
ATOM      3  O   UNL     1      -2.837  -3.195  23.648  0.00  0.00    -0.481 OA
ATOM     36  H   UNL     1      -2.434  -4.012  24.015  0.00  0.00    +0.295 HD
ENDBRANCH  22   3
ENDBRANCH  16  22
ENDBRANCH  10  16
BRANCH  19  23
ATOM     23  C   UNL     1      -3.966   4.320  26.349  0.00  0.00    +0.324 C 
BRANCH  23   5
ATOM      5  O   UNL     1      -3.057   4.634  25.322  0.00  0.00    -0.483 OA
BRANCH   5  29
ATOM     29  C   UNL     1      -1.858   3.957  25.309  0.00  0.00    +0.121 A 
ATOM     31  C   UNL     1      -1.430   3.275  26.449  0.00  0.00    +0.045 A 
ATOM     32  C   UNL     1      -1.072   3.953  24.158  0.00  0.00    +0.045 A 
ATOM     33  C   UNL     1      -0.216   2.588  26.435  0.00  0.00    +0.004 A 
ATOM     34  C   UNL     1       0.143   3.266  24.144  0.00  0.00    +0.004 A 
ATOM     35  C   UNL     1       0.570   2.584  25.283  0.00  0.00    +0.000 A 
ENDBRANCH   5  29
ENDBRANCH  23   5
ENDBRANCH  19  23
TORSDOF 10
ENDMDL
MODEL 5
REMARK VINA RESULT:       3.2      3.121      5.993
REMARK  Name = 28959913
REMARK  10 active torsions:
REMARK  status: ('A' for Active; 'I' for Inactive)
REMARK    1  A    between atoms: O_3  and  C_22
REMARK    2  A    between atoms: O_5  and  C_23
REMARK    3  A    between atoms: O_5  and  C_29
REMARK    4  A    between atoms: N_7  and  C_15
REMARK    5  A    between atoms: N_8  and  C_24
REMARK    6  A    between atoms: C_9  and  C_13
REMARK    7  A    between atoms: C_10  and  C_16
REMARK    8  A    between atoms: C_13  and  C_15
REMARK    9  A    between atoms: C_16  and  C_22
REMARK   10  A    between atoms: C_19  and  C_23
REMARK                            x       y       z     vdW  Elec       q    Type
REMARK                         _______ _______ _______ _____ _____    ______ ____
ROOT
ATOM      2  O   UNL     1      -0.236  -1.193  25.844  0.00  0.00    -0.272 OA
ATOM      6  N   UNL     1      -2.239  -1.033  24.678  0.00  0.00    -0.298 N 
ATOM      9  C   UNL     1      -3.818   0.198  23.208  0.00  0.00    +0.011 C 
ATOM     10  C   UNL     1      -4.681   0.508  24.456  0.00  0.00    +0.006 C 
ATOM     11  C   UNL     1      -3.016  -1.096  23.434  0.00  0.00    +0.111 C 
ATOM     12  C   UNL     1      -3.837   0.514  25.741  0.00  0.00    +0.023 C 
ATOM     14  C   UNL     1      -3.030  -0.774  25.881  0.00  0.00    +0.108 C 
ATOM     19  C   UNL     1      -0.862  -1.226  24.781  0.00  0.00    +0.253 C 
ENDROOT
BRANCH   9  13
ATOM     13  C   UNL     1      -2.879   1.341  22.800  0.00  0.00    +0.020 C 
BRANCH  13  15
ATOM     15  C   UNL     1      -3.248   2.630  23.518  0.00  0.00    +0.085 C 
BRANCH  15   7
ATOM      7  N   UNL     1      -2.165   3.026  24.418  0.00  0.00    -0.299 NA
ATOM      8  N   UNL     1      -0.333   2.715  26.587  0.00  0.00    -0.327 N 
ATOM     17  C   UNL     1      -1.039   2.090  24.311  0.00  0.00    +0.103 C 
ATOM     18  C   UNL     1      -2.643   3.078  25.805  0.00  0.00    +0.103 C 
ATOM     20  C   UNL     1       0.124   2.525  25.207  0.00  0.00    +0.120 C 
ATOM     21  C   UNL     1      -1.534   3.547  26.750  0.00  0.00    +0.120 C 
BRANCH   8  24
ATOM      1  F   UNL     1       3.324   2.598  30.732  0.00  0.00    -0.205 F 
ATOM     24  C   UNL     1       0.593   2.686  27.636  0.00  0.00    +0.030 A 
ATOM     25  C   UNL     1       0.177   2.342  28.924  0.00  0.00    +0.026 A 
ATOM     26  C   UNL     1       1.930   2.998  27.395  0.00  0.00    +0.026 A 
ATOM     27  C   UNL     1       1.100   2.312  29.968  0.00  0.00    +0.040 A 
ATOM     28  C   UNL     1       2.853   2.969  28.440  0.00  0.00    +0.040 A 
ATOM     30  C   UNL     1       2.438   2.626  29.727  0.00  0.00    +0.124 A 
ENDBRANCH   8  24
ENDBRANCH  15   7
ENDBRANCH  13  15
ENDBRANCH   9  13
BRANCH  10  16
ATOM     16  C   UNL     1      -5.478   1.806  24.329  0.00  0.00    +0.124 C 
BRANCH  16  22
ATOM      4  O   UNL     1      -6.562   1.475  26.488  0.00  0.00    -0.251 OA
ATOM     22  C   UNL     1      -6.084   2.218  25.643  0.00  0.00    +0.305 C 
BRANCH  22   3
ATOM      3  O   UNL     1      -6.024   3.568  25.771  0.00  0.00    -0.481 OA
ATOM     36  H   UNL     1      -6.503   4.026  25.047  0.00  0.00    +0.295 HD
ENDBRANCH  22   3
ENDBRANCH  16  22
ENDBRANCH  10  16
BRANCH  19  23
ATOM     23  C   UNL     1      -0.118  -1.484  23.495  0.00  0.00    +0.324 C 
BRANCH  23   5
ATOM      5  O   UNL     1       0.476  -0.264  23.122  0.00  0.00    -0.483 OA
BRANCH   5  29
ATOM     29  C   UNL     1       1.851  -0.194  23.157  0.00  0.00    +0.121 A 
ATOM     31  C   UNL     1       2.499   0.980  22.771  0.00  0.00    +0.045 A 
ATOM     32  C   UNL     1       2.595  -1.295  23.578  0.00  0.00    +0.045 A 
ATOM     33  C   UNL     1       3.892   1.051  22.807  0.00  0.00    +0.004 A 
ATOM     34  C   UNL     1       3.988  -1.224  23.613  0.00  0.00    +0.004 A 
ATOM     35  C   UNL     1       4.636  -0.050  23.228  0.00  0.00    +0.000 A 
ENDBRANCH   5  29
ENDBRANCH  23   5
ENDBRANCH  19  23
TORSDOF 10
ENDMDL
