MODEL 1
REMARK VINA RESULT:      -1.1      0.000      0.000
REMARK  Name = 45783893
REMARK  9 active torsions:
REMARK  status: ('A' for Active; 'I' for Inactive)
REMARK    1  A    between atoms: N_2  and  C_13
REMARK    2  A    between atoms: C_8  and  C_12
REMARK    3  A    between atoms: C_9  and  C_13
REMARK    4  A    between atoms: C_11  and  C_16
REMARK    5  A    between atoms: C_12  and  C_17
REMARK    6  A    between atoms: C_12  and  C_18
REMARK    7  A    between atoms: C_15  and  C_21
REMARK    8  A    between atoms: C_16  and  C_24
REMARK    9  A    between atoms: C_26  and  C_27
REMARK                            x       y       z     vdW  Elec       q    Type
REMARK                         _______ _______ _______ _____ _____    ______ ____
ROOT
ATOM      8  C   UNL     1      -3.071   2.737  23.959  0.00  0.00    +0.000 C 
ATOM      9  C   UNL     1      -3.647   3.731  24.996  0.00  0.00    +0.029 C 
ATOM     10  C   UNL     1      -3.223   1.293  24.458  0.00  0.00    +0.012 C 
ATOM     11  C   UNL     1      -4.682   0.907  24.784  0.00  0.00    +0.024 C 
ATOM     14  C   UNL     1      -4.971   3.280  25.558  0.00  0.00    -0.023 C 
ATOM     15  C   UNL     1      -5.456   2.028  25.464  0.00  0.00    -0.073 C 
ATOM     21  C   UNL     1      -6.829   1.706  25.986  0.00  0.00    +0.039 C 
ENDROOT
BRANCH   8  12
ATOM     12  C   UNL     1      -3.727   2.921  22.584  0.00  0.00    -0.013 C 
ATOM     17  C   UNL     1      -2.812   2.391  21.484  0.00  0.00    +0.007 C 
ATOM     18  C   UNL     1      -4.063   4.389  22.346  0.00  0.00    +0.007 C 
ENDBRANCH   8  12
BRANCH   9  13
ATOM     13  C   UNL     1      -2.667   3.977  26.148  0.00  0.00    +0.092 C 
BRANCH  13   2
ATOM      2  N   UNL     1      -1.366   3.376  25.857  0.00  0.00    -0.299 NA
ATOM      3  N   UNL     1       0.546   1.912  24.321  0.00  0.00    -0.297 N 
ATOM      6  N   UNL     1       1.443  -0.145  23.674  0.00  0.00    -0.223 NA
ATOM      7  N   UNL     1       2.542   1.924  23.109  0.00  0.00    -0.223 NA
ATOM     19  C   UNL     1      -1.493   1.921  25.706  0.00  0.00    +0.103 C 
ATOM     20  C   UNL     1      -0.790   3.957  24.639  0.00  0.00    +0.103 C 
ATOM     22  C   UNL     1      -0.129   1.274  25.458  0.00  0.00    +0.123 C 
ATOM     23  C   UNL     1       0.598   3.377  24.356  0.00  0.00    +0.123 C 
ATOM     25  C   UNL     1       1.558   1.197  23.671  0.00  0.00    +0.218 A 
ATOM     28  C   UNL     1       2.435  -0.802  23.038  0.00  0.00    +0.116 A 
ATOM     29  C   UNL     1       3.500   1.203  22.490  0.00  0.00    +0.116 A 
ATOM     30  C   UNL     1       3.499  -0.175  22.422  0.00  0.00    +0.039 A 
ENDBRANCH  13   2
ENDBRANCH   9  13
BRANCH  11  16
ATOM     16  C   UNL     1      -4.675  -0.392  25.598  0.00  0.00    +0.105 C 
BRANCH  16  24
ATOM      1  O   UNL     1      -2.392  -1.253  25.638  0.00  0.00    -0.425 OA
ATOM      4  N   UNL     1      -3.736  -2.289  24.180  0.00  0.00    -0.112 NA
ATOM      5  N   UNL     1      -2.485  -2.871  24.097  0.00  0.00    -0.113 NA
ATOM     24  C   UNL     1      -3.635  -1.351  25.092  0.00  0.00    +0.218 A 
ATOM     26  C   UNL     1      -1.733  -2.235  24.965  0.00  0.00    +0.214 A 
ATOM     27  C   UNL     1      -0.317  -2.433  25.299  0.00  0.00    +0.111 C 
ENDBRANCH  16  24
ENDBRANCH  11  16
TORSDOF 5
ENDMDL
MODEL 2
REMARK VINA RESULT:      -0.6      1.192      1.776
REMARK  Name = 45783893
REMARK  9 active torsions:
REMARK  status: ('A' for Active; 'I' for Inactive)
REMARK    1  A    between atoms: N_2  and  C_13
REMARK    2  A    between atoms: C_8  and  C_12
REMARK    3  A    between atoms: C_9  and  C_13
REMARK    4  A    between atoms: C_11  and  C_16
REMARK    5  A    between atoms: C_12  and  C_17
REMARK    6  A    between atoms: C_12  and  C_18
REMARK    7  A    between atoms: C_15  and  C_21
REMARK    8  A    between atoms: C_16  and  C_24
REMARK    9  A    between atoms: C_26  and  C_27
REMARK                            x       y       z     vdW  Elec       q    Type
REMARK                         _______ _______ _______ _____ _____    ______ ____
ROOT
ATOM      8  C   UNL     1      -3.463   3.212  23.871  0.00  0.00    +0.000 C 
ATOM      9  C   UNL     1      -3.399   3.642  25.356  0.00  0.00    +0.029 C 
ATOM     10  C   UNL     1      -3.935   1.755  23.754  0.00  0.00    +0.012 C 
ATOM     11  C   UNL     1      -5.302   1.499  24.423  0.00  0.00    +0.024 C 
ATOM     14  C   UNL     1      -4.603   3.191  26.143  0.00  0.00    -0.023 C 
ATOM     15  C   UNL     1      -5.470   2.245  25.739  0.00  0.00    -0.073 C 
ATOM     21  C   UNL     1      -6.688   1.932  26.564  0.00  0.00    +0.039 C 
ENDROOT
BRANCH   8  12
ATOM     12  C   UNL     1      -4.359   4.152  23.054  0.00  0.00    -0.013 C 
ATOM     17  C   UNL     1      -4.223   3.855  21.565  0.00  0.00    +0.007 C 
ATOM     18  C   UNL     1      -4.012   5.608  23.349  0.00  0.00    +0.007 C 
ENDBRANCH   8  12
BRANCH   9  13
ATOM     13  C   UNL     1      -2.127   3.128  26.039  0.00  0.00    +0.092 C 
BRANCH  13   2
ATOM      2  N   UNL     1      -1.246   2.477  25.070  0.00  0.00    -0.299 NA
ATOM      3  N   UNL     1       1.202   1.364  24.107  0.00  0.00    -0.297 N 
ATOM      6  N   UNL     1       3.296   1.683  23.125  0.00  0.00    -0.223 NA
ATOM      7  N   UNL     1       2.382  -0.528  23.414  0.00  0.00    -0.223 NA
ATOM     19  C   UNL     1      -0.115   3.352  24.735  0.00  0.00    +0.103 C 
ATOM     20  C   UNL     1      -0.752   1.201  25.597  0.00  0.00    +0.103 C 
ATOM     22  C   UNL     1       0.784   2.706  23.679  0.00  0.00    +0.123 C 
ATOM     23  C   UNL     1       0.126   0.483  24.570  0.00  0.00    +0.123 C 
ATOM     25  C   UNL     1       2.347   0.814  23.521  0.00  0.00    +0.218 A 
ATOM     28  C   UNL     1       4.386   1.118  22.565  0.00  0.00    +0.116 A 
ATOM     29  C   UNL     1       3.500  -1.025  22.844  0.00  0.00    +0.116 A 
ATOM     30  C   UNL     1       4.545  -0.243  22.396  0.00  0.00    +0.039 A 
ENDBRANCH  13   2
ENDBRANCH   9  13
BRANCH  11  16
ATOM     16  C   UNL     1      -5.501  -0.015  24.567  0.00  0.00    +0.105 C 
BRANCH  16  24
ATOM      1  O   UNL     1      -3.614  -1.467  24.031  0.00  0.00    -0.425 OA
ATOM      4  N   UNL     1      -3.594  -0.675  26.123  0.00  0.00    -0.112 NA
ATOM      5  N   UNL     1      -2.480  -1.477  25.958  0.00  0.00    -0.113 NA
ATOM     24  C   UNL     1      -4.226  -0.699  24.973  0.00  0.00    +0.218 A 
ATOM     26  C   UNL     1      -2.533  -1.917  24.724  0.00  0.00    +0.214 A 
ATOM     27  C   UNL     1      -1.610  -2.806  24.007  0.00  0.00    +0.111 C 
ENDBRANCH  16  24
ENDBRANCH  11  16
TORSDOF 5
ENDMDL
MODEL 3
REMARK VINA RESULT:       0.1      2.181      4.375
REMARK  Name = 45783893
REMARK  9 active torsions:
REMARK  status: ('A' for Active; 'I' for Inactive)
REMARK    1  A    between atoms: N_2  and  C_13
REMARK    2  A    between atoms: C_8  and  C_12
REMARK    3  A    between atoms: C_9  and  C_13
REMARK    4  A    between atoms: C_11  and  C_16
REMARK    5  A    between atoms: C_12  and  C_17
REMARK    6  A    between atoms: C_12  and  C_18
REMARK    7  A    between atoms: C_15  and  C_21
REMARK    8  A    between atoms: C_16  and  C_24
REMARK    9  A    between atoms: C_26  and  C_27
REMARK                            x       y       z     vdW  Elec       q    Type
REMARK                         _______ _______ _______ _____ _____    ______ ____
ROOT
ATOM      8  C   UNL     1      -2.938  -0.295  25.175  0.00  0.00    +0.000 C 
ATOM      9  C   UNL     1      -3.492  -0.180  23.735  0.00  0.00    +0.029 C 
ATOM     10  C   UNL     1      -3.144   1.022  25.937  0.00  0.00    +0.012 C 
ATOM     11  C   UNL     1      -4.618   1.476  25.988  0.00  0.00    +0.024 C 
ATOM     14  C   UNL     1      -4.836   0.500  23.684  0.00  0.00    -0.023 C 
ATOM     15  C   UNL     1      -5.362   1.233  24.683  0.00  0.00    -0.073 C 
ATOM     21  C   UNL     1      -6.750   1.797  24.560  0.00  0.00    +0.039 C 
ENDROOT
BRANCH   8  12
ATOM     12  C   UNL     1      -3.572  -1.475  25.925  0.00  0.00    -0.013 C 
ATOM     17  C   UNL     1      -2.859  -1.704  27.253  0.00  0.00    +0.007 C 
ATOM     18  C   UNL     1      -3.534  -2.734  25.066  0.00  0.00    +0.007 C 
ENDBRANCH   8  12
BRANCH   9  13
ATOM     13  C   UNL     1      -2.518   0.559  22.812  0.00  0.00    +0.092 C 
BRANCH  13   2
ATOM      2  N   UNL     1      -1.164   0.537  23.365  0.00  0.00    -0.299 NA
ATOM      3  N   UNL     1       1.664   0.132  23.324  0.00  0.00    -0.297 N 
ATOM      6  N   UNL     1       3.480  -1.325  23.503  0.00  0.00    -0.223 NA
ATOM      7  N   UNL     1       3.801   1.063  23.448  0.00  0.00    -0.223 NA
ATOM     19  C   UNL     1      -0.610  -0.822  23.315  0.00  0.00    +0.103 C 
ATOM     20  C   UNL     1      -0.291   1.459  22.629  0.00  0.00    +0.103 C 
ATOM     22  C   UNL     1       0.785  -0.869  23.943  0.00  0.00    +0.123 C 
ATOM     23  C   UNL     1       1.114   1.488  23.234  0.00  0.00    +0.123 C 
ATOM     25  C   UNL     1       3.046  -0.052  23.430  0.00  0.00    +0.218 A 
ATOM     28  C   UNL     1       4.818  -1.465  23.604  0.00  0.00    +0.116 A 
ATOM     29  C   UNL     1       5.130   0.849  23.551  0.00  0.00    +0.116 A 
ATOM     30  C   UNL     1       5.701  -0.404  23.634  0.00  0.00    +0.039 A 
ENDBRANCH  13   2
ENDBRANCH   9  13
BRANCH  11  16
ATOM     16  C   UNL     1      -4.664   2.942  26.437  0.00  0.00    +0.105 C 
BRANCH  16  24
ATOM      1  O   UNL     1      -2.472   3.890  25.932  0.00  0.00    -0.425 OA
ATOM      4  N   UNL     1      -4.088   4.512  24.515  0.00  0.00    -0.112 NA
ATOM      5  N   UNL     1      -2.911   5.118  24.115  0.00  0.00    -0.113 NA
ATOM     24  C   UNL     1      -3.784   3.805  25.578  0.00  0.00    +0.218 A 
ATOM     26  C   UNL     1      -1.996   4.727  24.971  0.00  0.00    +0.214 A 
ATOM     27  C   UNL     1      -0.568   5.061  25.031  0.00  0.00    +0.111 C 
ENDBRANCH  16  24
ENDBRANCH  11  16
TORSDOF 5
ENDMDL
MODEL 4
REMARK VINA RESULT:       0.7      1.657      4.235
REMARK  Name = 45783893
REMARK  9 active torsions:
REMARK  status: ('A' for Active; 'I' for Inactive)
REMARK    1  A    between atoms: N_2  and  C_13
REMARK    2  A    between atoms: C_8  and  C_12
REMARK    3  A    between atoms: C_9  and  C_13
REMARK    4  A    between atoms: C_11  and  C_16
REMARK    5  A    between atoms: C_12  and  C_17
REMARK    6  A    between atoms: C_12  and  C_18
REMARK    7  A    between atoms: C_15  and  C_21
REMARK    8  A    between atoms: C_16  and  C_24
REMARK    9  A    between atoms: C_26  and  C_27
REMARK                            x       y       z     vdW  Elec       q    Type
REMARK                         _______ _______ _______ _____ _____    ______ ____
ROOT
ATOM      8  C   UNL     1      -4.684   1.373  25.389  0.00  0.00    +0.000 C 
ATOM      9  C   UNL     1      -3.936   0.328  24.527  0.00  0.00    +0.029 C 
ATOM     10  C   UNL     1      -3.842   2.648  25.539  0.00  0.00    +0.012 C 
ATOM     11  C   UNL     1      -3.448   3.283  24.189  0.00  0.00    +0.024 C 
ATOM     14  C   UNL     1      -3.295   0.937  23.306  0.00  0.00    -0.023 C 
ATOM     15  C   UNL     1      -3.079   2.253  23.131  0.00  0.00    -0.073 C 
ATOM     21  C   UNL     1      -2.509   2.762  21.836  0.00  0.00    +0.039 C 
ENDROOT
BRANCH   8  12
ATOM     12  C   UNL     1      -6.069   1.688  24.809  0.00  0.00    -0.013 C 
ATOM     17  C   UNL     1      -6.954   2.337  25.868  0.00  0.00    +0.007 C 
ATOM     18  C   UNL     1      -6.720   0.421  24.265  0.00  0.00    +0.007 C 
ENDBRANCH   8  12
BRANCH   9  13
ATOM     13  C   UNL     1      -2.871  -0.416  25.338  0.00  0.00    +0.092 C 
BRANCH  13   2
ATOM      2  N   UNL     1      -1.652  -0.597  24.550  0.00  0.00    -0.299 NA
ATOM      3  N   UNL     1       1.120  -0.300  23.928  0.00  0.00    -0.297 N 
ATOM      6  N   UNL     1       2.838   0.983  23.003  0.00  0.00    -0.223 NA
ATOM      7  N   UNL     1       3.209  -1.307  23.656  0.00  0.00    -0.223 NA
ATOM     19  C   UNL     1      -1.126   0.702  24.111  0.00  0.00    +0.103 C 
ATOM     20  C   UNL     1      -0.635  -1.312  25.329  0.00  0.00    +0.103 C 
ATOM     22  C   UNL     1       0.118   0.523  23.238  0.00  0.00    +0.123 C 
ATOM     23  C   UNL     1       0.625  -1.558  24.496  0.00  0.00    +0.123 C 
ATOM     25  C   UNL     1       2.451  -0.204  23.509  0.00  0.00    +0.218 A 
ATOM     28  C   UNL     1       4.127   1.041  22.610  0.00  0.00    +0.116 A 
ATOM     29  C   UNL     1       4.487  -1.179  23.242  0.00  0.00    +0.116 A 
ATOM     30  C   UNL     1       5.007  -0.019  22.706  0.00  0.00    +0.039 A 
ENDBRANCH  13   2
ENDBRANCH   9  13
BRANCH  11  16
ATOM     16  C   UNL     1      -2.334   4.308  24.437  0.00  0.00    +0.105 C 
BRANCH  16  24
ATOM      1  O   UNL     1      -1.244   3.234  26.338  0.00  0.00    -0.425 OA
ATOM      4  N   UNL     1       0.062   3.449  24.535  0.00  0.00    -0.112 NA
ATOM      5  N   UNL     1       0.801   2.832  25.527  0.00  0.00    -0.113 NA
ATOM     24  C   UNL     1      -1.124   3.664  25.052  0.00  0.00    +0.218 A 
ATOM     26  C   UNL     1      -0.001   2.727  26.561  0.00  0.00    +0.214 A 
ATOM     27  C   UNL     1       0.253   2.155  27.889  0.00  0.00    +0.111 C 
ENDBRANCH  16  24
ENDBRANCH  11  16
TORSDOF 5
ENDMDL
MODEL 5
REMARK VINA RESULT:       2.3      2.183      4.104
REMARK  Name = 45783893
REMARK  9 active torsions:
REMARK  status: ('A' for Active; 'I' for Inactive)
REMARK    1  A    between atoms: N_2  and  C_13
REMARK    2  A    between atoms: C_8  and  C_12
REMARK    3  A    between atoms: C_9  and  C_13
REMARK    4  A    between atoms: C_11  and  C_16
REMARK    5  A    between atoms: C_12  and  C_17
REMARK    6  A    between atoms: C_12  and  C_18
REMARK    7  A    between atoms: C_15  and  C_21
REMARK    8  A    between atoms: C_16  and  C_24
REMARK    9  A    between atoms: C_26  and  C_27
REMARK                            x       y       z     vdW  Elec       q    Type
REMARK                         _______ _______ _______ _____ _____    ______ ____
ROOT
ATOM      8  C   UNL     1      -2.783   0.172  24.500  0.00  0.00    +0.000 C 
ATOM      9  C   UNL     1      -3.241   0.890  23.209  0.00  0.00    +0.029 C 
ATOM     10  C   UNL     1      -2.258   1.189  25.524  0.00  0.00    +0.012 C 
ATOM     11  C   UNL     1      -3.285   2.283  25.881  0.00  0.00    +0.024 C 
ATOM     14  C   UNL     1      -4.043   2.134  23.491  0.00  0.00    -0.023 C 
ATOM     15  C   UNL     1      -4.086   2.764  24.680  0.00  0.00    -0.073 C 
ATOM     21  C   UNL     1      -4.989   3.950  24.877  0.00  0.00    +0.039 C 
ENDROOT
BRANCH   8  12
ATOM     12  C   UNL     1      -3.910  -0.682  25.094  0.00  0.00    -0.013 C 
ATOM     17  C   UNL     1      -3.410  -1.450  26.313  0.00  0.00    +0.007 C 
ATOM     18  C   UNL     1      -4.466  -1.638  24.044  0.00  0.00    +0.007 C 
ENDBRANCH   8  12
BRANCH   9  13
ATOM     13  C   UNL     1      -2.052   1.250  22.310  0.00  0.00    +0.092 C 
BRANCH  13   2
ATOM      2  N   UNL     1      -0.788   1.000  23.001  0.00  0.00    -0.299 NA
ATOM      3  N   UNL     1       1.971   0.289  23.215  0.00  0.00    -0.297 N 
ATOM      6  N   UNL     1       3.604  -1.373  23.374  0.00  0.00    -0.223 NA
ATOM      7  N   UNL     1       4.154   0.948  23.714  0.00  0.00    -0.223 NA
ATOM     19  C   UNL     1      -0.364  -0.393  22.809  0.00  0.00    +0.103 C 
ATOM     20  C   UNL     1       0.254   1.911  22.514  0.00  0.00    +0.103 C 
ATOM     22  C   UNL     1       0.930  -0.683  23.574  0.00  0.00    +0.123 C 
ATOM     23  C   UNL     1       1.569   1.698  23.269  0.00  0.00    +0.123 C 
ATOM     25  C   UNL     1       3.305  -0.062  23.445  0.00  0.00    +0.218 A 
ATOM     28  C   UNL     1       4.899  -1.675  23.601  0.00  0.00    +0.116 A 
ATOM     29  C   UNL     1       5.433   0.575  23.931  0.00  0.00    +0.116 A 
ATOM     30  C   UNL     1       5.867  -0.734  23.888  0.00  0.00    +0.039 A 
ENDBRANCH  13   2
ENDBRANCH   9  13
BRANCH  11  16
ATOM     16  C   UNL     1      -2.556   3.422  26.606  0.00  0.00    +0.105 C 
BRANCH  16  24
ATOM      1  O   UNL     1      -0.665   2.858  28.042  0.00  0.00    -0.425 OA
ATOM      4  N   UNL     1      -0.142   3.058  25.877  0.00  0.00    -0.112 NA
ATOM      5  N   UNL     1       1.012   2.742  26.568  0.00  0.00    -0.113 NA
ATOM     24  C   UNL     1      -1.095   3.115  26.777  0.00  0.00    +0.218 A 
ATOM     26  C   UNL     1       0.659   2.635  27.828  0.00  0.00    +0.214 A 
ATOM     27  C   UNL     1       1.477   2.316  29.005  0.00  0.00    +0.111 C 
ENDBRANCH  16  24
ENDBRANCH  11  16
TORSDOF 5
ENDMDL
