MODEL 1
REMARK VINA RESULT:       0.7      0.000      0.000
REMARK  Name = 45783576
REMARK  8 active torsions:
REMARK  status: ('A' for Active; 'I' for Inactive)
REMARK    1  A    between atoms: O_1  and  C_12
REMARK    2  A    between atoms: O_1  and  C_24
REMARK    3  A    between atoms: O_3  and  C_30
REMARK    4  A    between atoms: O_3  and  C_32
REMARK    5  A    between atoms: N_4  and  C_13
REMARK    6  A    between atoms: C_8  and  C_19
REMARK    7  A    between atoms: C_13  and  C_20
REMARK    8  A    between atoms: C_21  and  C_25
REMARK                            x       y       z     vdW  Elec       q    Type
REMARK                         _______ _______ _______ _____ _____    ______ ____
ROOT
ATOM      2  O   UNL     1      -2.343   2.902  25.583  0.00  0.00    -0.336 OA
ATOM      5  N   UNL     1      -2.352   1.850  23.605  0.00  0.00    -0.190 NA
ATOM      6  N   UNL     1      -1.027   2.477  25.361  0.00  0.00    -0.056 NA
ATOM     19  C   UNL     1      -3.057   2.492  24.502  0.00  0.00    +0.245 A 
ATOM     21  C   UNL     1      -1.113   1.867  24.175  0.00  0.00    +0.204 A 
ENDROOT
BRANCH  21  25
ATOM      7  N   UNL     1       2.397   1.274  23.100  0.00  0.00    -0.221 NA
ATOM     24  C   UNL     1       2.216   0.168  22.344  0.00  0.00    +0.215 A 
ATOM     25  C   UNL     1       0.018   1.263  23.534  0.00  0.00    +0.041 A 
ATOM     28  C   UNL     1       0.987  -0.439  22.139  0.00  0.00    +0.068 A 
ATOM     29  C   UNL     1      -0.127   0.125  22.749  0.00  0.00    +0.018 A 
ATOM     31  C   UNL     1       1.290   1.795  23.677  0.00  0.00    +0.126 A 
BRANCH  24   1
ATOM      1  O   UNL     1       3.329  -0.369  21.753  0.00  0.00    -0.473 OA
BRANCH   1  12
ATOM     12  C   UNL     1       4.516  -0.405  22.539  0.00  0.00    +0.175 C 
ATOM     14  C   UNL     1       4.371  -1.457  23.637  0.00  0.00    +0.044 C 
ATOM     15  C   UNL     1       4.787   0.983  23.121  0.00  0.00    +0.044 C 
ATOM     16  C   UNL     1       5.580  -1.466  24.568  0.00  0.00    +0.004 C 
ATOM     17  C   UNL     1       5.995   0.974  24.052  0.00  0.00    +0.004 C 
ATOM     18  C   UNL     1       5.852  -0.079  25.148  0.00  0.00    +0.000 C 
ENDBRANCH   1  12
ENDBRANCH  24   1
ENDBRANCH  21  25
BRANCH  19   8
ATOM      4  N   UNL     1      -5.289   2.090  25.526  0.00  0.00    -0.287 NA
ATOM      8  C   UNL     1      -4.533   2.834  24.499  0.00  0.00    +0.146 C 
ATOM      9  C   UNL     1      -4.799   4.318  24.816  0.00  0.00    +0.030 C 
ATOM     10  C   UNL     1      -5.762   4.307  25.994  0.00  0.00    +0.017 C 
ATOM     11  C   UNL     1      -6.416   2.942  25.907  0.00  0.00    +0.085 C 
BRANCH   4  13
ATOM     13  C   UNL     1      -5.725   0.774  25.077  0.00  0.00    +0.120 C 
BRANCH  13  20
ATOM     20  C   UNL     1      -4.579  -0.200  25.001  0.00  0.00    -0.033 A 
ATOM     22  C   UNL     1      -4.416  -0.999  23.868  0.00  0.00    +0.008 A 
ATOM     23  C   UNL     1      -3.679  -0.303  26.062  0.00  0.00    +0.008 A 
ATOM     26  C   UNL     1      -3.354  -1.901  23.799  0.00  0.00    +0.046 A 
ATOM     27  C   UNL     1      -2.618  -1.204  25.991  0.00  0.00    +0.046 A 
ATOM     30  C   UNL     1      -2.456  -2.003  24.860  0.00  0.00    +0.120 A 
BRANCH  30   3
ATOM      3  O   UNL     1      -1.418  -2.883  24.791  0.00  0.00    -0.495 OA
ATOM     32  C   UNL     1      -0.146  -2.423  25.246  0.00  0.00    +0.277 C 
ENDBRANCH  30   3
ENDBRANCH  13  20
ENDBRANCH   4  13
ENDBRANCH  19   8
TORSDOF 7
ENDMDL
