MODEL 1
REMARK VINA RESULT:      10.8      0.000      0.000
REMARK  Name = 56774574
REMARK  13 active torsions:
REMARK  status: ('A' for Active; 'I' for Inactive)
REMARK    1  A    between atoms: O_2  and  C_9
REMARK    2  A    between atoms: O_4  and  C_35
REMARK    3  A    between atoms: O_4  and  C_37
REMARK    4  A    between atoms: N_6  and  C_11
REMARK    5  A    between atoms: N_7  and  C_25
REMARK    6  A    between atoms: C_8  and  C_9
REMARK    7  A    between atoms: C_9  and  C_13
REMARK    8  A    between atoms: C_11  and  C_15
REMARK    9  A    between atoms: C_16  and  C_19
REMARK   10  A    between atoms: C_16  and  C_22
REMARK   11  A    between atoms: C_16  and  C_23
REMARK   12  A    between atoms: C_16  and  C_24
REMARK   13  A    between atoms: C_30  and  C_36
REMARK                            x       y       z     vdW  Elec       q    Type
REMARK                         _______ _______ _______ _____ _____    ______ ____
ROOT
ATOM     13  C   UNL     1      -1.465   1.923  23.737  0.00  0.00    -0.017 A 
ATOM     17  C   UNL     1      -0.982   0.728  23.202  0.00  0.00    +0.008 A 
ATOM     18  C   UNL     1      -0.575   2.870  24.242  0.00  0.00    +0.008 A 
ATOM     20  C   UNL     1       0.390   0.481  23.173  0.00  0.00    +0.023 A 
ATOM     21  C   UNL     1       0.797   2.623  24.213  0.00  0.00    +0.023 A 
ATOM     25  C   UNL     1       1.280   1.428  23.678  0.00  0.00    +0.034 A 
ENDROOT
BRANCH  25   7
ATOM      5  O   UNL     1       2.792  -1.012  22.813  0.00  0.00    -0.270 OA
ATOM      7  N   UNL     1       2.652   1.182  23.648  0.00  0.00    -0.282 N 
ATOM     36  C   UNL     1       3.312   0.017  23.232  0.00  0.00    +0.248 C 
ATOM     39  H   UNL     1       3.218   1.979  23.929  0.00  0.00    +0.155 HD
BRANCH  36  30
ATOM     19  C   UNL     1       7.581   0.168  23.402  0.00  0.00    -0.042 A 
ATOM     28  C   UNL     1       6.949  -0.758  22.572  0.00  0.00    +0.005 A 
ATOM     29  C   UNL     1       6.822   1.044  24.177  0.00  0.00    +0.005 A 
ATOM     30  C   UNL     1       4.796   0.069  23.291  0.00  0.00    +0.037 A 
ATOM     33  C   UNL     1       5.557  -0.807  22.516  0.00  0.00    +0.013 A 
ATOM     34  C   UNL     1       5.429   0.996  24.120  0.00  0.00    +0.013 A 
BRANCH  19  16
ATOM     16  C   UNL     1       9.072   0.219  23.461  0.00  0.00    -0.013 C 
ATOM     22  C   UNL     1       9.601   1.646  23.119  0.00  0.00    +0.015 C 
ATOM     23  C   UNL     1       9.700  -0.137  24.849  0.00  0.00    +0.015 C 
ATOM     24  C   UNL     1       9.713  -0.777  22.446  0.00  0.00    +0.015 C 
ENDBRANCH  19  16
ENDBRANCH  36  30
ENDBRANCH  25   7
BRANCH  13   9
ATOM      9  C   UNL     1      -2.949   2.189  23.768  0.00  0.00    +0.167 C 
BRANCH   9   8
ATOM      1  O   UNL     1      -4.305   4.117  25.515  0.00  0.00    -0.369 OA
ATOM      3  O   UNL     1      -7.175   2.061  24.756  0.00  0.00    -0.273 OA
ATOM      6  N   UNL     1      -4.947   1.437  25.002  0.00  0.00    -0.287 N 
ATOM      8  C   UNL     1      -3.554   1.879  25.140  0.00  0.00    +0.135 C 
ATOM     10  C   UNL     1      -3.481   3.093  26.059  0.00  0.00    +0.185 C 
ATOM     12  C   UNL     1      -6.008   2.340  25.035  0.00  0.00    +0.242 C 
ATOM     14  C   UNL     1      -5.663   3.738  25.536  0.00  0.00    +0.255 C 
BRANCH   6  11
ATOM     11  C   UNL     1      -5.179   0.043  24.645  0.00  0.00    +0.143 C 
BRANCH  11  15
ATOM     15  C   UNL     1      -3.949  -0.797  24.837  0.00  0.00    -0.030 A 
ATOM     26  C   UNL     1      -3.105  -0.563  25.923  0.00  0.00    +0.009 A 
ATOM     27  C   UNL     1      -3.651  -1.813  23.929  0.00  0.00    +0.009 A 
ATOM     31  C   UNL     1      -1.964  -1.344  26.101  0.00  0.00    +0.046 A 
ATOM     32  C   UNL     1      -2.508  -2.594  24.106  0.00  0.00    +0.046 A 
ATOM     35  C   UNL     1      -1.665  -2.359  25.192  0.00  0.00    +0.120 A 
BRANCH  35   4
ATOM      4  O   UNL     1      -0.551  -3.121  25.365  0.00  0.00    -0.495 OA
ATOM     37  C   UNL     1       0.702  -2.440  25.404  0.00  0.00    +0.277 C 
ENDBRANCH  35   4
ENDBRANCH  11  15
ENDBRANCH   6  11
ENDBRANCH   9   8
BRANCH   9   2
ATOM      2  O   UNL     1      -3.595   1.396  22.778  0.00  0.00    -0.385 OA
ATOM     38  H   UNL     1      -4.557   1.506  22.857  0.00  0.00    +0.210 HD
ENDBRANCH   9   2
ENDBRANCH  13   9
TORSDOF 9
ENDMDL
