MODEL 1
REMARK VINA RESULT:      -5.3      0.000      0.000
REMARK  Name = 40777613
REMARK  8 active torsions:
REMARK  status: ('A' for Active; 'I' for Inactive)
REMARK    1  A    between atoms: S_1  and  N_4
REMARK    2  A    between atoms: S_1  and  C_18
REMARK    3  A    between atoms: N_4  and  C_9
REMARK    4  A    between atoms: N_5  and  C_16
REMARK    5  A    between atoms: C_7  and  C_10
REMARK    6  A    between atoms: C_13  and  C_15
REMARK    7  A    between atoms: C_14  and  C_17
REMARK    8  A    between atoms: C_16  and  C_19
REMARK                            x       y       z     vdW  Elec       q    Type
REMARK                         _______ _______ _______ _____ _____    ______ ____
ROOT
ATOM      7  C   UNL     1      -1.987   0.490  25.392  0.00  0.00    +0.047 C 
ATOM      8  C   UNL     1      -3.229   0.848  24.549  0.00  0.00    +0.037 C 
ATOM      9  C   UNL     1      -4.320  -0.144  24.963  0.00  0.00    +0.100 C 
ATOM     11  C   UNL     1      -2.271  -0.928  25.799  0.00  0.00    -0.021 C 
ATOM     12  C   UNL     1      -3.544  -1.265  25.569  0.00  0.00    -0.010 C 
ENDROOT
BRANCH   7  10
ATOM      5  N   UNL     1       1.052   0.446  23.349  0.00  0.00    -0.264 N 
ATOM      6  N   UNL     1       1.275   1.626  23.952  0.00  0.00    -0.176 NA
ATOM     10  C   UNL     1      -0.684   0.684  24.652  0.00  0.00    +0.003 A 
ATOM     13  C   UNL     1      -0.108  -0.159  23.734  0.00  0.00    +0.041 A 
ATOM     14  C   UNL     1       0.211   1.767  24.746  0.00  0.00    +0.064 A 
ATOM     15  C   UNL     1      -0.546  -1.461  23.197  0.00  0.00    +0.065 C 
ATOM     17  C   UNL     1       0.089   2.968  25.591  0.00  0.00    +0.068 C 
BRANCH   5  16
ATOM     16  C   UNL     1       2.016  -0.051  22.394  0.00  0.00    +0.178 C 
BRANCH  16  19
ATOM     19  C   UNL     1       3.404  -0.198  22.967  0.00  0.00    -0.026 A 
ATOM     22  C   UNL     1       3.785  -1.394  23.573  0.00  0.00    +0.005 A 
ATOM     23  C   UNL     1       4.305   0.864  22.890  0.00  0.00    +0.005 A 
ATOM     26  C   UNL     1       5.068  -1.530  24.104  0.00  0.00    +0.000 A 
ATOM     27  C   UNL     1       5.589   0.729  23.420  0.00  0.00    +0.000 A 
ATOM     29  C   UNL     1       5.970  -0.468  24.026  0.00  0.00    +0.000 A 
ENDBRANCH  16  19
ENDBRANCH   5  16
ENDBRANCH   7  10
BRANCH   9   4
ATOM      4  N   UNL     1      -5.200   0.447  25.993  0.00  0.00    -0.183 NA
ATOM     30  H   UNL     1      -5.096   0.109  26.958  0.00  0.00    +0.149 HD
BRANCH   4   1
ATOM      1  S   UNL     1      -6.023   1.900  25.677  0.00  0.00    +0.059 S 
ATOM      2  O   UNL     1      -6.721   2.329  26.874  0.00  0.00    -0.153 OA
ATOM      3  O   UNL     1      -6.740   1.771  24.422  0.00  0.00    -0.153 OA
BRANCH   1  18
ATOM     18  C   UNL     1      -4.686   3.021  25.395  0.00  0.00    +0.105 A 
ATOM     20  C   UNL     1      -4.369   3.416  24.095  0.00  0.00    +0.028 A 
ATOM     21  C   UNL     1      -3.944   3.508  26.472  0.00  0.00    +0.028 A 
ATOM     24  C   UNL     1      -3.311   4.296  23.871  0.00  0.00    +0.002 A 
ATOM     25  C   UNL     1      -2.887   4.389  26.248  0.00  0.00    +0.002 A 
ATOM     28  C   UNL     1      -2.570   4.783  24.948  0.00  0.00    +0.000 A 
ENDBRANCH   1  18
ENDBRANCH   4   1
ENDBRANCH   9   4
TORSDOF 6
ENDMDL
MODEL 2
REMARK VINA RESULT:      -4.0      0.722      1.887
REMARK  Name = 40777613
REMARK  8 active torsions:
REMARK  status: ('A' for Active; 'I' for Inactive)
REMARK    1  A    between atoms: S_1  and  N_4
REMARK    2  A    between atoms: S_1  and  C_18
REMARK    3  A    between atoms: N_4  and  C_9
REMARK    4  A    between atoms: N_5  and  C_16
REMARK    5  A    between atoms: C_7  and  C_10
REMARK    6  A    between atoms: C_13  and  C_15
REMARK    7  A    between atoms: C_14  and  C_17
REMARK    8  A    between atoms: C_16  and  C_19
REMARK                            x       y       z     vdW  Elec       q    Type
REMARK                         _______ _______ _______ _____ _____    ______ ____
ROOT
ATOM      7  C   UNL     1      -2.007   0.134  25.238  0.00  0.00    +0.047 C 
ATOM      8  C   UNL     1      -3.313   0.466  24.486  0.00  0.00    +0.037 C 
ATOM      9  C   UNL     1      -4.445  -0.144  25.318  0.00  0.00    +0.100 C 
ATOM     11  C   UNL     1      -2.415  -1.030  26.095  0.00  0.00    -0.021 C 
ATOM     12  C   UNL     1      -3.744  -1.173  26.140  0.00  0.00    -0.010 C 
ENDROOT
BRANCH   7  10
ATOM      5  N   UNL     1       0.945   0.036  23.072  0.00  0.00    -0.264 N 
ATOM      6  N   UNL     1       0.615  -1.261  22.959  0.00  0.00    -0.176 NA
ATOM     10  C   UNL     1      -0.840  -0.140  24.318  0.00  0.00    +0.003 A 
ATOM     13  C   UNL     1       0.105   0.751  23.875  0.00  0.00    +0.041 A 
ATOM     14  C   UNL     1      -0.477  -1.363  23.723  0.00  0.00    +0.064 A 
ATOM     15  C   UNL     1       0.285   2.193  24.136  0.00  0.00    +0.065 C 
ATOM     17  C   UNL     1      -1.149  -2.667  23.856  0.00  0.00    +0.068 C 
BRANCH   5  16
ATOM     16  C   UNL     1       2.105   0.533  22.367  0.00  0.00    +0.178 C 
BRANCH  16  19
ATOM     19  C   UNL     1       3.411   0.097  22.985  0.00  0.00    -0.026 A 
ATOM     22  C   UNL     1       4.473   0.996  23.077  0.00  0.00    +0.005 A 
ATOM     23  C   UNL     1       3.555  -1.205  23.464  0.00  0.00    +0.005 A 
ATOM     26  C   UNL     1       5.681   0.594  23.647  0.00  0.00    +0.000 A 
ATOM     27  C   UNL     1       4.763  -1.608  24.035  0.00  0.00    +0.000 A 
ATOM     29  C   UNL     1       5.825  -0.709  24.126  0.00  0.00    +0.000 A 
ENDBRANCH  16  19
ENDBRANCH   5  16
ENDBRANCH   7  10
BRANCH   9   4
ATOM      4  N   UNL     1      -5.037   0.870  26.216  0.00  0.00    -0.183 NA
ATOM     30  H   UNL     1      -4.837   0.791  27.221  0.00  0.00    +0.149 HD
BRANCH   4   1
ATOM      1  S   UNL     1      -5.649   2.322  25.575  0.00  0.00    +0.059 S 
ATOM      2  O   UNL     1      -6.464   2.984  26.575  0.00  0.00    -0.153 OA
ATOM      3  O   UNL     1      -6.184   2.062  24.252  0.00  0.00    -0.153 OA
BRANCH   1  18
ATOM     18  C   UNL     1      -4.174   3.272  25.358  0.00  0.00    +0.105 A 
ATOM     20  C   UNL     1      -3.880   3.827  24.113  0.00  0.00    +0.028 A 
ATOM     21  C   UNL     1      -3.303   3.462  26.430  0.00  0.00    +0.028 A 
ATOM     24  C   UNL     1      -2.714   4.573  23.939  0.00  0.00    +0.002 A 
ATOM     25  C   UNL     1      -2.138   4.209  26.257  0.00  0.00    +0.002 A 
ATOM     28  C   UNL     1      -1.843   4.764  25.012  0.00  0.00    +0.000 A 
ENDBRANCH   1  18
ENDBRANCH   4   1
ENDBRANCH   9   4
TORSDOF 6
ENDMDL
MODEL 3
REMARK VINA RESULT:      -2.5      1.052      2.990
REMARK  Name = 40777613
REMARK  8 active torsions:
REMARK  status: ('A' for Active; 'I' for Inactive)
REMARK    1  A    between atoms: S_1  and  N_4
REMARK    2  A    between atoms: S_1  and  C_18
REMARK    3  A    between atoms: N_4  and  C_9
REMARK    4  A    between atoms: N_5  and  C_16
REMARK    5  A    between atoms: C_7  and  C_10
REMARK    6  A    between atoms: C_13  and  C_15
REMARK    7  A    between atoms: C_14  and  C_17
REMARK    8  A    between atoms: C_16  and  C_19
REMARK                            x       y       z     vdW  Elec       q    Type
REMARK                         _______ _______ _______ _____ _____    ______ ____
ROOT
ATOM      7  C   UNL     1      -2.053   1.510  24.463  0.00  0.00    +0.047 C 
ATOM      8  C   UNL     1      -2.134   2.599  25.553  0.00  0.00    +0.037 C 
ATOM      9  C   UNL     1      -3.475   3.309  25.340  0.00  0.00    +0.100 C 
ATOM     11  C   UNL     1      -3.036   2.002  23.440  0.00  0.00    -0.021 C 
ATOM     12  C   UNL     1      -3.812   2.978  23.925  0.00  0.00    -0.010 C 
ENDROOT
BRANCH   7  10
ATOM      5  N   UNL     1       1.161   0.439  23.072  0.00  0.00    -0.264 N 
ATOM      6  N   UNL     1       1.520   1.699  23.367  0.00  0.00    -0.176 NA
ATOM     10  C   UNL     1      -0.654   1.291  23.938  0.00  0.00    +0.003 A 
ATOM     13  C   UNL     1      -0.132   0.144  23.394  0.00  0.00    +0.041 A 
ATOM     14  C   UNL     1       0.408   2.216  23.896  0.00  0.00    +0.064 A 
ATOM     15  C   UNL     1      -0.732  -1.183  23.156  0.00  0.00    +0.065 C 
ATOM     17  C   UNL     1       0.405   3.616  24.354  0.00  0.00    +0.068 C 
BRANCH   5  16
ATOM     16  C   UNL     1       2.129  -0.448  22.468  0.00  0.00    +0.178 C 
BRANCH  16  19
ATOM     19  C   UNL     1       3.509  -0.322  23.066  0.00  0.00    -0.026 A 
ATOM     22  C   UNL     1       4.215   0.875  22.942  0.00  0.00    +0.005 A 
ATOM     23  C   UNL     1       4.077  -1.401  23.741  0.00  0.00    +0.005 A 
ATOM     26  C   UNL     1       5.491   0.991  23.495  0.00  0.00    +0.000 A 
ATOM     27  C   UNL     1       5.353  -1.285  24.294  0.00  0.00    +0.000 A 
ATOM     29  C   UNL     1       6.059  -0.089  24.171  0.00  0.00    +0.000 A 
ENDBRANCH  16  19
ENDBRANCH   5  16
ENDBRANCH   7  10
BRANCH   9   4
ATOM      4  N   UNL     1      -4.512   2.743  26.229  0.00  0.00    -0.183 NA
ATOM     30  H   UNL     1      -4.629   3.171  27.156  0.00  0.00    +0.149 HD
BRANCH   4   1
ATOM      1  S   UNL     1      -5.723   1.734  25.590  0.00  0.00    +0.059 S 
ATOM      2  O   UNL     1      -6.136   2.238  24.295  0.00  0.00    -0.153 OA
ATOM      3  O   UNL     1      -6.710   1.475  26.621  0.00  0.00    -0.153 OA
BRANCH   1  18
ATOM     18  C   UNL     1      -4.838   0.226  25.332  0.00  0.00    +0.105 A 
ATOM     20  C   UNL     1      -4.977  -0.467  24.129  0.00  0.00    +0.028 A 
ATOM     21  C   UNL     1      -4.005  -0.274  26.332  0.00  0.00    +0.028 A 
ATOM     24  C   UNL     1      -4.284  -1.660  23.926  0.00  0.00    +0.002 A 
ATOM     25  C   UNL     1      -3.310  -1.467  26.129  0.00  0.00    +0.002 A 
ATOM     28  C   UNL     1      -3.450  -2.160  24.926  0.00  0.00    +0.000 A 
ENDBRANCH   1  18
ENDBRANCH   4   1
ENDBRANCH   9   4
TORSDOF 6
ENDMDL
