MODEL 1
REMARK VINA RESULT:      -3.1      0.000      0.000
REMARK  Name = 7161596
REMARK  6 active torsions:
REMARK  status: ('A' for Active; 'I' for Inactive)
REMARK    1  A    between atoms: S_1  and  N_8
REMARK    2  A    between atoms: S_1  and  C_16
REMARK    3  A    between atoms: O_5  and  C_14
REMARK    4  A    between atoms: O_5  and  C_24
REMARK    5  A    between atoms: C_10  and  C_14
REMARK    6  A    between atoms: C_15  and  C_17
REMARK                            x       y       z     vdW  Elec       q    Type
REMARK                         _______ _______ _______ _____ _____    ______ ____
ROOT
ATOM      7  O   UNL     1       0.908  -0.919  21.843  0.00  0.00    -0.270 OA
ATOM      8  N   UNL     1      -1.306   2.469  24.892  0.00  0.00    -0.160 NA
ATOM      9  N   UNL     1       0.481   0.890  23.262  0.00  0.00    -0.294 N 
ATOM     10  C   UNL     1      -1.835   1.334  24.087  0.00  0.00    +0.205 C 
ATOM     11  C   UNL     1      -0.938   0.961  22.910  0.00  0.00    +0.140 C 
ATOM     12  C   UNL     1      -0.017   3.033  24.413  0.00  0.00    +0.129 C 
ATOM     13  C   UNL     1       0.977   1.899  24.205  0.00  0.00    +0.125 C 
ATOM     15  C   UNL     1       1.293  -0.062  22.637  0.00  0.00    +0.247 C 
ENDROOT
BRANCH  15  17
ATOM      2  F   UNL     1       5.293  -2.261  24.265  0.00  0.00    -0.205 F 
ATOM     17  C   UNL     1       2.732  -0.046  22.942  0.00  0.00    +0.040 A 
ATOM     20  C   UNL     1       3.340  -1.183  23.468  0.00  0.00    +0.051 A 
ATOM     21  C   UNL     1       3.479   1.104  22.702  0.00  0.00    +0.013 A 
ATOM     26  C   UNL     1       4.705  -1.170  23.757  0.00  0.00    +0.124 A 
ATOM     27  C   UNL     1       4.844   1.118  22.992  0.00  0.00    +0.004 A 
ATOM     28  C   UNL     1       5.457  -0.019  23.519  0.00  0.00    +0.038 A 
ENDBRANCH  15  17
BRANCH   8   1
ATOM      1  S   UNL     1      -2.450   3.596  25.480  0.00  0.00    +0.062 S 
ATOM      3  O   UNL     1      -2.475   4.736  24.585  0.00  0.00    -0.153 OA
ATOM      4  O   UNL     1      -2.277   3.747  26.909  0.00  0.00    -0.153 OA
BRANCH   1  16
ATOM     16  C   UNL     1      -4.069   2.852  25.318  0.00  0.00    +0.106 A 
ATOM     18  C   UNL     1      -4.413   2.292  24.113  0.00  0.00    +0.028 A 
ATOM     19  C   UNL     1      -4.909   2.870  26.405  0.00  0.00    +0.028 A 
ATOM     22  C   UNL     1      -5.677   1.713  23.986  0.00  0.00    +0.002 A 
ATOM     23  C   UNL     1      -6.171   2.291  26.279  0.00  0.00    +0.002 A 
ATOM     25  C   UNL     1      -6.555   1.712  25.069  0.00  0.00    +0.000 A 
ENDBRANCH   1  16
ENDBRANCH   8   1
BRANCH  10  14
ATOM      6  O   UNL     1      -1.294   0.125  26.095  0.00  0.00    -0.249 OA
ATOM     14  C   UNL     1      -1.949   0.207  25.065  0.00  0.00    +0.327 C 
BRANCH  14   5
ATOM      5  O   UNL     1      -2.880  -0.686  24.623  0.00  0.00    -0.467 OA
ATOM     24  C   UNL     1      -3.578  -1.403  25.647  0.00  0.00    +0.280 C 
ENDBRANCH  14   5
ENDBRANCH  10  14
TORSDOF 5
ENDMDL
