MODEL 1
REMARK VINA RESULT:       0.5      0.000      0.000
REMARK  Name = 45784359
REMARK  7 active torsions:
REMARK  status: ('A' for Active; 'I' for Inactive)
REMARK    1  A    between atoms: O_5  and  C_27
REMARK    2  A    between atoms: O_5  and  C_29
REMARK    3  A    between atoms: N_7  and  C_13
REMARK    4  A    between atoms: C_9  and  C_14
REMARK    5  A    between atoms: C_13  and  C_15
REMARK    6  A    between atoms: C_20  and  C_27
REMARK    7  A    between atoms: C_24  and  C_28
REMARK                            x       y       z     vdW  Elec       q    Type
REMARK                         _______ _______ _______ _____ _____    ______ ____
ROOT
ATOM      7  N   UNL     1       0.115  -0.970  23.653  0.00  0.00    -0.297 NA
ATOM      9  C   UNL     1      -1.618  -0.456  25.148  0.00  0.00    +0.090 C 
ATOM     10  C   UNL     1      -1.825  -1.874  24.587  0.00  0.00    +0.029 C 
ATOM     11  C   UNL     1      -0.592   0.188  24.205  0.00  0.00    +0.097 C 
ATOM     12  C   UNL     1      -0.935  -1.944  23.353  0.00  0.00    +0.085 C 
ENDROOT
BRANCH   9  14
ATOM      4  O   UNL     1      -2.757   1.696  25.051  0.00  0.00    -0.439 OA
ATOM      8  N   UNL     1      -4.088  -0.050  25.614  0.00  0.00    -0.213 NA
ATOM     14  C   UNL     1      -2.881   0.361  25.290  0.00  0.00    +0.201 A 
ATOM     16  C   UNL     1      -4.021   2.176  25.244  0.00  0.00    +0.169 A 
ATOM     17  C   UNL     1      -4.832   1.105  25.589  0.00  0.00    +0.110 A 
ATOM     20  C   UNL     1      -4.452   3.492  25.127  0.00  0.00    +0.103 A 
ATOM     21  C   UNL     1      -6.191   1.339  25.843  0.00  0.00    +0.031 A 
ATOM     25  C   UNL     1      -5.811   3.707  25.383  0.00  0.00    +0.019 A 
ATOM     26  C   UNL     1      -6.665   2.655  25.735  0.00  0.00    +0.003 A 
BRANCH  20  27
ATOM      6  O   UNL     1      -3.706   5.307  23.773  0.00  0.00    -0.245 OA
ATOM     27  C   UNL     1      -3.559   4.572  24.764  0.00  0.00    +0.343 C 
BRANCH  27   5
ATOM      5  O   UNL     1      -2.521   4.694  25.650  0.00  0.00    -0.464 OA
ATOM     29  C   UNL     1      -1.220   4.928  25.100  0.00  0.00    +0.280 C 
ENDBRANCH  27   5
ENDBRANCH  20  27
ENDBRANCH   9  14
BRANCH   7  13
ATOM     13  C   UNL     1       0.906  -0.629  22.479  0.00  0.00    +0.119 C 
BRANCH  13  15
ATOM     15  C   UNL     1       2.364  -0.467  22.815  0.00  0.00    -0.033 A 
ATOM     18  C   UNL     1       3.039   0.698  22.448  0.00  0.00    +0.005 A 
ATOM     19  C   UNL     1       3.041  -1.480  23.494  0.00  0.00    +0.005 A 
ATOM     22  C   UNL     1       4.390   0.849  22.760  0.00  0.00    +0.012 A 
ATOM     23  C   UNL     1       4.393  -1.329  23.805  0.00  0.00    +0.012 A 
ATOM     24  C   UNL     1       5.067  -0.165  23.438  0.00  0.00    +0.055 A 
BRANCH  24  28
ATOM      1  F   UNL     1       7.350  -0.290  22.734  0.00  0.00    -0.166 F 
ATOM      2  F   UNL     1       6.907  -0.814  24.797  0.00  0.00    -0.166 F 
ATOM      3  F   UNL     1       6.845   1.264  24.159  0.00  0.00    -0.166 F 
ATOM     28  C   UNL     1       6.511  -0.002  23.773  0.00  0.00    +0.417 C 
ENDBRANCH  24  28
ENDBRANCH  13  15
ENDBRANCH   7  13
TORSDOF 6
ENDMDL
MODEL 2
REMARK VINA RESULT:       0.9      3.493      6.892
REMARK  Name = 45784359
REMARK  7 active torsions:
REMARK  status: ('A' for Active; 'I' for Inactive)
REMARK    1  A    between atoms: O_5  and  C_27
REMARK    2  A    between atoms: O_5  and  C_29
REMARK    3  A    between atoms: N_7  and  C_13
REMARK    4  A    between atoms: C_9  and  C_14
REMARK    5  A    between atoms: C_13  and  C_15
REMARK    6  A    between atoms: C_20  and  C_27
REMARK    7  A    between atoms: C_24  and  C_28
REMARK                            x       y       z     vdW  Elec       q    Type
REMARK                         _______ _______ _______ _____ _____    ______ ____
ROOT
ATOM      7  N   UNL     1      -6.325   2.989  25.446  0.00  0.00    -0.297 NA
ATOM      9  C   UNL     1      -5.857   0.750  24.926  0.00  0.00    +0.090 C 
ATOM     10  C   UNL     1      -6.397   0.843  26.364  0.00  0.00    +0.029 C 
ATOM     11  C   UNL     1      -5.472   2.191  24.562  0.00  0.00    +0.097 C 
ATOM     12  C   UNL     1      -6.262   2.312  26.742  0.00  0.00    +0.085 C 
ENDROOT
BRANCH   9  14
ATOM      4  O   UNL     1      -3.468   0.303  24.752  0.00  0.00    -0.439 OA
ATOM      8  N   UNL     1      -4.786  -1.530  24.557  0.00  0.00    -0.213 NA
ATOM     14  C   UNL     1      -4.722  -0.229  24.736  0.00  0.00    +0.201 A 
ATOM     16  C   UNL     1      -2.657  -0.780  24.565  0.00  0.00    +0.169 A 
ATOM     17  C   UNL     1      -3.468  -1.899  24.446  0.00  0.00    +0.110 A 
ATOM     20  C   UNL     1      -1.269  -0.795  24.500  0.00  0.00    +0.103 A 
ATOM     21  C   UNL     1      -2.869  -3.151  24.243  0.00  0.00    +0.031 A 
ATOM     25  C   UNL     1      -0.688  -2.052  24.299  0.00  0.00    +0.019 A 
ATOM     26  C   UNL     1      -1.468  -3.207  24.172  0.00  0.00    +0.003 A 
BRANCH  20  27
ATOM      6  O   UNL     1      -0.314   1.037  25.690  0.00  0.00    -0.245 OA
ATOM     27  C   UNL     1      -0.472   0.407  24.631  0.00  0.00    +0.343 C 
BRANCH  27   5
ATOM      5  O   UNL     1       0.095   0.774  23.439  0.00  0.00    -0.464 OA
ATOM     29  C   UNL     1       1.285   0.083  23.045  0.00  0.00    +0.280 C 
ENDBRANCH  27   5
ENDBRANCH  20  27
ENDBRANCH   9  14
BRANCH   7  13
ATOM     13  C   UNL     1      -5.896   4.378  25.525  0.00  0.00    +0.119 C 
BRANCH  13  15
ATOM     15  C   UNL     1      -4.413   4.519  25.306  0.00  0.00    -0.033 A 
ATOM     18  C   UNL     1      -3.523   4.199  26.332  0.00  0.00    +0.005 A 
ATOM     19  C   UNL     1      -3.928   4.968  24.078  0.00  0.00    +0.005 A 
ATOM     22  C   UNL     1      -2.149   4.328  26.129  0.00  0.00    +0.012 A 
ATOM     23  C   UNL     1      -2.554   5.098  23.876  0.00  0.00    +0.012 A 
ATOM     24  C   UNL     1      -1.665   4.778  24.901  0.00  0.00    +0.055 A 
BRANCH  24  28
ATOM      1  F   UNL     1       0.554   4.100  25.484  0.00  0.00    -0.166 F 
ATOM      2  F   UNL     1       0.256   6.180  24.926  0.00  0.00    -0.166 F 
ATOM      3  F   UNL     1       0.200   4.622  23.410  0.00  0.00    -0.166 F 
ATOM     28  C   UNL     1      -0.196   4.915  24.684  0.00  0.00    +0.417 C 
ENDBRANCH  24  28
ENDBRANCH  13  15
ENDBRANCH   7  13
TORSDOF 6
ENDMDL
MODEL 3
REMARK VINA RESULT:       1.3      2.380      3.775
REMARK  Name = 45784359
REMARK  7 active torsions:
REMARK  status: ('A' for Active; 'I' for Inactive)
REMARK    1  A    between atoms: O_5  and  C_27
REMARK    2  A    between atoms: O_5  and  C_29
REMARK    3  A    between atoms: N_7  and  C_13
REMARK    4  A    between atoms: C_9  and  C_14
REMARK    5  A    between atoms: C_13  and  C_15
REMARK    6  A    between atoms: C_20  and  C_27
REMARK    7  A    between atoms: C_24  and  C_28
REMARK                            x       y       z     vdW  Elec       q    Type
REMARK                         _______ _______ _______ _____ _____    ______ ____
ROOT
ATOM      7  N   UNL     1      -3.471  -2.259  25.074  0.00  0.00    -0.297 NA
ATOM      9  C   UNL     1      -4.493  -0.180  25.444  0.00  0.00    +0.090 C 
ATOM     10  C   UNL     1      -5.015  -0.785  24.129  0.00  0.00    +0.029 C 
ATOM     11  C   UNL     1      -3.232  -0.993  25.771  0.00  0.00    +0.097 C 
ATOM     12  C   UNL     1      -4.015  -1.876  23.771  0.00  0.00    +0.085 C 
ENDROOT
BRANCH   9  14
ATOM      4  O   UNL     1      -2.953   1.688  25.166  0.00  0.00    -0.439 OA
ATOM      8  N   UNL     1      -5.101   2.289  25.565  0.00  0.00    -0.213 NA
ATOM     14  C   UNL     1      -4.240   1.309  25.403  0.00  0.00    +0.201 A 
ATOM     16  C   UNL     1      -3.013   3.052  25.179  0.00  0.00    +0.169 A 
ATOM     17  C   UNL     1      -4.329   3.416  25.424  0.00  0.00    +0.110 A 
ATOM     20  C   UNL     1      -1.966   3.946  24.987  0.00  0.00    +0.103 A 
ATOM     21  C   UNL     1      -4.654   4.778  25.488  0.00  0.00    +0.031 A 
ATOM     25  C   UNL     1      -2.308   5.301  25.053  0.00  0.00    +0.019 A 
ATOM     26  C   UNL     1      -3.624   5.712  25.299  0.00  0.00    +0.003 A 
BRANCH  20  27
ATOM      6  O   UNL     1      -0.164   3.196  23.618  0.00  0.00    -0.245 OA
ATOM     27  C   UNL     1      -0.608   3.508  24.734  0.00  0.00    +0.343 C 
BRANCH  27   5
ATOM      5  O   UNL     1       0.139   3.480  25.882  0.00  0.00    -0.464 OA
ATOM     29  C   UNL     1       0.174   2.245  26.606  0.00  0.00    +0.280 C 
ENDBRANCH  27   5
ENDBRANCH  20  27
ENDBRANCH   9  14
BRANCH   7  13
ATOM     13  C   UNL     1      -2.263  -3.063  24.956  0.00  0.00    +0.119 C 
BRANCH  13  15
ATOM     15  C   UNL     1      -1.101  -2.255  24.444  0.00  0.00    -0.033 A 
ATOM     18  C   UNL     1       0.152  -2.376  25.046  0.00  0.00    +0.005 A 
ATOM     19  C   UNL     1      -1.275  -1.387  23.366  0.00  0.00    +0.005 A 
ATOM     22  C   UNL     1       1.229  -1.628  24.571  0.00  0.00    +0.012 A 
ATOM     23  C   UNL     1      -0.197  -0.639  22.892  0.00  0.00    +0.012 A 
ATOM     24  C   UNL     1       1.054  -0.760  23.494  0.00  0.00    +0.055 A 
BRANCH  24  28
ATOM      1  F   UNL     1       2.222   1.328  23.437  0.00  0.00    -0.166 F 
ATOM      2  F   UNL     1       2.222   0.129  21.623  0.00  0.00    -0.166 F 
ATOM      3  F   UNL     1       3.424  -0.474  23.332  0.00  0.00    -0.166 F 
ATOM     28  C   UNL     1       2.207   0.038  22.985  0.00  0.00    +0.417 C 
ENDBRANCH  24  28
ENDBRANCH  13  15
ENDBRANCH   7  13
TORSDOF 6
ENDMDL
MODEL 4
REMARK VINA RESULT:       1.7      5.280      7.871
REMARK  Name = 45784359
REMARK  7 active torsions:
REMARK  status: ('A' for Active; 'I' for Inactive)
REMARK    1  A    between atoms: O_5  and  C_27
REMARK    2  A    between atoms: O_5  and  C_29
REMARK    3  A    between atoms: N_7  and  C_13
REMARK    4  A    between atoms: C_9  and  C_14
REMARK    5  A    between atoms: C_13  and  C_15
REMARK    6  A    between atoms: C_20  and  C_27
REMARK    7  A    between atoms: C_24  and  C_28
REMARK                            x       y       z     vdW  Elec       q    Type
REMARK                         _______ _______ _______ _____ _____    ______ ____
ROOT
ATOM      7  N   UNL     1       0.297   3.805  24.859  0.00  0.00    -0.297 NA
ATOM      9  C   UNL     1       0.569   1.476  24.782  0.00  0.00    +0.090 C 
ATOM     10  C   UNL     1       1.040   2.094  23.453  0.00  0.00    +0.029 C 
ATOM     11  C   UNL     1      -0.251   2.585  25.456  0.00  0.00    +0.097 C 
ATOM     12  C   UNL     1       0.443   3.495  23.436  0.00  0.00    +0.085 C 
ENDROOT
BRANCH   9  14
ATOM      4  O   UNL     1      -1.528   0.243  24.913  0.00  0.00    -0.439 OA
ATOM      8  N   UNL     1       0.260  -1.003  24.293  0.00  0.00    -0.213 NA
ATOM     14  C   UNL     1      -0.195   0.180  24.643  0.00  0.00    +0.201 A 
ATOM     16  C   UNL     1      -1.958  -1.038  24.711  0.00  0.00    +0.169 A 
ATOM     17  C   UNL     1      -0.861  -1.797  24.332  0.00  0.00    +0.110 A 
ATOM     20  C   UNL     1      -3.251  -1.528  24.850  0.00  0.00    +0.103 A 
ATOM     21  C   UNL     1      -1.041  -3.162  24.065  0.00  0.00    +0.031 A 
ATOM     25  C   UNL     1      -3.413  -2.890  24.579  0.00  0.00    +0.019 A 
ATOM     26  C   UNL     1      -2.333  -3.694  24.195  0.00  0.00    +0.003 A 
BRANCH  20  27
ATOM      6  O   UNL     1      -4.753  -0.544  26.419  0.00  0.00    -0.245 OA
ATOM     27  C   UNL     1      -4.361  -0.687  25.250  0.00  0.00    +0.343 C 
BRANCH  27   5
ATOM      5  O   UNL     1      -4.933  -0.057  24.176  0.00  0.00    -0.464 OA
ATOM     29  C   UNL     1      -4.111   0.856  23.442  0.00  0.00    +0.280 C 
ENDBRANCH  27   5
ENDBRANCH  20  27
ENDBRANCH   9  14
BRANCH   7  13
ATOM     13  C   UNL     1      -0.552   4.965  25.089  0.00  0.00    +0.119 C 
BRANCH  13  15
ATOM     15  C   UNL     1      -1.997   4.577  25.253  0.00  0.00    -0.033 A 
ATOM     18  C   UNL     1      -2.816   4.448  24.131  0.00  0.00    +0.005 A 
ATOM     19  C   UNL     1      -2.518   4.346  26.526  0.00  0.00    +0.005 A 
ATOM     22  C   UNL     1      -4.155   4.087  24.282  0.00  0.00    +0.012 A 
ATOM     23  C   UNL     1      -3.857   3.986  26.677  0.00  0.00    +0.012 A 
ATOM     24  C   UNL     1      -4.675   3.857  25.555  0.00  0.00    +0.055 A 
BRANCH  24  28
ATOM      1  F   UNL     1      -6.567   2.649  24.726  0.00  0.00    -0.166 F 
ATOM      2  F   UNL     1      -6.945   4.547  25.718  0.00  0.00    -0.166 F 
ATOM      3  F   UNL     1      -6.366   2.802  26.880  0.00  0.00    -0.166 F 
ATOM     28  C   UNL     1      -6.106   3.470  25.717  0.00  0.00    +0.417 C 
ENDBRANCH  24  28
ENDBRANCH  13  15
ENDBRANCH   7  13
TORSDOF 6
ENDMDL
MODEL 5
REMARK VINA RESULT:       2.1      4.362      8.181
REMARK  Name = 45784359
REMARK  7 active torsions:
REMARK  status: ('A' for Active; 'I' for Inactive)
REMARK    1  A    between atoms: O_5  and  C_27
REMARK    2  A    between atoms: O_5  and  C_29
REMARK    3  A    between atoms: N_7  and  C_13
REMARK    4  A    between atoms: C_9  and  C_14
REMARK    5  A    between atoms: C_13  and  C_15
REMARK    6  A    between atoms: C_20  and  C_27
REMARK    7  A    between atoms: C_24  and  C_28
REMARK                            x       y       z     vdW  Elec       q    Type
REMARK                         _______ _______ _______ _____ _____    ______ ____
ROOT
ATOM      7  N   UNL     1      -3.139   4.230  25.526  0.00  0.00    -0.297 NA
ATOM      9  C   UNL     1      -0.842   3.873  25.210  0.00  0.00    +0.090 C 
ATOM     10  C   UNL     1      -1.312   5.031  24.312  0.00  0.00    +0.029 C 
ATOM     11  C   UNL     1      -2.135   3.170  25.645  0.00  0.00    +0.097 C 
ATOM     12  C   UNL     1      -2.828   4.903  24.264  0.00  0.00    +0.085 C 
ENDROOT
BRANCH   9  14
ATOM      4  O   UNL     1      -0.210   1.621  24.527  0.00  0.00    -0.439 OA
ATOM      8  N   UNL     1       1.323   3.219  24.042  0.00  0.00    -0.213 NA
ATOM     14  C   UNL     1       0.152   2.934  24.568  0.00  0.00    +0.201 A 
ATOM     16  C   UNL     1       0.847   1.017  23.907  0.00  0.00    +0.169 A 
ATOM     17  C   UNL     1       1.782   1.997  23.612  0.00  0.00    +0.110 A 
ATOM     20  C   UNL     1       0.992  -0.333  23.610  0.00  0.00    +0.103 A 
ATOM     21  C   UNL     1       2.971   1.627  22.968  0.00  0.00    +0.031 A 
ATOM     25  C   UNL     1       2.183  -0.685  22.966  0.00  0.00    +0.019 A 
ATOM     26  C   UNL     1       3.155   0.272  22.651  0.00  0.00    +0.003 A 
BRANCH  20  27
ATOM      6  O   UNL     1      -0.746  -1.888  23.113  0.00  0.00    -0.245 OA
ATOM     27  C   UNL     1      -0.020  -1.315  23.942  0.00  0.00    +0.343 C 
BRANCH  27   5
ATOM      5  O   UNL     1      -0.084  -1.542  25.291  0.00  0.00    -0.464 OA
ATOM     29  C   UNL     1      -1.280  -1.136  25.964  0.00  0.00    +0.280 C 
ENDBRANCH  27   5
ENDBRANCH  20  27
ENDBRANCH   9  14
BRANCH   7  13
ATOM     13  C   UNL     1      -4.499   3.713  25.559  0.00  0.00    +0.119 C 
BRANCH  13  15
ATOM     15  C   UNL     1      -4.559   2.269  25.137  0.00  0.00    -0.033 A 
ATOM     18  C   UNL     1      -3.690   1.793  24.154  0.00  0.00    +0.005 A 
ATOM     19  C   UNL     1      -5.482   1.406  25.728  0.00  0.00    +0.005 A 
ATOM     22  C   UNL     1      -3.745   0.455  23.763  0.00  0.00    +0.012 A 
ATOM     23  C   UNL     1      -5.536   0.068  25.337  0.00  0.00    +0.012 A 
ATOM     24  C   UNL     1      -4.668  -0.407  24.354  0.00  0.00    +0.055 A 
BRANCH  24  28
ATOM      1  F   UNL     1      -4.118  -2.689  24.818  0.00  0.00    -0.166 F 
ATOM      2  F   UNL     1      -4.116  -2.060  22.737  0.00  0.00    -0.166 F 
ATOM      3  F   UNL     1      -5.996  -2.318  23.799  0.00  0.00    -0.166 F 
ATOM     28  C   UNL     1      -4.725  -1.838  23.938  0.00  0.00    +0.417 C 
ENDBRANCH  24  28
ENDBRANCH  13  15
ENDBRANCH   7  13
TORSDOF 6
ENDMDL
MODEL 6
REMARK VINA RESULT:       2.4      3.512      6.348
REMARK  Name = 45784359
REMARK  7 active torsions:
REMARK  status: ('A' for Active; 'I' for Inactive)
REMARK    1  A    between atoms: O_5  and  C_27
REMARK    2  A    between atoms: O_5  and  C_29
REMARK    3  A    between atoms: N_7  and  C_13
REMARK    4  A    between atoms: C_9  and  C_14
REMARK    5  A    between atoms: C_13  and  C_15
REMARK    6  A    between atoms: C_20  and  C_27
REMARK    7  A    between atoms: C_24  and  C_28
REMARK                            x       y       z     vdW  Elec       q    Type
REMARK                         _______ _______ _______ _____ _____    ______ ____
ROOT
ATOM      7  N   UNL     1      -5.021   3.904  24.717  0.00  0.00    -0.297 NA
ATOM      9  C   UNL     1      -5.397   1.674  24.093  0.00  0.00    +0.090 C 
ATOM     10  C   UNL     1      -6.269   2.022  25.312  0.00  0.00    +0.029 C 
ATOM     11  C   UNL     1      -4.351   2.796  24.031  0.00  0.00    +0.097 C 
ATOM     12  C   UNL     1      -5.658   3.293  25.885  0.00  0.00    +0.085 C 
ENDROOT
BRANCH   9  14
ATOM      4  O   UNL     1      -3.471   0.237  24.495  0.00  0.00    -0.439 OA
ATOM      8  N   UNL     1      -5.345  -0.859  23.847  0.00  0.00    -0.213 NA
ATOM     14  C   UNL     1      -4.780   0.295  24.126  0.00  0.00    +0.201 A 
ATOM     16  C   UNL     1      -3.181  -1.096  24.442  0.00  0.00    +0.169 A 
ATOM     17  C   UNL     1      -4.330  -1.764  24.045  0.00  0.00    +0.110 A 
ATOM     20  C   UNL     1      -1.967  -1.709  24.727  0.00  0.00    +0.103 A 
ATOM     21  C   UNL     1      -4.292  -3.159  23.912  0.00  0.00    +0.031 A 
ATOM     25  C   UNL     1      -1.946  -3.101  24.591  0.00  0.00    +0.019 A 
ATOM     26  C   UNL     1      -3.083  -3.814  24.191  0.00  0.00    +0.003 A 
BRANCH  20  27
ATOM      6  O   UNL     1      -0.610  -0.516  26.283  0.00  0.00    -0.245 OA
ATOM     27  C   UNL     1      -0.797  -0.960  25.138  0.00  0.00    +0.343 C 
BRANCH  27   5
ATOM      5  O   UNL     1       0.092  -0.799  24.108  0.00  0.00    -0.464 OA
ATOM     29  C   UNL     1       0.221   0.518  23.561  0.00  0.00    +0.280 C 
ENDBRANCH  27   5
ENDBRANCH  20  27
ENDBRANCH   9  14
BRANCH   7  13
ATOM     13  C   UNL     1      -4.097   4.969  25.083  0.00  0.00    +0.119 C 
BRANCH  13  15
ATOM     15  C   UNL     1      -2.782   4.425  25.573  0.00  0.00    -0.033 A 
ATOM     18  C   UNL     1      -2.743   3.601  26.698  0.00  0.00    +0.005 A 
ATOM     19  C   UNL     1      -1.601   4.744  24.901  0.00  0.00    +0.005 A 
ATOM     22  C   UNL     1      -1.524   3.097  27.151  0.00  0.00    +0.012 A 
ATOM     23  C   UNL     1      -0.382   4.240  25.355  0.00  0.00    +0.012 A 
ATOM     24  C   UNL     1      -0.344   3.416  26.480  0.00  0.00    +0.055 A 
BRANCH  24  28
ATOM      1  F   UNL     1       1.888   3.842  27.229  0.00  0.00    -0.166 F 
ATOM      2  F   UNL     1       1.549   2.040  26.060  0.00  0.00    -0.166 F 
ATOM      3  F   UNL     1       0.858   2.153  28.119  0.00  0.00    -0.166 F 
ATOM     28  C   UNL     1       0.959   2.875  26.964  0.00  0.00    +0.417 C 
ENDBRANCH  24  28
ENDBRANCH  13  15
ENDBRANCH   7  13
TORSDOF 6
ENDMDL
MODEL 7
REMARK VINA RESULT:       2.7      4.306      5.801
REMARK  Name = 45784359
REMARK  7 active torsions:
REMARK  status: ('A' for Active; 'I' for Inactive)
REMARK    1  A    between atoms: O_5  and  C_27
REMARK    2  A    between atoms: O_5  and  C_29
REMARK    3  A    between atoms: N_7  and  C_13
REMARK    4  A    between atoms: C_9  and  C_14
REMARK    5  A    between atoms: C_13  and  C_15
REMARK    6  A    between atoms: C_20  and  C_27
REMARK    7  A    between atoms: C_24  and  C_28
REMARK                            x       y       z     vdW  Elec       q    Type
REMARK                         _______ _______ _______ _____ _____    ______ ____
ROOT
ATOM      7  N   UNL     1       0.856   1.869  24.281  0.00  0.00    -0.297 NA
ATOM      9  C   UNL     1      -0.654   3.589  24.794  0.00  0.00    +0.090 C 
ATOM     10  C   UNL     1       0.150   3.216  26.052  0.00  0.00    +0.029 C 
ATOM     11  C   UNL     1      -0.422   2.420  23.826  0.00  0.00    +0.097 C 
ATOM     12  C   UNL     1       0.763   1.858  25.741  0.00  0.00    +0.085 C 
ENDROOT
BRANCH   9  14
ATOM      4  O   UNL     1      -2.960   2.810  24.895  0.00  0.00    -0.439 OA
ATOM      8  N   UNL     1      -2.687   5.009  25.368  0.00  0.00    -0.213 NA
ATOM     14  C   UNL     1      -2.118   3.871  25.036  0.00  0.00    +0.201 A 
ATOM     16  C   UNL     1      -4.190   3.338  25.169  0.00  0.00    +0.169 A 
ATOM     17  C   UNL     1      -4.018   4.683  25.457  0.00  0.00    +0.110 A 
ATOM     20  C   UNL     1      -5.413   2.677  25.166  0.00  0.00    +0.103 A 
ATOM     21  C   UNL     1      -5.144   5.458  25.772  0.00  0.00    +0.031 A 
ATOM     25  C   UNL     1      -6.525   3.463  25.484  0.00  0.00    +0.019 A 
ATOM     26  C   UNL     1      -6.397   4.826  25.781  0.00  0.00    +0.003 A 
BRANCH  20  27
ATOM      6  O   UNL     1      -6.575   0.716  24.466  0.00  0.00    -0.245 OA
ATOM     27  C   UNL     1      -5.533   1.267  24.857  0.00  0.00    +0.343 C 
BRANCH  27   5
ATOM      5  O   UNL     1      -4.349   0.603  25.045  0.00  0.00    -0.464 OA
ATOM     29  C   UNL     1      -4.216  -0.163  26.247  0.00  0.00    +0.280 C 
ENDBRANCH  27   5
ENDBRANCH  20  27
ENDBRANCH   9  14
BRANCH   7  13
ATOM     13  C   UNL     1       1.116   0.545  23.732  0.00  0.00    +0.119 C 
BRANCH  13  15
ATOM     15  C   UNL     1      -0.068  -0.370  23.894  0.00  0.00    -0.033 A 
ATOM     18  C   UNL     1       0.053  -1.541  24.644  0.00  0.00    +0.005 A 
ATOM     19  C   UNL     1      -1.286  -0.049  23.296  0.00  0.00    +0.005 A 
ATOM     22  C   UNL     1      -1.044  -2.389  24.795  0.00  0.00    +0.012 A 
ATOM     23  C   UNL     1      -2.383  -0.897  23.447  0.00  0.00    +0.012 A 
ATOM     24  C   UNL     1      -2.262  -2.067  24.196  0.00  0.00    +0.055 A 
BRANCH  24  28
ATOM      1  F   UNL     1      -4.601  -2.450  23.875  0.00  0.00    -0.166 F 
ATOM      2  F   UNL     1      -3.687  -3.276  25.666  0.00  0.00    -0.166 F 
ATOM      3  F   UNL     1      -3.293  -4.173  23.725  0.00  0.00    -0.166 F 
ATOM     28  C   UNL     1      -3.435  -2.972  24.359  0.00  0.00    +0.417 C 
ENDBRANCH  24  28
ENDBRANCH  13  15
ENDBRANCH   7  13
TORSDOF 6
ENDMDL
MODEL 8
REMARK VINA RESULT:       2.9      1.523      2.755
REMARK  Name = 45784359
REMARK  7 active torsions:
REMARK  status: ('A' for Active; 'I' for Inactive)
REMARK    1  A    between atoms: O_5  and  C_27
REMARK    2  A    between atoms: O_5  and  C_29
REMARK    3  A    between atoms: N_7  and  C_13
REMARK    4  A    between atoms: C_9  and  C_14
REMARK    5  A    between atoms: C_13  and  C_15
REMARK    6  A    between atoms: C_20  and  C_27
REMARK    7  A    between atoms: C_24  and  C_28
REMARK                            x       y       z     vdW  Elec       q    Type
REMARK                         _______ _______ _______ _____ _____    ______ ____
ROOT
ATOM      7  N   UNL     1       0.248  -0.591  23.862  0.00  0.00    -0.297 NA
ATOM      9  C   UNL     1      -1.157   0.569  25.339  0.00  0.00    +0.090 C 
ATOM     10  C   UNL     1      -1.807  -0.772  24.956  0.00  0.00    +0.029 C 
ATOM     11  C   UNL     1      -0.050   0.775  24.296  0.00  0.00    +0.097 C 
ATOM     12  C   UNL     1      -1.059  -1.232  23.712  0.00  0.00    +0.085 C 
ENDROOT
BRANCH   9  14
ATOM      4  O   UNL     1      -3.435   1.434  25.304  0.00  0.00    -0.439 OA
ATOM      8  N   UNL     1      -1.833   3.009  25.600  0.00  0.00    -0.213 NA
ATOM     14  C   UNL     1      -2.113   1.737  25.424  0.00  0.00    +0.201 A 
ATOM     16  C   UNL     1      -4.053   2.646  25.418  0.00  0.00    +0.169 A 
ATOM     17  C   UNL     1      -3.070   3.608  25.598  0.00  0.00    +0.110 A 
ATOM     20  C   UNL     1      -5.417   2.907  25.366  0.00  0.00    +0.103 A 
ATOM     21  C   UNL     1      -3.452   4.949  25.741  0.00  0.00    +0.031 A 
ATOM     25  C   UNL     1      -5.781   4.250  25.511  0.00  0.00    +0.019 A 
ATOM     26  C   UNL     1      -4.821   5.253  25.695  0.00  0.00    +0.003 A 
BRANCH  20  27
ATOM      6  O   UNL     1      -7.178   1.792  24.208  0.00  0.00    -0.245 OA
ATOM     27  C   UNL     1      -6.401   1.862  25.174  0.00  0.00    +0.343 C 
BRANCH  27   5
ATOM      5  O   UNL     1      -6.374   0.946  26.193  0.00  0.00    -0.464 OA
ATOM     29  C   UNL     1      -6.833   1.386  27.476  0.00  0.00    +0.280 C 
ENDBRANCH  27   5
ENDBRANCH  20  27
ENDBRANCH   9  14
BRANCH   7  13
ATOM     13  C   UNL     1       1.026  -0.625  22.632  0.00  0.00    +0.119 C 
BRANCH  13  15
ATOM     15  C   UNL     1       2.500  -0.472  22.897  0.00  0.00    -0.033 A 
ATOM     18  C   UNL     1       3.202  -1.491  23.542  0.00  0.00    +0.005 A 
ATOM     19  C   UNL     1       3.165   0.688  22.499  0.00  0.00    +0.005 A 
ATOM     22  C   UNL     1       4.568  -1.350  23.787  0.00  0.00    +0.012 A 
ATOM     23  C   UNL     1       4.530   0.829  22.745  0.00  0.00    +0.012 A 
ATOM     24  C   UNL     1       5.231  -0.190  23.389  0.00  0.00    +0.055 A 
BRANCH  24  28
ATOM      1  F   UNL     1       7.070   1.245  23.924  0.00  0.00    -0.166 F 
ATOM      2  F   UNL     1       7.458  -0.427  22.588  0.00  0.00    -0.166 F 
ATOM      3  F   UNL     1       7.138  -0.775  24.711  0.00  0.00    -0.166 F 
ATOM     28  C   UNL     1       6.692  -0.040  23.650  0.00  0.00    +0.417 C 
ENDBRANCH  24  28
ENDBRANCH  13  15
ENDBRANCH   7  13
TORSDOF 6
ENDMDL
