MODEL 1
REMARK VINA RESULT:      -6.1      0.000      0.000
REMARK  Name = 56775665
REMARK  9 active torsions:
REMARK  status: ('A' for Active; 'I' for Inactive)
REMARK    1  A    between atoms: O_3  and  C_16
REMARK    2  A    between atoms: O_4  and  C_18
REMARK    3  A    between atoms: O_4  and  C_22
REMARK    4  A    between atoms: N_5  and  C_7
REMARK    5  A    between atoms: N_5  and  C_11
REMARK    6  A    between atoms: C_7  and  C_10
REMARK    7  A    between atoms: C_10  and  C_12
REMARK    8  A    between atoms: C_11  and  C_13
REMARK    9  A    between atoms: C_15  and  C_18
REMARK                            x       y       z     vdW  Elec       q    Type
REMARK                         _______ _______ _______ _____ _____    ______ ____
ROOT
ATOM      1  O   UNL     1      -5.538   3.762  25.707  0.00  0.00    -0.376 OA
ATOM      7  C   UNL     1      -3.910   2.705  24.821  0.00  0.00    +0.072 C 
ATOM      8  C   UNL     1      -4.099   3.889  25.763  0.00  0.00    +0.184 C 
ATOM      9  C   UNL     1      -5.432   2.694  24.739  0.00  0.00    +0.184 C 
ENDROOT
BRANCH   7   5
ATOM      5  N   UNL     1      -3.471   1.547  25.603  0.00  0.00    -0.302 NA
ATOM     28  H   UNL     1      -3.371   1.714  26.604  0.00  0.00    +0.123 HD
BRANCH   5  11
ATOM     11  C   UNL     1      -4.396   0.436  25.379  0.00  0.00    +0.120 C 
BRANCH  11  13
ATOM     13  C   UNL     1      -3.694  -0.810  24.951  0.00  0.00    +0.008 A 
ATOM     16  C   UNL     1      -2.390  -1.073  25.370  0.00  0.00    +0.121 A 
ATOM     17  C   UNL     1      -4.356  -1.715  24.121  0.00  0.00    +0.008 A 
ATOM     19  C   UNL     1      -1.749  -2.242  24.961  0.00  0.00    +0.046 A 
ATOM     20  C   UNL     1      -3.715  -2.883  23.710  0.00  0.00    +0.001 A 
ATOM     21  C   UNL     1      -2.411  -3.147  24.131  0.00  0.00    +0.004 A 
BRANCH  16   3
ATOM      3  O   UNL     1      -1.729  -0.201  26.181  0.00  0.00    -0.506 OA
ATOM     29  H   UNL     1      -2.283   0.586  26.320  0.00  0.00    +0.292 HD
ENDBRANCH  16   3
ENDBRANCH  11  13
ENDBRANCH   5  11
ENDBRANCH   7   5
BRANCH   7  10
ATOM     10  C   UNL     1      -3.115   2.896  23.565  0.00  0.00    +0.085 C 
BRANCH  10  12
ATOM      2  O   UNL     1       0.169   1.584  24.306  0.00  0.00    -0.356 OA
ATOM      6  N   UNL     1      -0.870   2.485  24.507  0.00  0.00    -0.083 NA
ATOM     12  C   UNL     1      -1.813   2.125  23.631  0.00  0.00    +0.086 A 
ATOM     14  C   UNL     1      -1.429   1.016  22.858  0.00  0.00    +0.074 A 
ATOM     15  C   UNL     1      -0.175   0.715  23.321  0.00  0.00    +0.175 A 
BRANCH  15  18
ATOM     18  C   UNL     1       0.816  -0.312  22.977  0.00  0.00    +0.306 C 
BRANCH  18   4
ATOM      4  O   UNL     1       1.944   0.283  22.332  0.00  0.00    -0.484 OA
BRANCH   4  22
ATOM     22  C   UNL     1       3.168   0.026  22.883  0.00  0.00    +0.121 A 
ATOM     23  C   UNL     1       3.437  -1.229  23.428  0.00  0.00    +0.045 A 
ATOM     24  C   UNL     1       4.147   1.020  22.901  0.00  0.00    +0.045 A 
ATOM     25  C   UNL     1       4.685  -1.492  23.991  0.00  0.00    +0.004 A 
ATOM     26  C   UNL     1       5.396   0.756  23.463  0.00  0.00    +0.004 A 
ATOM     27  C   UNL     1       5.665  -0.499  24.009  0.00  0.00    +0.000 A 
ENDBRANCH   4  22
ENDBRANCH  18   4
ENDBRANCH  15  18
ENDBRANCH  10  12
ENDBRANCH   7  10
TORSDOF 9
ENDMDL
MODEL 2
REMARK VINA RESULT:      -5.0      1.412      4.082
REMARK  Name = 56775665
REMARK  9 active torsions:
REMARK  status: ('A' for Active; 'I' for Inactive)
REMARK    1  A    between atoms: O_3  and  C_16
REMARK    2  A    between atoms: O_4  and  C_18
REMARK    3  A    between atoms: O_4  and  C_22
REMARK    4  A    between atoms: N_5  and  C_7
REMARK    5  A    between atoms: N_5  and  C_11
REMARK    6  A    between atoms: C_7  and  C_10
REMARK    7  A    between atoms: C_10  and  C_12
REMARK    8  A    between atoms: C_11  and  C_13
REMARK    9  A    between atoms: C_15  and  C_18
REMARK                            x       y       z     vdW  Elec       q    Type
REMARK                         _______ _______ _______ _____ _____    ______ ____
ROOT
ATOM      1  O   UNL     1      -2.898  -3.520  24.430  0.00  0.00    -0.376 OA
ATOM      7  C   UNL     1      -2.812  -1.451  24.950  0.00  0.00    +0.072 C 
ATOM      8  C   UNL     1      -2.033  -2.420  24.065  0.00  0.00    +0.184 C 
ATOM      9  C   UNL     1      -3.620  -2.678  25.357  0.00  0.00    +0.184 C 
ENDROOT
BRANCH   7   5
ATOM      5  N   UNL     1      -3.644  -0.600  24.096  0.00  0.00    -0.302 NA
ATOM     28  H   UNL     1      -4.097  -1.080  23.318  0.00  0.00    +0.123 HD
BRANCH   5  11
ATOM     11  C   UNL     1      -4.653   0.067  24.918  0.00  0.00    +0.120 C 
BRANCH  11  13
ATOM     13  C   UNL     1      -4.569   1.554  24.825  0.00  0.00    +0.008 A 
ATOM     16  C   UNL     1      -5.426   2.366  25.568  0.00  0.00    +0.121 A 
ATOM     17  C   UNL     1      -3.619   2.131  23.982  0.00  0.00    +0.008 A 
ATOM     19  C   UNL     1      -5.333   3.754  25.470  0.00  0.00    +0.046 A 
ATOM     20  C   UNL     1      -3.526   3.520  23.882  0.00  0.00    +0.001 A 
ATOM     21  C   UNL     1      -4.383   4.331  24.626  0.00  0.00    +0.004 A 
BRANCH  16   3
ATOM      3  O   UNL     1      -6.359   1.818  26.397  0.00  0.00    -0.506 OA
ATOM     29  H   UNL     1      -6.131   2.032  27.318  0.00  0.00    +0.292 HD
ENDBRANCH  16   3
ENDBRANCH  11  13
ENDBRANCH   5  11
ENDBRANCH   7   5
BRANCH   7  10
ATOM     10  C   UNL     1      -2.078  -0.681  26.004  0.00  0.00    +0.085 C 
BRANCH  10  12
ATOM      2  O   UNL     1       0.139   2.025  25.100  0.00  0.00    -0.356 OA
ATOM      6  N   UNL     1      -0.848   1.457  25.896  0.00  0.00    -0.083 NA
ATOM     12  C   UNL     1      -1.053   0.242  25.379  0.00  0.00    +0.086 A 
ATOM     14  C   UNL     1      -0.231  -0.010  24.267  0.00  0.00    +0.074 A 
ATOM     15  C   UNL     1       0.498   1.142  24.133  0.00  0.00    +0.175 A 
BRANCH  15  18
ATOM     18  C   UNL     1       1.538   1.584  23.195  0.00  0.00    +0.306 C 
BRANCH  18   4
ATOM      4  O   UNL     1       2.133   0.457  22.547  0.00  0.00    -0.484 OA
BRANCH   4  22
ATOM     22  C   UNL     1       3.348   0.051  23.024  0.00  0.00    +0.121 A 
ATOM     23  C   UNL     1       4.426   0.936  23.028  0.00  0.00    +0.045 A 
ATOM     24  C   UNL     1       3.509  -1.248  23.507  0.00  0.00    +0.045 A 
ATOM     25  C   UNL     1       5.666   0.523  23.514  0.00  0.00    +0.004 A 
ATOM     26  C   UNL     1       4.749  -1.660  23.994  0.00  0.00    +0.004 A 
ATOM     27  C   UNL     1       5.827  -0.776  23.997  0.00  0.00    +0.000 A 
ENDBRANCH   4  22
ENDBRANCH  18   4
ENDBRANCH  15  18
ENDBRANCH  10  12
ENDBRANCH   7  10
TORSDOF 9
ENDMDL
MODEL 3
REMARK VINA RESULT:      -4.7      2.014      7.052
REMARK  Name = 56775665
REMARK  9 active torsions:
REMARK  status: ('A' for Active; 'I' for Inactive)
REMARK    1  A    between atoms: O_3  and  C_16
REMARK    2  A    between atoms: O_4  and  C_18
REMARK    3  A    between atoms: O_4  and  C_22
REMARK    4  A    between atoms: N_5  and  C_7
REMARK    5  A    between atoms: N_5  and  C_11
REMARK    6  A    between atoms: C_7  and  C_10
REMARK    7  A    between atoms: C_10  and  C_12
REMARK    8  A    between atoms: C_11  and  C_13
REMARK    9  A    between atoms: C_15  and  C_18
REMARK                            x       y       z     vdW  Elec       q    Type
REMARK                         _______ _______ _______ _____ _____    ______ ____
ROOT
ATOM      1  O   UNL     1       2.606   0.074  21.571  0.00  0.00    -0.376 OA
ATOM      7  C   UNL     1       1.141  -0.186  23.101  0.00  0.00    +0.072 C 
ATOM      8  C   UNL     1       2.578   0.313  22.997  0.00  0.00    +0.184 C 
ATOM      9  C   UNL     1       1.279  -0.498  21.615  0.00  0.00    +0.184 C 
ENDROOT
BRANCH   7   5
ATOM      5  N   UNL     1       0.252   0.968  23.260  0.00  0.00    -0.302 NA
ATOM     28  H   UNL     1      -0.679   0.751  23.613  0.00  0.00    +0.123 HD
BRANCH   5  11
ATOM     11  C   UNL     1       0.893   1.952  24.133  0.00  0.00    +0.120 C 
BRANCH  11  13
ATOM     13  C   UNL     1      -0.086   2.913  24.720  0.00  0.00    +0.008 A 
ATOM     16  C   UNL     1      -0.801   2.587  25.873  0.00  0.00    +0.121 A 
ATOM     17  C   UNL     1      -0.283   4.148  24.104  0.00  0.00    +0.008 A 
ATOM     19  C   UNL     1      -1.713   3.496  26.409  0.00  0.00    +0.046 A 
ATOM     20  C   UNL     1      -1.195   5.058  24.639  0.00  0.00    +0.001 A 
ATOM     21  C   UNL     1      -1.910   4.732  25.792  0.00  0.00    +0.004 A 
BRANCH  16   3
ATOM      3  O   UNL     1      -0.621   1.385  26.488  0.00  0.00    -0.506 OA
ATOM     29  H   UNL     1       0.326   1.259  26.669  0.00  0.00    +0.292 HD
ENDBRANCH  16   3
ENDBRANCH  11  13
ENDBRANCH   5  11
ENDBRANCH   7   5
BRANCH   7  10
ATOM     10  C   UNL     1       0.827  -1.300  24.053  0.00  0.00    +0.085 C 
BRANCH  10  12
ATOM      2  O   UNL     1      -2.259  -1.055  25.915  0.00  0.00    -0.356 OA
ATOM      6  N   UNL     1      -0.873  -1.117  25.833  0.00  0.00    -0.083 NA
ATOM     12  C   UNL     1      -0.608  -1.213  24.527  0.00  0.00    +0.086 A 
ATOM     14  C   UNL     1      -1.776  -1.216  23.744  0.00  0.00    +0.074 A 
ATOM     15  C   UNL     1      -2.786  -1.116  24.665  0.00  0.00    +0.175 A 
BRANCH  15  18
ATOM     18  C   UNL     1      -4.250  -1.063  24.567  0.00  0.00    +0.306 C 
BRANCH  18   4
ATOM      4  O   UNL     1      -4.774  -0.099  25.482  0.00  0.00    -0.484 OA
BRANCH   4  22
ATOM     22  C   UNL     1      -4.732   1.208  25.081  0.00  0.00    +0.121 A 
ATOM     23  C   UNL     1      -3.963   1.573  23.977  0.00  0.00    +0.045 A 
ATOM     24  C   UNL     1      -5.458   2.174  25.777  0.00  0.00    +0.045 A 
ATOM     25  C   UNL     1      -3.919   2.905  23.567  0.00  0.00    +0.004 A 
ATOM     26  C   UNL     1      -5.414   3.507  25.367  0.00  0.00    +0.004 A 
ATOM     27  C   UNL     1      -4.644   3.873  24.263  0.00  0.00    +0.000 A 
ENDBRANCH   4  22
ENDBRANCH  18   4
ENDBRANCH  15  18
ENDBRANCH  10  12
ENDBRANCH   7  10
TORSDOF 9
ENDMDL
MODEL 4
REMARK VINA RESULT:      -4.4      1.789      2.247
REMARK  Name = 56775665
REMARK  9 active torsions:
REMARK  status: ('A' for Active; 'I' for Inactive)
REMARK    1  A    between atoms: O_3  and  C_16
REMARK    2  A    between atoms: O_4  and  C_18
REMARK    3  A    between atoms: O_4  and  C_22
REMARK    4  A    between atoms: N_5  and  C_7
REMARK    5  A    between atoms: N_5  and  C_11
REMARK    6  A    between atoms: C_7  and  C_10
REMARK    7  A    between atoms: C_10  and  C_12
REMARK    8  A    between atoms: C_11  and  C_13
REMARK    9  A    between atoms: C_15  and  C_18
REMARK                            x       y       z     vdW  Elec       q    Type
REMARK                         _______ _______ _______ _____ _____    ______ ____
ROOT
ATOM      1  O   UNL     1      -2.362   5.691  25.757  0.00  0.00    -0.376 OA
ATOM      7  C   UNL     1      -1.880   3.627  25.508  0.00  0.00    +0.072 C 
ATOM      8  C   UNL     1      -2.830   4.463  26.358  0.00  0.00    +0.184 C 
ATOM      9  C   UNL     1      -1.373   4.968  24.990  0.00  0.00    +0.184 C 
ENDROOT
BRANCH   7   5
ATOM      5  N   UNL     1      -2.650   2.972  24.447  0.00  0.00    -0.302 NA
ATOM     28  H   UNL     1      -2.119   2.329  23.862  0.00  0.00    +0.123 HD
BRANCH   5  11
ATOM     11  C   UNL     1      -3.790   2.274  25.042  0.00  0.00    +0.120 C 
BRANCH  11  13
ATOM     13  C   UNL     1      -3.738   0.800  24.807  0.00  0.00    +0.008 A 
ATOM     16  C   UNL     1      -3.454   0.290  23.541  0.00  0.00    +0.121 A 
ATOM     17  C   UNL     1      -3.976  -0.068  25.872  0.00  0.00    +0.008 A 
ATOM     19  C   UNL     1      -3.408  -1.090  23.339  0.00  0.00    +0.046 A 
ATOM     20  C   UNL     1      -3.932  -1.448  25.671  0.00  0.00    +0.001 A 
ATOM     21  C   UNL     1      -3.647  -1.959  24.404  0.00  0.00    +0.004 A 
BRANCH  16   3
ATOM      3  O   UNL     1      -3.218   1.124  22.490  0.00  0.00    -0.506 OA
ATOM     29  H   UNL     1      -2.786   0.623  21.777  0.00  0.00    +0.292 HD
ENDBRANCH  16   3
ENDBRANCH  11  13
ENDBRANCH   5  11
ENDBRANCH   7   5
BRANCH   7  10
ATOM     10  C   UNL     1      -0.920   2.700  26.189  0.00  0.00    +0.085 C 
BRANCH  10  12
ATOM      2  O   UNL     1      -0.092  -0.359  24.454  0.00  0.00    -0.356 OA
ATOM      6  N   UNL     1      -0.647   0.340  25.520  0.00  0.00    -0.083 NA
ATOM     12  C   UNL     1      -0.438   1.628  25.235  0.00  0.00    +0.086 A 
ATOM     14  C   UNL     1       0.237   1.802  24.014  0.00  0.00    +0.074 A 
ATOM     15  C   UNL     1       0.432   0.523  23.564  0.00  0.00    +0.175 A 
BRANCH  15  18
ATOM     18  C   UNL     1       1.064  -0.049  22.369  0.00  0.00    +0.306 C 
BRANCH  18   4
ATOM      4  O   UNL     1       2.015  -1.049  22.741  0.00  0.00    -0.484 OA
BRANCH   4  22
ATOM     22  C   UNL     1       3.257  -0.605  23.101  0.00  0.00    +0.121 A 
ATOM     23  C   UNL     1       4.110  -1.435  23.828  0.00  0.00    +0.045 A 
ATOM     24  C   UNL     1       3.670   0.678  22.741  0.00  0.00    +0.045 A 
ATOM     25  C   UNL     1       5.377  -0.983  24.195  0.00  0.00    +0.004 A 
ATOM     26  C   UNL     1       4.938   1.129  23.109  0.00  0.00    +0.004 A 
ATOM     27  C   UNL     1       5.791   0.300  23.836  0.00  0.00    +0.000 A 
ENDBRANCH   4  22
ENDBRANCH  18   4
ENDBRANCH  15  18
ENDBRANCH  10  12
ENDBRANCH   7  10
TORSDOF 9
ENDMDL
MODEL 5
REMARK VINA RESULT:      -3.7      1.921      6.290
REMARK  Name = 56775665
REMARK  9 active torsions:
REMARK  status: ('A' for Active; 'I' for Inactive)
REMARK    1  A    between atoms: O_3  and  C_16
REMARK    2  A    between atoms: O_4  and  C_18
REMARK    3  A    between atoms: O_4  and  C_22
REMARK    4  A    between atoms: N_5  and  C_7
REMARK    5  A    between atoms: N_5  and  C_11
REMARK    6  A    between atoms: C_7  and  C_10
REMARK    7  A    between atoms: C_10  and  C_12
REMARK    8  A    between atoms: C_11  and  C_13
REMARK    9  A    between atoms: C_15  and  C_18
REMARK                            x       y       z     vdW  Elec       q    Type
REMARK                         _______ _______ _______ _____ _____    ______ ____
ROOT
ATOM      1  O   UNL     1       1.313  -0.681  21.665  0.00  0.00    -0.376 OA
ATOM      7  C   UNL     1       1.136   0.566  23.389  0.00  0.00    +0.072 C 
ATOM      8  C   UNL     1       0.280   0.187  22.185  0.00  0.00    +0.184 C 
ATOM      9  C   UNL     1       2.210  -0.292  22.730  0.00  0.00    +0.184 C 
ENDROOT
BRANCH   7   5
ATOM      5  N   UNL     1       0.627  -0.139  24.568  0.00  0.00    -0.302 NA
ATOM     28  H   UNL     1      -0.070   0.372  25.109  0.00  0.00    +0.123 HD
BRANCH   5  11
ATOM     11  C   UNL     1       0.081  -1.433  24.157  0.00  0.00    +0.120 C 
BRANCH  11  13
ATOM     13  C   UNL     1      -1.312  -1.643  24.648  0.00  0.00    +0.008 A 
ATOM     16  C   UNL     1      -1.769  -0.997  25.797  0.00  0.00    +0.121 A 
ATOM     17  C   UNL     1      -2.161  -2.498  23.945  0.00  0.00    +0.008 A 
ATOM     19  C   UNL     1      -3.074  -1.204  26.242  0.00  0.00    +0.046 A 
ATOM     20  C   UNL     1      -3.467  -2.707  24.390  0.00  0.00    +0.001 A 
ATOM     21  C   UNL     1      -3.923  -2.059  25.539  0.00  0.00    +0.004 A 
BRANCH  16   3
ATOM      3  O   UNL     1      -0.953  -0.159  26.496  0.00  0.00    -0.506 OA
ATOM     29  H   UNL     1      -1.375   0.715  26.561  0.00  0.00    +0.292 HD
ENDBRANCH  16   3
ENDBRANCH  11  13
ENDBRANCH   5  11
ENDBRANCH   7   5
BRANCH   7  10
ATOM     10  C   UNL     1       1.420   2.013  23.651  0.00  0.00    +0.085 C 
BRANCH  10  12
ATOM      2  O   UNL     1      -0.782   2.982  26.346  0.00  0.00    -0.356 OA
ATOM      6  N   UNL     1       0.279   2.250  25.827  0.00  0.00    -0.083 NA
ATOM     12  C   UNL     1       0.357   2.616  24.545  0.00  0.00    +0.086 A 
ATOM     14  C   UNL     1      -0.619   3.567  24.201  0.00  0.00    +0.074 A 
ATOM     15  C   UNL     1      -1.309   3.762  25.368  0.00  0.00    +0.175 A 
BRANCH  15  18
ATOM     18  C   UNL     1      -2.448   4.608  25.747  0.00  0.00    +0.306 C 
BRANCH  18   4
ATOM      4  O   UNL     1      -3.507   4.468  24.796  0.00  0.00    -0.484 OA
BRANCH   4  22
ATOM     22  C   UNL     1      -4.252   3.325  24.877  0.00  0.00    +0.121 A 
ATOM     23  C   UNL     1      -5.362   3.276  25.721  0.00  0.00    +0.045 A 
ATOM     24  C   UNL     1      -3.904   2.210  24.115  0.00  0.00    +0.045 A 
ATOM     25  C   UNL     1      -6.123   2.110  25.804  0.00  0.00    +0.004 A 
ATOM     26  C   UNL     1      -4.665   1.045  24.199  0.00  0.00    +0.004 A 
ATOM     27  C   UNL     1      -5.775   0.994  25.043  0.00  0.00    +0.000 A 
ENDBRANCH   4  22
ENDBRANCH  18   4
ENDBRANCH  15  18
ENDBRANCH  10  12
ENDBRANCH   7  10
TORSDOF 9
ENDMDL
MODEL 6
REMARK VINA RESULT:      -3.6      2.636      5.544
REMARK  Name = 56775665
REMARK  9 active torsions:
REMARK  status: ('A' for Active; 'I' for Inactive)
REMARK    1  A    between atoms: O_3  and  C_16
REMARK    2  A    between atoms: O_4  and  C_18
REMARK    3  A    between atoms: O_4  and  C_22
REMARK    4  A    between atoms: N_5  and  C_7
REMARK    5  A    between atoms: N_5  and  C_11
REMARK    6  A    between atoms: C_7  and  C_10
REMARK    7  A    between atoms: C_10  and  C_12
REMARK    8  A    between atoms: C_11  and  C_13
REMARK    9  A    between atoms: C_15  and  C_18
REMARK                            x       y       z     vdW  Elec       q    Type
REMARK                         _______ _______ _______ _____ _____    ______ ____
ROOT
ATOM      1  O   UNL     1      -4.438  -3.044  23.896  0.00  0.00    -0.376 OA
ATOM      7  C   UNL     1      -2.724  -2.118  24.768  0.00  0.00    +0.072 C 
ATOM      8  C   UNL     1      -3.544  -1.983  23.489  0.00  0.00    +0.184 C 
ATOM      9  C   UNL     1      -3.649  -3.288  25.083  0.00  0.00    +0.184 C 
ENDROOT
BRANCH   7   5
ATOM      5  N   UNL     1      -3.053  -1.002  25.658  0.00  0.00    -0.302 NA
ATOM     28  H   UNL     1      -2.372  -0.244  25.670  0.00  0.00    +0.123 HD
BRANCH   5  11
ATOM     11  C   UNL     1      -4.371  -0.476  25.302  0.00  0.00    +0.120 C 
BRANCH  11  13
ATOM     13  C   UNL     1      -4.290   0.861  24.643  0.00  0.00    +0.008 A 
ATOM     16  C   UNL     1      -5.189   1.875  24.974  0.00  0.00    +0.121 A 
ATOM     17  C   UNL     1      -3.301   1.090  23.686  0.00  0.00    +0.008 A 
ATOM     19  C   UNL     1      -5.098   3.118  24.348  0.00  0.00    +0.046 A 
ATOM     20  C   UNL     1      -3.211   2.333  23.060  0.00  0.00    +0.001 A 
ATOM     21  C   UNL     1      -4.109   3.348  23.392  0.00  0.00    +0.004 A 
BRANCH  16   3
ATOM      3  O   UNL     1      -6.161   1.668  25.906  0.00  0.00    -0.506 OA
ATOM     29  H   UNL     1      -5.773   1.214  26.674  0.00  0.00    +0.292 HD
ENDBRANCH  16   3
ENDBRANCH  11  13
ENDBRANCH   5  11
ENDBRANCH   7   5
BRANCH   7  10
ATOM     10  C   UNL     1      -1.250  -2.365  24.662  0.00  0.00    +0.085 C 
BRANCH  10  12
ATOM      2  O   UNL     1       0.655   0.184  22.952  0.00  0.00    -0.356 OA
ATOM      6  N   UNL     1       0.114  -1.092  23.046  0.00  0.00    -0.083 NA
ATOM     12  C   UNL     1      -0.525  -1.112  24.219  0.00  0.00    +0.086 A 
ATOM     14  C   UNL     1      -0.423   0.112  24.902  0.00  0.00    +0.074 A 
ATOM     15  C   UNL     1       0.329   0.892  24.064  0.00  0.00    +0.175 A 
BRANCH  15  18
ATOM     18  C   UNL     1       0.825   2.272  24.132  0.00  0.00    +0.306 C 
BRANCH  18   4
ATOM      4  O   UNL     1       0.580   2.825  25.427  0.00  0.00    -0.484 OA
BRANCH   4  22
ATOM     22  C   UNL     1      -0.524   3.622  25.552  0.00  0.00    +0.121 A 
ATOM     23  C   UNL     1      -1.570   3.236  26.390  0.00  0.00    +0.045 A 
ATOM     24  C   UNL     1      -0.603   4.820  24.842  0.00  0.00    +0.045 A 
ATOM     25  C   UNL     1      -2.696   4.049  26.518  0.00  0.00    +0.004 A 
ATOM     26  C   UNL     1      -1.729   5.632  24.971  0.00  0.00    +0.004 A 
ATOM     27  C   UNL     1      -2.776   5.247  25.808  0.00  0.00    +0.000 A 
ENDBRANCH   4  22
ENDBRANCH  18   4
ENDBRANCH  15  18
ENDBRANCH  10  12
ENDBRANCH   7  10
TORSDOF 9
ENDMDL
MODEL 7
REMARK VINA RESULT:      -3.5      1.769      2.611
REMARK  Name = 56775665
REMARK  9 active torsions:
REMARK  status: ('A' for Active; 'I' for Inactive)
REMARK    1  A    between atoms: O_3  and  C_16
REMARK    2  A    between atoms: O_4  and  C_18
REMARK    3  A    between atoms: O_4  and  C_22
REMARK    4  A    between atoms: N_5  and  C_7
REMARK    5  A    between atoms: N_5  and  C_11
REMARK    6  A    between atoms: C_7  and  C_10
REMARK    7  A    between atoms: C_10  and  C_12
REMARK    8  A    between atoms: C_11  and  C_13
REMARK    9  A    between atoms: C_15  and  C_18
REMARK                            x       y       z     vdW  Elec       q    Type
REMARK                         _______ _______ _______ _____ _____    ______ ____
ROOT
ATOM      1  O   UNL     1      -7.089   1.955  26.178  0.00  0.00    -0.376 OA
ATOM      7  C   UNL     1      -5.186   2.209  25.246  0.00  0.00    +0.072 C 
ATOM      8  C   UNL     1      -5.886   2.681  26.516  0.00  0.00    +0.184 C 
ATOM      9  C   UNL     1      -6.519   1.548  24.913  0.00  0.00    +0.184 C 
ENDROOT
BRANCH   7   5
ATOM      5  N   UNL     1      -4.219   1.167  25.602  0.00  0.00    -0.302 NA
ATOM     28  H   UNL     1      -4.338   0.768  26.532  0.00  0.00    +0.123 HD
BRANCH   5  11
ATOM     11  C   UNL     1      -4.266   0.104  24.598  0.00  0.00    +0.120 C 
BRANCH  11  13
ATOM     13  C   UNL     1      -3.121  -0.845  24.724  0.00  0.00    +0.008 A 
ATOM     16  C   UNL     1      -3.218  -2.148  24.235  0.00  0.00    +0.121 A 
ATOM     17  C   UNL     1      -1.944  -0.417  25.339  0.00  0.00    +0.008 A 
ATOM     19  C   UNL     1      -2.139  -3.023  24.360  0.00  0.00    +0.046 A 
ATOM     20  C   UNL     1      -0.865  -1.292  25.465  0.00  0.00    +0.001 A 
ATOM     21  C   UNL     1      -0.962  -2.594  24.975  0.00  0.00    +0.004 A 
BRANCH  16   3
ATOM      3  O   UNL     1      -4.360  -2.583  23.631  0.00  0.00    -0.506 OA
ATOM     29  H   UNL     1      -4.308  -2.394  22.679  0.00  0.00    +0.292 HD
ENDBRANCH  16   3
ENDBRANCH  11  13
ENDBRANCH   5  11
ENDBRANCH   7   5
BRANCH   7  10
ATOM     10  C   UNL     1      -4.625   3.229  24.304  0.00  0.00    +0.085 C 
BRANCH  10  12
ATOM      2  O   UNL     1      -1.356   4.211  25.490  0.00  0.00    -0.356 OA
ATOM      6  N   UNL     1      -2.745   4.253  25.533  0.00  0.00    -0.083 NA
ATOM     12  C   UNL     1      -3.146   3.436  24.555  0.00  0.00    +0.086 A 
ATOM     14  C   UNL     1      -2.066   2.856  23.868  0.00  0.00    +0.074 A 
ATOM     15  C   UNL     1      -0.964   3.376  24.494  0.00  0.00    +0.175 A 
BRANCH  15  18
ATOM     18  C   UNL     1       0.483   3.213  24.306  0.00  0.00    +0.306 C 
BRANCH  18   4
ATOM      4  O   UNL     1       0.880   1.881  24.638  0.00  0.00    -0.484 OA
BRANCH   4  22
ATOM     22  C   UNL     1       1.450   1.147  23.636  0.00  0.00    +0.121 A 
ATOM     23  C   UNL     1       0.678   0.240  22.912  0.00  0.00    +0.045 A 
ATOM     24  C   UNL     1       2.804   1.306  23.338  0.00  0.00    +0.045 A 
ATOM     25  C   UNL     1       1.259  -0.510  21.889  0.00  0.00    +0.004 A 
ATOM     26  C   UNL     1       3.384   0.557  22.315  0.00  0.00    +0.004 A 
ATOM     27  C   UNL     1       2.612  -0.351  21.590  0.00  0.00    +0.000 A 
ENDBRANCH   4  22
ENDBRANCH  18   4
ENDBRANCH  15  18
ENDBRANCH  10  12
ENDBRANCH   7  10
TORSDOF 9
ENDMDL
MODEL 8
REMARK VINA RESULT:      -3.3      1.747      3.833
REMARK  Name = 56775665
REMARK  9 active torsions:
REMARK  status: ('A' for Active; 'I' for Inactive)
REMARK    1  A    between atoms: O_3  and  C_16
REMARK    2  A    between atoms: O_4  and  C_18
REMARK    3  A    between atoms: O_4  and  C_22
REMARK    4  A    between atoms: N_5  and  C_7
REMARK    5  A    between atoms: N_5  and  C_11
REMARK    6  A    between atoms: C_7  and  C_10
REMARK    7  A    between atoms: C_10  and  C_12
REMARK    8  A    between atoms: C_11  and  C_13
REMARK    9  A    between atoms: C_15  and  C_18
REMARK                            x       y       z     vdW  Elec       q    Type
REMARK                         _______ _______ _______ _____ _____    ______ ____
ROOT
ATOM      1  O   UNL     1      -4.123  -2.074  23.801  0.00  0.00    -0.376 OA
ATOM      7  C   UNL     1      -3.671  -0.506  25.176  0.00  0.00    +0.072 C 
ATOM      8  C   UNL     1      -3.646  -0.716  23.666  0.00  0.00    +0.184 C 
ATOM      9  C   UNL     1      -4.080  -1.973  25.243  0.00  0.00    +0.184 C 
ENDROOT
BRANCH   7   5
ATOM      5  N   UNL     1      -4.830   0.324  25.516  0.00  0.00    -0.302 NA
ATOM     28  H   UNL     1      -4.829   0.699  26.464  0.00  0.00    +0.123 HD
BRANCH   5  11
ATOM     11  C   UNL     1      -4.937   1.419  24.552  0.00  0.00    +0.120 C 
BRANCH  11  13
ATOM     13  C   UNL     1      -4.009   2.545  24.866  0.00  0.00    +0.008 A 
ATOM     16  C   UNL     1      -3.102   3.008  23.912  0.00  0.00    +0.121 A 
ATOM     17  C   UNL     1      -4.054   3.134  26.130  0.00  0.00    +0.008 A 
ATOM     19  C   UNL     1      -2.242   4.061  24.222  0.00  0.00    +0.046 A 
ATOM     20  C   UNL     1      -3.193   4.186  26.440  0.00  0.00    +0.001 A 
ATOM     21  C   UNL     1      -2.287   4.650  25.486  0.00  0.00    +0.004 A 
BRANCH  16   3
ATOM      3  O   UNL     1      -3.045   2.444  22.673  0.00  0.00    -0.506 OA
ATOM     29  H   UNL     1      -2.295   1.826  22.640  0.00  0.00    +0.292 HD
ENDBRANCH  16   3
ENDBRANCH  11  13
ENDBRANCH   5  11
ENDBRANCH   7   5
BRANCH   7  10
ATOM     10  C   UNL     1      -2.416  -0.068  25.868  0.00  0.00    +0.085 C 
BRANCH  10  12
ATOM      2  O   UNL     1       0.480  -1.153  24.001  0.00  0.00    -0.356 OA
ATOM      6  N   UNL     1      -0.530  -1.357  24.933  0.00  0.00    -0.083 NA
ATOM     12  C   UNL     1      -1.219  -0.212  24.953  0.00  0.00    +0.086 A 
ATOM     14  C   UNL     1      -0.695   0.741  24.062  0.00  0.00    +0.074 A 
ATOM     15  C   UNL     1       0.371   0.100  23.490  0.00  0.00    +0.175 A 
BRANCH  15  18
ATOM     18  C   UNL     1       1.368   0.486  22.483  0.00  0.00    +0.306 C 
BRANCH  18   4
ATOM      4  O   UNL     1       2.320  -0.564  22.299  0.00  0.00    -0.484 OA
BRANCH   4  22
ATOM     22  C   UNL     1       3.523  -0.414  22.931  0.00  0.00    +0.121 A 
ATOM     23  C   UNL     1       4.078  -1.483  23.632  0.00  0.00    +0.045 A 
ATOM     24  C   UNL     1       4.194   0.807  22.872  0.00  0.00    +0.045 A 
ATOM     25  C   UNL     1       5.306  -1.332  24.277  0.00  0.00    +0.004 A 
ATOM     26  C   UNL     1       5.421   0.959  23.517  0.00  0.00    +0.004 A 
ATOM     27  C   UNL     1       5.977  -0.110  24.220  0.00  0.00    +0.000 A 
ENDBRANCH   4  22
ENDBRANCH  18   4
ENDBRANCH  15  18
ENDBRANCH  10  12
ENDBRANCH   7  10
TORSDOF 9
ENDMDL
MODEL 9
REMARK VINA RESULT:      -2.5      1.967      5.963
REMARK  Name = 56775665
REMARK  9 active torsions:
REMARK  status: ('A' for Active; 'I' for Inactive)
REMARK    1  A    between atoms: O_3  and  C_16
REMARK    2  A    between atoms: O_4  and  C_18
REMARK    3  A    between atoms: O_4  and  C_22
REMARK    4  A    between atoms: N_5  and  C_7
REMARK    5  A    between atoms: N_5  and  C_11
REMARK    6  A    between atoms: C_7  and  C_10
REMARK    7  A    between atoms: C_10  and  C_12
REMARK    8  A    between atoms: C_11  and  C_13
REMARK    9  A    between atoms: C_15  and  C_18
REMARK                            x       y       z     vdW  Elec       q    Type
REMARK                         _______ _______ _______ _____ _____    ______ ____
ROOT
ATOM      1  O   UNL     1      -3.594  -2.795  25.773  0.00  0.00    -0.376 OA
ATOM      7  C   UNL     1      -2.736  -1.419  24.385  0.00  0.00    +0.072 C 
ATOM      8  C   UNL     1      -3.443  -1.357  25.735  0.00  0.00    +0.184 C 
ATOM      9  C   UNL     1      -3.017  -2.916  24.453  0.00  0.00    +0.184 C 
ENDROOT
BRANCH   7   5
ATOM      5  N   UNL     1      -1.303  -1.197  24.594  0.00  0.00    -0.302 NA
ATOM     28  H   UNL     1      -0.691  -1.871  24.136  0.00  0.00    +0.123 HD
BRANCH   5  11
ATOM     11  C   UNL     1      -0.958   0.157  24.161  0.00  0.00    +0.120 C 
BRANCH  11  13
ATOM     13  C   UNL     1       0.346   0.205  23.435  0.00  0.00    +0.008 A 
ATOM     16  C   UNL     1       1.380   1.029  23.880  0.00  0.00    +0.121 A 
ATOM     17  C   UNL     1       0.523  -0.585  22.299  0.00  0.00    +0.008 A 
ATOM     19  C   UNL     1       2.592   1.062  23.190  0.00  0.00    +0.046 A 
ATOM     20  C   UNL     1       1.734  -0.551  21.608  0.00  0.00    +0.001 A 
ATOM     21  C   UNL     1       2.769   0.272  22.054  0.00  0.00    +0.004 A 
BRANCH  16   3
ATOM      3  O   UNL     1       1.224   1.806  24.988  0.00  0.00    -0.506 OA
ATOM     29  H   UNL     1       1.099   1.233  25.764  0.00  0.00    +0.292 HD
ENDBRANCH  16   3
ENDBRANCH  11  13
ENDBRANCH   5  11
ENDBRANCH   7   5
BRANCH   7  10
ATOM     10  C   UNL     1      -3.289  -0.626  23.240  0.00  0.00    +0.085 C 
BRANCH  10  12
ATOM      2  O   UNL     1      -4.026   2.885  23.663  0.00  0.00    -0.356 OA
ATOM      6  N   UNL     1      -3.472   1.820  22.963  0.00  0.00    -0.083 NA
ATOM     12  C   UNL     1      -3.745   0.741  23.703  0.00  0.00    +0.086 A 
ATOM     14  C   UNL     1      -4.461   1.061  24.869  0.00  0.00    +0.074 A 
ATOM     15  C   UNL     1      -4.611   2.421  24.797  0.00  0.00    +0.175 A 
BRANCH  15  18
ATOM     18  C   UNL     1      -5.249   3.421  25.662  0.00  0.00    +0.306 C 
BRANCH  18   4
ATOM      4  O   UNL     1      -4.286   3.996  26.549  0.00  0.00    -0.484 OA
BRANCH   4  22
ATOM     22  C   UNL     1      -3.035   4.203  26.040  0.00  0.00    +0.121 A 
ATOM     23  C   UNL     1      -2.048   3.230  26.199  0.00  0.00    +0.045 A 
ATOM     24  C   UNL     1      -2.745   5.386  25.360  0.00  0.00    +0.045 A 
ATOM     25  C   UNL     1      -0.771   3.440  25.679  0.00  0.00    +0.004 A 
ATOM     26  C   UNL     1      -1.468   5.596  24.841  0.00  0.00    +0.004 A 
ATOM     27  C   UNL     1      -0.481   4.624  25.000  0.00  0.00    +0.000 A 
ENDBRANCH   4  22
ENDBRANCH  18   4
ENDBRANCH  15  18
ENDBRANCH  10  12
ENDBRANCH   7  10
TORSDOF 9
ENDMDL
MODEL 10
REMARK VINA RESULT:      -2.2      1.644      3.526
REMARK  Name = 56775665
REMARK  9 active torsions:
REMARK  status: ('A' for Active; 'I' for Inactive)
REMARK    1  A    between atoms: O_3  and  C_16
REMARK    2  A    between atoms: O_4  and  C_18
REMARK    3  A    between atoms: O_4  and  C_22
REMARK    4  A    between atoms: N_5  and  C_7
REMARK    5  A    between atoms: N_5  and  C_11
REMARK    6  A    between atoms: C_7  and  C_10
REMARK    7  A    between atoms: C_10  and  C_12
REMARK    8  A    between atoms: C_11  and  C_13
REMARK    9  A    between atoms: C_15  and  C_18
REMARK                            x       y       z     vdW  Elec       q    Type
REMARK                         _______ _______ _______ _____ _____    ______ ____
ROOT
ATOM      1  O   UNL     1      -6.487   2.363  25.682  0.00  0.00    -0.376 OA
ATOM      7  C   UNL     1      -5.006   1.189  24.689  0.00  0.00    +0.072 C 
ATOM      8  C   UNL     1      -6.454   1.607  24.450  0.00  0.00    +0.184 C 
ATOM      9  C   UNL     1      -5.149   1.928  26.015  0.00  0.00    +0.184 C 
ENDROOT
BRANCH   7   5
ATOM      5  N   UNL     1      -4.140   1.971  23.803  0.00  0.00    -0.302 NA
ATOM     28  H   UNL     1      -4.572   2.273  22.931  0.00  0.00    +0.123 HD
BRANCH   5  11
ATOM     11  C   UNL     1      -3.633   3.135  24.531  0.00  0.00    +0.120 C 
BRANCH  11  13
ATOM     13  C   UNL     1      -2.199   2.982  24.918  0.00  0.00    +0.008 A 
ATOM     16  C   UNL     1      -1.247   2.577  23.982  0.00  0.00    +0.121 A 
ATOM     17  C   UNL     1      -1.816   3.250  26.232  0.00  0.00    +0.008 A 
ATOM     19  C   UNL     1       0.088   2.440  24.360  0.00  0.00    +0.046 A 
ATOM     20  C   UNL     1      -0.480   3.112  26.611  0.00  0.00    +0.001 A 
ATOM     21  C   UNL     1       0.472   2.707  25.675  0.00  0.00    +0.004 A 
BRANCH  16   3
ATOM      3  O   UNL     1      -1.605   2.312  22.694  0.00  0.00    -0.506 OA
ATOM     29  H   UNL     1      -1.065   2.857  22.096  0.00  0.00    +0.292 HD
ENDBRANCH  16   3
ENDBRANCH  11  13
ENDBRANCH   5  11
ENDBRANCH   7   5
BRANCH   7  10
ATOM     10  C   UNL     1      -4.664  -0.269  24.702  0.00  0.00    +0.085 C 
BRANCH  10  12
ATOM      2  O   UNL     1      -1.240  -0.473  25.837  0.00  0.00    -0.356 OA
ATOM      6  N   UNL     1      -2.584  -0.174  26.027  0.00  0.00    -0.083 NA
ATOM     12  C   UNL     1      -3.172  -0.470  24.865  0.00  0.00    +0.086 A 
ATOM     14  C   UNL     1      -2.259  -0.955  23.913  0.00  0.00    +0.074 A 
ATOM     15  C   UNL     1      -1.059  -0.937  24.574  0.00  0.00    +0.175 A 
BRANCH  15  18
ATOM     18  C   UNL     1       0.313  -1.303  24.200  0.00  0.00    +0.306 C 
BRANCH  18   4
ATOM      4  O   UNL     1       0.832  -0.373  23.247  0.00  0.00    -0.484 OA
BRANCH   4  22
ATOM     22  C   UNL     1       2.191  -0.227  23.216  0.00  0.00    +0.121 A 
ATOM     23  C   UNL     1       2.754   0.953  22.732  0.00  0.00    +0.045 A 
ATOM     24  C   UNL     1       3.014  -1.258  23.670  0.00  0.00    +0.045 A 
ATOM     25  C   UNL     1       4.140   1.103  22.700  0.00  0.00    +0.004 A 
ATOM     26  C   UNL     1       4.400  -1.109  23.638  0.00  0.00    +0.004 A 
ATOM     27  C   UNL     1       4.964   0.072  23.152  0.00  0.00    +0.000 A 
ENDBRANCH   4  22
ENDBRANCH  18   4
ENDBRANCH  15  18
ENDBRANCH  10  12
ENDBRANCH   7  10
TORSDOF 9
ENDMDL
