MODEL 1
REMARK VINA RESULT:      -0.4      0.000      0.000
REMARK  Name = 7142869
REMARK  4 active torsions:
REMARK  status: ('A' for Active; 'I' for Inactive)
REMARK    1  A    between atoms: S_1  and  N_6
REMARK    2  A    between atoms: S_1  and  C_22
REMARK    3  A    between atoms: N_8  and  C_20
REMARK    4  A    between atoms: C_27  and  C_29
REMARK                            x       y       z     vdW  Elec       q    Type
REMARK                         _______ _______ _______ _____ _____    ______ ____
ROOT
ATOM      4  O   UNL     1       0.335   2.500  26.166  0.00  0.00    -0.266 OA
ATOM      6  N   UNL     1      -4.539   2.180  25.185  0.00  0.00    -0.176 NA
ATOM      7  N   UNL     1      -1.541   3.153  24.936  0.00  0.00    -0.310 N 
ATOM     11  C   UNL     1      -3.556   4.326  25.995  0.00  0.00    +0.025 C 
ATOM     12  C   UNL     1      -3.565   3.822  23.591  0.00  0.00    +0.052 C 
ATOM     13  C   UNL     1      -3.745   4.941  24.615  0.00  0.00    +0.017 C 
ATOM     14  C   UNL     1      -4.600   3.226  26.245  0.00  0.00    +0.114 C 
ATOM     15  C   UNL     1      -4.646   2.748  23.807  0.00  0.00    +0.119 C 
ATOM     16  C   UNL     1      -2.117   3.808  26.118  0.00  0.00    +0.130 C 
ATOM     17  C   UNL     1      -2.180   3.208  23.694  0.00  0.00    +0.026 A 
ATOM     18  C   UNL     1      -1.582   2.701  22.602  0.00  0.00    +0.024 A 
ATOM     19  C   UNL     1      -0.273   2.559  25.097  0.00  0.00    +0.273 A 
ATOM     20  C   UNL     1       0.349   1.985  23.862  0.00  0.00    +0.099 A 
ATOM     21  C   UNL     1      -0.292   2.075  22.692  0.00  0.00    +0.030 A 
ENDROOT
BRANCH  20   8
ATOM      5  O   UNL     1       1.382   0.006  22.142  0.00  0.00    -0.268 OA
ATOM      8  N   UNL     1       1.571   1.390  23.978  0.00  0.00    -0.276 N 
ATOM     27  C   UNL     1       2.043   0.411  23.101  0.00  0.00    +0.268 C 
ATOM     33  H   UNL     1       2.242   1.832  24.602  0.00  0.00    +0.155 HD
BRANCH  27  29
ATOM      9  N   UNL     1       4.382   0.820  23.279  0.00  0.00    -0.247 NA
ATOM     10  N   UNL     1       4.848  -1.860  23.964  0.00  0.00    -0.259 NA
ATOM     29  C   UNL     1       3.400  -0.084  23.376  0.00  0.00    +0.144 A 
ATOM     30  C   UNL     1       3.610  -1.394  23.709  0.00  0.00    +0.143 A 
ATOM     31  C   UNL     1       5.621   0.353  23.534  0.00  0.00    +0.131 A 
ATOM     32  C   UNL     1       5.850  -0.963  23.870  0.00  0.00    +0.130 A 
ENDBRANCH  27  29
ENDBRANCH  20   8
BRANCH   6   1
ATOM      1  S   UNL     1      -5.468   0.773  25.478  0.00  0.00    +0.061 S 
ATOM      2  O   UNL     1      -6.509   0.675  24.476  0.00  0.00    -0.153 OA
ATOM      3  O   UNL     1      -5.785   0.703  26.889  0.00  0.00    -0.153 OA
BRANCH   1  22
ATOM     22  C   UNL     1      -4.265  -0.471  25.129  0.00  0.00    +0.105 A 
ATOM     23  C   UNL     1      -3.015  -0.390  25.721  0.00  0.00    +0.028 A 
ATOM     24  C   UNL     1      -4.590  -1.506  24.269  0.00  0.00    +0.028 A 
ATOM     25  C   UNL     1      -2.064  -1.372  25.444  0.00  0.00    +0.002 A 
ATOM     26  C   UNL     1      -3.639  -2.489  23.992  0.00  0.00    +0.002 A 
ATOM     28  C   UNL     1      -2.376  -2.422  24.580  0.00  0.00    +0.000 A 
ENDBRANCH   1  22
ENDBRANCH   6   1
TORSDOF 4
ENDMDL
