MODEL 1
REMARK VINA RESULT:      -0.1      0.000      0.000
REMARK  Name = 51137965
REMARK  6 active torsions:
REMARK  status: ('A' for Active; 'I' for Inactive)
REMARK    1  A    between atoms: N_4  and  C_26
REMARK    2  A    between atoms: C_6  and  C_10
REMARK    3  A    between atoms: C_7  and  C_13
REMARK    4  A    between atoms: C_10  and  C_14
REMARK    5  A    between atoms: C_14  and  C_23
REMARK    6  A    between atoms: C_14  and  C_24
REMARK                            x       y       z     vdW  Elec       q    Type
REMARK                         _______ _______ _______ _____ _____    ______ ____
ROOT
ATOM      2  N   UNL     1      -0.830   1.746  23.486  0.00  0.00    -0.299 NA
ATOM      5  N   UNL     1      -2.189  -3.023  24.446  0.00  0.00    -0.360 N 
ATOM      6  C   UNL     1      -2.006   1.836  24.362  0.00  0.00    +0.085 C 
ATOM      7  C   UNL     1       0.273   0.966  24.029  0.00  0.00    +0.145 C 
ATOM      8  C   UNL     1       0.261  -0.467  23.501  0.00  0.00    +0.065 C 
ATOM      9  C   UNL     1      -2.726   0.514  24.653  0.00  0.00    -0.021 A 
ATOM     11  C   UNL     1      -2.178  -0.783  24.440  0.00  0.00    +0.008 A 
ATOM     12  C   UNL     1      -0.914  -1.267  23.952  0.00  0.00    -0.020 A 
ATOM     17  C   UNL     1      -2.938  -1.914  24.761  0.00  0.00    +0.047 A 
ATOM     20  C   UNL     1      -0.969  -2.646  23.964  0.00  0.00    +0.087 A 
ATOM     21  C   UNL     1      -4.010   0.560  25.253  0.00  0.00    +0.006 A 
ATOM     22  C   UNL     1      -4.220  -1.849  25.309  0.00  0.00    +0.026 A 
ATOM     25  C   UNL     1      -4.740  -0.586  25.562  0.00  0.00    +0.002 A 
ATOM     27  H   UNL     1      -1.092   1.417  22.558  0.00  0.00    +0.123 HD
ATOM     28  H   UNL     1      -2.492  -3.979  24.570  0.00  0.00    +0.165 HD
ENDROOT
BRANCH   7  13
ATOM      1  O   UNL     1       1.530   2.886  23.469  0.00  0.00    -0.274 OA
ATOM      3  N   UNL     1       2.594   0.836  23.219  0.00  0.00    -0.298 N 
ATOM      4  N   UNL     1       5.035  -0.663  23.275  0.00  0.00    -0.302 NA
ATOM     13  C   UNL     1       1.514   1.655  23.547  0.00  0.00    +0.233 C 
ATOM     15  C   UNL     1       2.564  -0.629  23.175  0.00  0.00    +0.123 C 
ATOM     16  C   UNL     1       3.843   1.431  22.746  0.00  0.00    +0.123 C 
ATOM     18  C   UNL     1       3.802  -1.225  23.846  0.00  0.00    +0.103 C 
ATOM     19  C   UNL     1       5.054   0.798  23.431  0.00  0.00    +0.103 C 
ATOM     26  C   UNL     1       6.213  -1.261  23.902  0.00  0.00    +0.105 C 
ENDBRANCH   7  13
BRANCH   6  10
ATOM     10  C   UNL     1      -2.922   2.869  23.680  0.00  0.00    +0.026 C 
BRANCH  10  14
ATOM     14  C   UNL     1      -3.330   4.012  24.614  0.00  0.00    -0.015 C 
ATOM     23  C   UNL     1      -4.695   3.784  25.264  0.00  0.00    +0.007 C 
ATOM     24  C   UNL     1      -2.263   4.183  25.698  0.00  0.00    +0.007 C 
ENDBRANCH  10  14
ENDBRANCH   6  10
TORSDOF 3
ENDMDL
MODEL 2
REMARK VINA RESULT:       0.2      2.168      3.991
REMARK  Name = 51137965
REMARK  6 active torsions:
REMARK  status: ('A' for Active; 'I' for Inactive)
REMARK    1  A    between atoms: N_4  and  C_26
REMARK    2  A    between atoms: C_6  and  C_10
REMARK    3  A    between atoms: C_7  and  C_13
REMARK    4  A    between atoms: C_10  and  C_14
REMARK    5  A    between atoms: C_14  and  C_23
REMARK    6  A    between atoms: C_14  and  C_24
REMARK                            x       y       z     vdW  Elec       q    Type
REMARK                         _______ _______ _______ _____ _____    ______ ____
ROOT
ATOM      2  N   UNL     1      -1.938   1.336  23.878  0.00  0.00    -0.299 NA
ATOM      5  N   UNL     1      -6.851   1.364  25.047  0.00  0.00    -0.360 N 
ATOM      6  C   UNL     1      -2.163   2.584  24.617  0.00  0.00    +0.085 C 
ATOM      7  C   UNL     1      -2.333   0.128  24.589  0.00  0.00    +0.145 C 
ATOM      8  C   UNL     1      -3.726  -0.338  24.172  0.00  0.00    +0.065 C 
ATOM      9  C   UNL     1      -3.625   2.922  24.930  0.00  0.00    -0.021 A 
ATOM     11  C   UNL     1      -4.710   2.000  24.873  0.00  0.00    +0.008 A 
ATOM     12  C   UNL     1      -4.818   0.601  24.557  0.00  0.00    -0.020 A 
ATOM     17  C   UNL     1      -6.001   2.434  25.198  0.00  0.00    +0.047 A 
ATOM     20  C   UNL     1      -6.150   0.256  24.667  0.00  0.00    +0.087 A 
ATOM     21  C   UNL     1      -3.937   4.227  25.388  0.00  0.00    +0.006 A 
ATOM     22  C   UNL     1      -6.295   3.737  25.602  0.00  0.00    +0.026 A 
ATOM     25  C   UNL     1      -5.234   4.627  25.705  0.00  0.00    +0.002 A 
ATOM     27  H   UNL     1      -2.367   1.376  22.955  0.00  0.00    +0.123 HD
ATOM     28  H   UNL     1      -7.848   1.391  25.209  0.00  0.00    +0.165 HD
ENDROOT
BRANCH   7  13
ATOM      1  O   UNL     1      -1.712  -2.053  23.930  0.00  0.00    -0.274 OA
ATOM      3  N   UNL     1       0.002  -0.498  24.129  0.00  0.00    -0.298 N 
ATOM      4  N   UNL     1       2.566   0.425  23.243  0.00  0.00    -0.302 NA
ATOM     13  C   UNL     1      -1.328  -0.910  24.189  0.00  0.00    +0.233 C 
ATOM     15  C   UNL     1       0.505   0.810  24.555  0.00  0.00    +0.123 C 
ATOM     16  C   UNL     1       1.043  -1.450  23.741  0.00  0.00    +0.123 C 
ATOM     18  C   UNL     1       1.488   1.383  23.533  0.00  0.00    +0.103 C 
ATOM     19  C   UNL     1       2.010  -0.835  22.731  0.00  0.00    +0.103 C 
ATOM     26  C   UNL     1       3.516   0.994  22.288  0.00  0.00    +0.105 C 
ENDBRANCH   7  13
BRANCH   6  10
ATOM     10  C   UNL     1      -1.476   3.670  23.768  0.00  0.00    +0.026 C 
BRANCH  10  14
ATOM     14  C   UNL     1      -0.487   4.519  24.572  0.00  0.00    -0.015 C 
ATOM     23  C   UNL     1      -1.034   5.908  24.900  0.00  0.00    +0.007 C 
ATOM     24  C   UNL     1      -0.129   3.785  25.867  0.00  0.00    +0.007 C 
ENDBRANCH  10  14
ENDBRANCH   6  10
TORSDOF 3
ENDMDL
MODEL 3
REMARK VINA RESULT:       0.6      1.704      4.330
REMARK  Name = 51137965
REMARK  6 active torsions:
REMARK  status: ('A' for Active; 'I' for Inactive)
REMARK    1  A    between atoms: N_4  and  C_26
REMARK    2  A    between atoms: C_6  and  C_10
REMARK    3  A    between atoms: C_7  and  C_13
REMARK    4  A    between atoms: C_10  and  C_14
REMARK    5  A    between atoms: C_14  and  C_23
REMARK    6  A    between atoms: C_14  and  C_24
REMARK                            x       y       z     vdW  Elec       q    Type
REMARK                         _______ _______ _______ _____ _____    ______ ____
ROOT
ATOM      2  N   UNL     1      -1.386   1.470  25.012  0.00  0.00    -0.299 NA
ATOM      5  N   UNL     1      -5.530   4.284  25.649  0.00  0.00    -0.360 N 
ATOM      6  C   UNL     1      -2.518   0.583  24.712  0.00  0.00    +0.085 C 
ATOM      7  C   UNL     1      -1.341   2.688  24.217  0.00  0.00    +0.145 C 
ATOM      8  C   UNL     1      -1.954   3.870  24.965  0.00  0.00    +0.065 C 
ATOM      9  C   UNL     1      -3.910   1.152  25.011  0.00  0.00    -0.021 A 
ATOM     11  C   UNL     1      -4.205   2.529  25.219  0.00  0.00    +0.008 A 
ATOM     12  C   UNL     1      -3.419   3.733  25.213  0.00  0.00    -0.020 A 
ATOM     17  C   UNL     1      -5.526   2.921  25.471  0.00  0.00    +0.047 A 
ATOM     20  C   UNL     1      -4.270   4.783  25.491  0.00  0.00    +0.087 A 
ATOM     21  C   UNL     1      -5.018   0.267  25.010  0.00  0.00    +0.006 A 
ATOM     22  C   UNL     1      -6.598   2.028  25.512  0.00  0.00    +0.026 A 
ATOM     25  C   UNL     1      -6.321   0.689  25.263  0.00  0.00    +0.002 A 
ATOM     27  H   UNL     1      -1.340   1.678  26.008  0.00  0.00    +0.123 HD
ATOM     28  H   UNL     1      -6.352   4.837  25.851  0.00  0.00    +0.165 HD
ENDROOT
BRANCH   7  13
ATOM      1  O   UNL     1       0.590   4.044  24.325  0.00  0.00    -0.274 OA
ATOM      3  N   UNL     1       0.855   1.927  23.406  0.00  0.00    -0.298 N 
ATOM      4  N   UNL     1       2.552  -0.337  22.957  0.00  0.00    -0.302 NA
ATOM     13  C   UNL     1       0.116   2.956  23.989  0.00  0.00    +0.233 C 
ATOM     15  C   UNL     1       0.298   0.678  22.878  0.00  0.00    +0.123 C 
ATOM     16  C   UNL     1       2.284   2.107  23.156  0.00  0.00    +0.123 C 
ATOM     18  C   UNL     1       1.137  -0.525  23.311  0.00  0.00    +0.103 C 
ATOM     19  C   UNL     1       3.083   0.879  23.590  0.00  0.00    +0.103 C 
ATOM     26  C   UNL     1       3.340  -1.505  23.348  0.00  0.00    +0.105 C 
ENDBRANCH   7  13
BRANCH   6  10
ATOM     10  C   UNL     1      -2.225  -0.705  25.503  0.00  0.00    +0.026 C 
BRANCH  10  14
ATOM     14  C   UNL     1      -2.134  -1.946  24.609  0.00  0.00    -0.015 C 
ATOM     23  C   UNL     1      -0.915  -2.812  24.925  0.00  0.00    +0.007 C 
ATOM     24  C   UNL     1      -3.411  -2.774  24.768  0.00  0.00    +0.007 C 
ENDBRANCH  10  14
ENDBRANCH   6  10
TORSDOF 3
ENDMDL
MODEL 4
REMARK VINA RESULT:       0.7      1.821      4.391
REMARK  Name = 51137965
REMARK  6 active torsions:
REMARK  status: ('A' for Active; 'I' for Inactive)
REMARK    1  A    between atoms: N_4  and  C_26
REMARK    2  A    between atoms: C_6  and  C_10
REMARK    3  A    between atoms: C_7  and  C_13
REMARK    4  A    between atoms: C_10  and  C_14
REMARK    5  A    between atoms: C_14  and  C_23
REMARK    6  A    between atoms: C_14  and  C_24
REMARK                            x       y       z     vdW  Elec       q    Type
REMARK                         _______ _______ _______ _____ _____    ______ ____
ROOT
ATOM      2  N   UNL     1      -2.395  -0.272  24.760  0.00  0.00    -0.299 NA
ATOM      5  N   UNL     1      -2.509   4.676  25.768  0.00  0.00    -0.360 N 
ATOM      6  C   UNL     1      -3.768   0.162  24.468  0.00  0.00    +0.085 C 
ATOM      7  C   UNL     1      -1.362   0.453  24.034  0.00  0.00    +0.145 C 
ATOM      8  C   UNL     1      -0.766   1.577  24.880  0.00  0.00    +0.065 C 
ATOM      9  C   UNL     1      -4.114   1.600  24.870  0.00  0.00    -0.021 A 
ATOM     11  C   UNL     1      -3.166   2.619  25.171  0.00  0.00    +0.008 A 
ATOM     12  C   UNL     1      -1.729   2.672  25.194  0.00  0.00    -0.020 A 
ATOM     17  C   UNL     1      -3.615   3.900  25.512  0.00  0.00    +0.047 A 
ATOM     20  C   UNL     1      -1.370   3.949  25.574  0.00  0.00    +0.087 A 
ATOM     21  C   UNL     1      -5.477   1.993  24.875  0.00  0.00    +0.006 A 
ATOM     22  C   UNL     1      -4.964   4.255  25.557  0.00  0.00    +0.026 A 
ATOM     25  C   UNL     1      -5.891   3.278  25.218  0.00  0.00    +0.002 A 
ATOM     27  H   UNL     1      -2.216  -0.264  25.763  0.00  0.00    +0.123 HD
ATOM     28  H   UNL     1      -2.536   5.648  26.043  0.00  0.00    +0.165 HD
ENDROOT
BRANCH   7  13
ATOM      1  O   UNL     1      -0.621  -1.731  23.527  0.00  0.00    -0.274 OA
ATOM      3  N   UNL     1       1.019  -0.101  23.747  0.00  0.00    -0.298 N 
ATOM      4  N   UNL     1       3.596   0.880  22.971  0.00  0.00    -0.302 NA
ATOM     13  C   UNL     1      -0.297  -0.562  23.749  0.00  0.00    +0.233 C 
ATOM     15  C   UNL     1       1.446   1.246  24.136  0.00  0.00    +0.123 C 
ATOM     16  C   UNL     1       2.116  -1.028  23.472  0.00  0.00    +0.123 C 
ATOM     18  C   UNL     1       2.468   1.807  23.146  0.00  0.00    +0.103 C 
ATOM     19  C   UNL     1       3.120  -0.425  22.491  0.00  0.00    +0.103 C 
ATOM     26  C   UNL     1       4.582   1.438  22.045  0.00  0.00    +0.105 C 
ENDBRANCH   7  13
BRANCH   6  10
ATOM     10  C   UNL     1      -4.662  -0.878  25.168  0.00  0.00    +0.026 C 
BRANCH  10  14
ATOM     14  C   UNL     1      -4.399  -2.309  24.690  0.00  0.00    -0.015 C 
ATOM     23  C   UNL     1      -4.159  -2.393  23.183  0.00  0.00    +0.007 C 
ATOM     24  C   UNL     1      -3.190  -2.876  25.439  0.00  0.00    +0.007 C 
ENDBRANCH  10  14
ENDBRANCH   6  10
TORSDOF 3
ENDMDL
MODEL 5
REMARK VINA RESULT:       1.9      2.553      6.600
REMARK  Name = 51137965
REMARK  6 active torsions:
REMARK  status: ('A' for Active; 'I' for Inactive)
REMARK    1  A    between atoms: N_4  and  C_26
REMARK    2  A    between atoms: C_6  and  C_10
REMARK    3  A    between atoms: C_7  and  C_13
REMARK    4  A    between atoms: C_10  and  C_14
REMARK    5  A    between atoms: C_14  and  C_23
REMARK    6  A    between atoms: C_14  and  C_24
REMARK                            x       y       z     vdW  Elec       q    Type
REMARK                         _______ _______ _______ _____ _____    ______ ____
ROOT
ATOM      2  N   UNL     1      -2.087   1.151  24.741  0.00  0.00    -0.299 NA
ATOM      5  N   UNL     1       1.458  -2.437  24.984  0.00  0.00    -0.360 N 
ATOM      6  C   UNL     1      -1.153   1.440  23.645  0.00  0.00    +0.085 C 
ATOM      7  C   UNL     1      -2.665  -0.185  24.710  0.00  0.00    +0.145 C 
ATOM      8  C   UNL     1      -1.910  -1.144  25.627  0.00  0.00    +0.065 C 
ATOM      9  C   UNL     1       0.125   0.595  23.615  0.00  0.00    -0.021 A 
ATOM     11  C   UNL     1       0.317  -0.627  24.320  0.00  0.00    +0.008 A 
ATOM     12  C   UNL     1      -0.509  -1.419  25.193  0.00  0.00    -0.020 A 
ATOM     17  C   UNL     1       1.531  -1.312  24.196  0.00  0.00    +0.047 A 
ATOM     20  C   UNL     1       0.235  -2.513  25.583  0.00  0.00    +0.087 A 
ATOM     21  C   UNL     1       1.186   0.999  22.765  0.00  0.00    +0.006 A 
ATOM     22  C   UNL     1       2.583  -0.874  23.390  0.00  0.00    +0.026 A 
ATOM     25  C   UNL     1       2.383   0.293  22.663  0.00  0.00    +0.002 A 
ATOM     27  H   UNL     1      -1.660   1.347  25.644  0.00  0.00    +0.123 HD
ATOM     28  H   UNL     1       2.199  -3.117  25.091  0.00  0.00    +0.165 HD
ENDROOT
BRANCH   7  13
ATOM      1  O   UNL     1      -4.582  -0.930  25.871  0.00  0.00    -0.274 OA
ATOM      3  N   UNL     1      -4.698   1.186  24.921  0.00  0.00    -0.298 N 
ATOM      4  N   UNL     1      -5.752   3.848  25.028  0.00  0.00    -0.302 NA
ATOM     13  C   UNL     1      -4.064  -0.019  25.220  0.00  0.00    +0.233 C 
ATOM     15  C   UNL     1      -4.163   2.230  24.042  0.00  0.00    +0.123 C 
ATOM     16  C   UNL     1      -6.063   1.427  25.387  0.00  0.00    +0.123 C 
ATOM     18  C   UNL     1      -4.347   3.617  24.659  0.00  0.00    +0.103 C 
ATOM     19  C   UNL     1      -6.207   2.827  25.983  0.00  0.00    +0.103 C 
ATOM     26  C   UNL     1      -5.922   5.188  25.589  0.00  0.00    +0.105 C 
ENDBRANCH   7  13
BRANCH   6  10
ATOM     10  C   UNL     1      -0.860   2.947  23.769  0.00  0.00    +0.026 C 
BRANCH  10  14
ATOM     14  C   UNL     1      -0.971   3.459  25.209  0.00  0.00    -0.015 C 
ATOM     23  C   UNL     1       0.167   2.965  26.100  0.00  0.00    +0.007 C 
ATOM     24  C   UNL     1      -0.992   4.990  25.198  0.00  0.00    +0.007 C 
ENDBRANCH  10  14
ENDBRANCH   6  10
TORSDOF 3
ENDMDL
MODEL 6
REMARK VINA RESULT:       2.0      2.330      6.602
REMARK  Name = 51137965
REMARK  6 active torsions:
REMARK  status: ('A' for Active; 'I' for Inactive)
REMARK    1  A    between atoms: N_4  and  C_26
REMARK    2  A    between atoms: C_6  and  C_10
REMARK    3  A    between atoms: C_7  and  C_13
REMARK    4  A    between atoms: C_10  and  C_14
REMARK    5  A    between atoms: C_14  and  C_23
REMARK    6  A    between atoms: C_14  and  C_24
REMARK                            x       y       z     vdW  Elec       q    Type
REMARK                         _______ _______ _______ _____ _____    ______ ____
ROOT
ATOM      2  N   UNL     1      -0.539   0.815  24.414  0.00  0.00    -0.299 NA
ATOM      5  N   UNL     1      -4.028   4.348  25.337  0.00  0.00    -0.360 N 
ATOM      6  C   UNL     1       0.207   2.057  24.656  0.00  0.00    +0.085 C 
ATOM      7  C   UNL     1      -1.434   0.424  25.494  0.00  0.00    +0.145 C 
ATOM      8  C   UNL     1      -2.868   0.873  25.224  0.00  0.00    +0.065 C 
ATOM      9  C   UNL     1      -0.637   3.331  24.781  0.00  0.00    -0.021 A 
ATOM     11  C   UNL     1      -2.041   3.364  25.019  0.00  0.00    +0.008 A 
ATOM     12  C   UNL     1      -3.046   2.355  25.216  0.00  0.00    -0.020 A 
ATOM     17  C   UNL     1      -2.693   4.598  25.127  0.00  0.00    +0.047 A 
ATOM     20  C   UNL     1      -4.251   3.003  25.398  0.00  0.00    +0.087 A 
ATOM     21  C   UNL     1       0.020   4.586  24.737  0.00  0.00    +0.006 A 
ATOM     22  C   UNL     1      -2.035   5.826  25.034  0.00  0.00    +0.026 A 
ATOM     25  C   UNL     1      -0.659   5.798  24.849  0.00  0.00    +0.002 A 
ATOM     27  H   UNL     1      -1.031   0.853  23.523  0.00  0.00    +0.123 HD
ATOM     28  H   UNL     1      -4.739   5.058  25.447  0.00  0.00    +0.165 HD
ENDROOT
BRANCH   7  13
ATOM      1  O   UNL     1      -0.636  -1.640  26.318  0.00  0.00    -0.274 OA
ATOM      3  N   UNL     1      -2.221  -1.739  24.623  0.00  0.00    -0.298 N 
ATOM      4  N   UNL     1      -4.401  -3.145  23.407  0.00  0.00    -0.302 NA
ATOM     13  C   UNL     1      -1.387  -1.074  25.520  0.00  0.00    +0.233 C 
ATOM     15  C   UNL     1      -3.022  -1.099  23.576  0.00  0.00    +0.123 C 
ATOM     16  C   UNL     1      -2.237  -3.201  24.589  0.00  0.00    +0.123 C 
ATOM     18  C   UNL     1      -4.436  -1.680  23.532  0.00  0.00    +0.103 C 
ATOM     19  C   UNL     1      -3.666  -3.739  24.532  0.00  0.00    +0.103 C 
ATOM     26  C   UNL     1      -5.758  -3.688  23.336  0.00  0.00    +0.105 C 
ENDBRANCH   7  13
BRANCH   6  10
ATOM     10  C   UNL     1       1.221   2.133  23.501  0.00  0.00    +0.026 C 
BRANCH  10  14
ATOM     14  C   UNL     1       2.015   0.836  23.316  0.00  0.00    -0.015 C 
ATOM     23  C   UNL     1       1.346  -0.131  22.340  0.00  0.00    +0.007 C 
ATOM     24  C   UNL     1       3.425   1.174  22.825  0.00  0.00    +0.007 C 
ENDBRANCH  10  14
ENDBRANCH   6  10
TORSDOF 3
ENDMDL
