MODEL 1
REMARK VINA RESULT:      -3.9      0.000      0.000
REMARK  Name = 25338459
REMARK  5 active torsions:
REMARK  status: ('A' for Active; 'I' for Inactive)
REMARK    1  A    between atoms: N_3  and  C_14
REMARK    2  A    between atoms: N_4  and  C_9
REMARK    3  A    between atoms: N_7  and  C_18
REMARK    4  A    between atoms: C_10  and  C_13
REMARK    5  A    between atoms: C_16  and  C_17
REMARK                            x       y       z     vdW  Elec       q    Type
REMARK                         _______ _______ _______ _____ _____    ______ ____
ROOT
ATOM      3  N   UNL     1      16.348  -2.414  30.675  0.00  0.00    -0.293 NA
ATOM      9  C   UNL     1      16.157  -4.273  32.070  0.00  0.00    +0.090 C 
ATOM     10  C   UNL     1      17.405  -3.325  30.195  0.00  0.00    +0.147 C 
ATOM     11  C   UNL     1      17.196  -4.620  31.003  0.00  0.00    +0.052 C 
ATOM     12  C   UNL     1      16.138  -2.752  32.086  0.00  0.00    +0.107 C 
ATOM     14  C   UNL     1      16.678  -1.006  30.497  0.00  0.00    +0.105 C 
ENDROOT
BRANCH   9   4
ATOM      2  O   UNL     1      15.320  -7.001  32.324  0.00  0.00    -0.253 OA
ATOM      4  N   UNL     1      14.859  -4.811  31.740  0.00  0.00    -0.295 N 
ATOM      7  N   UNL     1      13.210  -6.389  31.498  0.00  0.00    -0.269 N 
ATOM     15  C   UNL     1      14.530  -6.162  31.896  0.00  0.00    +0.304 C 
ATOM     28  H   UNL     1      14.175  -4.195  31.311  0.00  0.00    +0.151 HD
ATOM     29  H   UNL     1      12.687  -5.582  31.166  0.00  0.00    +0.156 HD
BRANCH   7  18
ATOM     18  C   UNL     1      12.500  -7.613  31.501  0.00  0.00    +0.035 A 
ATOM     21  C   UNL     1      13.064  -8.747  30.918  0.00  0.00    +0.023 A 
ATOM     22  C   UNL     1      11.237  -7.685  32.088  0.00  0.00    +0.023 A 
ATOM     25  C   UNL     1      12.365  -9.954  30.922  0.00  0.00    +0.002 A 
ATOM     26  C   UNL     1      10.538  -8.892  32.092  0.00  0.00    +0.002 A 
ATOM     27  C   UNL     1      11.101 -10.027  31.508  0.00  0.00    +0.000 A 
ENDBRANCH   7  18
ENDBRANCH   9   4
BRANCH  10  13
ATOM      1  O   UNL     1      17.280  -4.852  28.292  0.00  0.00    -0.336 OA
ATOM      5  N   UNL     1      17.405  -2.691  27.722  0.00  0.00    -0.190 NA
ATOM      6  N   UNL     1      17.260  -4.818  26.892  0.00  0.00    -0.056 NA
ATOM     13  C   UNL     1      17.366  -3.560  28.700  0.00  0.00    +0.245 A 
ATOM     16  C   UNL     1      17.337  -3.510  26.632  0.00  0.00    +0.202 A 
BRANCH  16  17
ATOM      8  N   UNL     1      17.362  -1.970  22.693  0.00  0.00    -0.263 NA
ATOM     17  C   UNL     1      17.346  -2.988  25.296  0.00  0.00    +0.025 A 
ATOM     19  C   UNL     1      17.326  -3.853  24.208  0.00  0.00    +0.031 A 
ATOM     20  C   UNL     1      17.373  -1.614  25.083  0.00  0.00    +0.031 A 
ATOM     23  C   UNL     1      17.334  -3.299  22.938  0.00  0.00    +0.111 A 
ATOM     24  C   UNL     1      17.380  -1.159  23.775  0.00  0.00    +0.111 A 
ENDBRANCH  16  17
ENDBRANCH  10  13
TORSDOF 4
ENDMDL
MODEL 2
REMARK VINA RESULT:      -3.0      2.953      4.093
REMARK  Name = 25338459
REMARK  5 active torsions:
REMARK  status: ('A' for Active; 'I' for Inactive)
REMARK    1  A    between atoms: N_3  and  C_14
REMARK    2  A    between atoms: N_4  and  C_9
REMARK    3  A    between atoms: N_7  and  C_18
REMARK    4  A    between atoms: C_10  and  C_13
REMARK    5  A    between atoms: C_16  and  C_17
REMARK                            x       y       z     vdW  Elec       q    Type
REMARK                         _______ _______ _______ _____ _____    ______ ____
ROOT
ATOM      3  N   UNL     1      15.895  -3.405  30.688  0.00  0.00    -0.293 NA
ATOM      9  C   UNL     1      15.259  -4.395  32.701  0.00  0.00    +0.090 C 
ATOM     10  C   UNL     1      16.734  -4.616  30.765  0.00  0.00    +0.147 C 
ATOM     11  C   UNL     1      16.221  -5.363  32.011  0.00  0.00    +0.052 C 
ATOM     12  C   UNL     1      15.579  -3.047  32.075  0.00  0.00    +0.107 C 
ATOM     14  C   UNL     1      16.536  -2.306  29.975  0.00  0.00    +0.105 C 
ENDROOT
BRANCH   9   4
ATOM      2  O   UNL     1      14.144  -7.028  32.873  0.00  0.00    -0.253 OA
ATOM      4  N   UNL     1      13.882  -4.765  32.476  0.00  0.00    -0.295 N 
ATOM      7  N   UNL     1      12.048  -6.134  32.310  0.00  0.00    -0.269 N 
ATOM     15  C   UNL     1      13.417  -6.080  32.582  0.00  0.00    +0.304 C 
ATOM     28  H   UNL     1      13.235  -4.049  32.158  0.00  0.00    +0.151 HD
ATOM     29  H   UNL     1      11.592  -5.254  32.083  0.00  0.00    +0.156 HD
BRANCH   7  18
ATOM     18  C   UNL     1      11.206  -7.272  32.312  0.00  0.00    +0.035 A 
ATOM     21  C   UNL     1       9.931  -7.193  32.872  0.00  0.00    +0.023 A 
ATOM     22  C   UNL     1      11.651  -8.470  31.754  0.00  0.00    +0.023 A 
ATOM     25  C   UNL     1       9.101  -8.314  32.874  0.00  0.00    +0.002 A 
ATOM     26  C   UNL     1      10.820  -9.590  31.756  0.00  0.00    +0.002 A 
ATOM     27  C   UNL     1       9.544  -9.513  32.316  0.00  0.00    +0.000 A 
ENDBRANCH   7  18
ENDBRANCH   9   4
BRANCH  10  13
ATOM      1  O   UNL     1      17.305  -4.968  28.416  0.00  0.00    -0.336 OA
ATOM      5  N   UNL     1      16.113  -6.630  29.325  0.00  0.00    -0.190 NA
ATOM      6  N   UNL     1      17.122  -5.915  27.400  0.00  0.00    -0.056 NA
ATOM     13  C   UNL     1      16.681  -5.467  29.514  0.00  0.00    +0.245 A 
ATOM     16  C   UNL     1      16.410  -6.865  28.013  0.00  0.00    +0.202 A 
BRANCH  16  17
ATOM      8  N   UNL     1      15.148 -10.390  26.046  0.00  0.00    -0.263 NA
ATOM     17  C   UNL     1      15.982  -8.061  27.346  0.00  0.00    +0.025 A 
ATOM     19  C   UNL     1      15.908  -9.260  28.044  0.00  0.00    +0.031 A 
ATOM     20  C   UNL     1      15.639  -8.024  25.999  0.00  0.00    +0.031 A 
ATOM     23  C   UNL     1      15.488 -10.387  27.355  0.00  0.00    +0.111 A 
ATOM     24  C   UNL     1      15.232  -9.205  25.401  0.00  0.00    +0.111 A 
ENDBRANCH  16  17
ENDBRANCH  10  13
TORSDOF 4
ENDMDL
