MODEL 1
REMARK VINA RESULT:       3.8      0.000      0.000
REMARK  Name = 26761900
REMARK  6 active torsions:
REMARK  status: ('A' for Active; 'I' for Inactive)
REMARK    1  A    between atoms: O_4  and  C_32
REMARK    2  A    between atoms: N_6  and  C_16
REMARK    3  A    between atoms: C_11  and  C_17
REMARK    4  A    between atoms: C_16  and  C_18
REMARK    5  A    between atoms: C_22  and  C_23
REMARK    6  A    between atoms: C_26  and  C_32
REMARK                            x       y       z     vdW  Elec       q    Type
REMARK                         _______ _______ _______ _____ _____    ______ ____
ROOT
ATOM      6  N   UNL     1       2.132   1.221  23.563  0.00  0.00    -0.281 NA
ATOM      7  N   UNL     1       5.754   0.284  23.299  0.00  0.00    -0.347 N 
ATOM      8  N   UNL     1       5.057  -1.762  23.876  0.00  0.00    -0.240 NA
ATOM     11  C   UNL     1       1.646  -0.165  23.244  0.00  0.00    +0.152 C 
ATOM     12  C   UNL     1       2.567  -1.280  23.856  0.00  0.00    +0.086 C 
ATOM     13  C   UNL     1       3.505   1.474  23.035  0.00  0.00    +0.140 C 
ATOM     14  C   UNL     1       4.394   0.334  23.338  0.00  0.00    +0.053 A 
ATOM     15  C   UNL     1       3.991  -0.929  23.685  0.00  0.00    +0.065 A 
ATOM     19  C   UNL     1       6.107  -1.001  23.633  0.00  0.00    +0.197 A 
ATOM     34  H   UNL     1       6.386   1.039  23.068  0.00  0.00    +0.167 HD
ENDROOT
BRANCH  11  17
ATOM      1  O   UNL     1      -0.042  -1.690  24.165  0.00  0.00    -0.336 OA
ATOM      9  N   UNL     1      -0.820   0.361  23.713  0.00  0.00    -0.190 NA
ATOM     10  N   UNL     1      -1.398  -1.701  24.517  0.00  0.00    -0.056 NA
ATOM     17  C   UNL     1       0.216  -0.439  23.701  0.00  0.00    +0.245 A 
ATOM     22  C   UNL     1      -1.786  -0.457  24.222  0.00  0.00    +0.202 A 
BRANCH  22  23
ATOM      2  O   UNL     1      -5.084   2.944  25.416  0.00  0.00    -0.453 OA
ATOM      3  O   UNL     1      -6.927   1.439  25.035  0.00  0.00    -0.453 OA
ATOM     23  C   UNL     1      -3.131   0.001  24.424  0.00  0.00    +0.026 A 
ATOM     27  C   UNL     1      -3.360   1.316  24.837  0.00  0.00    +0.061 A 
ATOM     28  C   UNL     1      -4.205  -0.878  24.202  0.00  0.00    +0.015 A 
ATOM     29  C   UNL     1      -4.670   1.711  25.017  0.00  0.00    +0.167 A 
ATOM     30  C   UNL     1      -5.721   0.851  24.800  0.00  0.00    +0.166 A 
ATOM     31  C   UNL     1      -5.522  -0.451  24.392  0.00  0.00    +0.050 A 
ATOM     33  C   UNL     1      -6.515   2.765  25.425  0.00  0.00    +0.466 C 
ENDBRANCH  22  23
ENDBRANCH  11  17
BRANCH   6  16
ATOM     16  C   UNL     1       1.240   2.261  23.033  0.00  0.00    +0.120 C 
BRANCH  16  18
ATOM     18  C   UNL     1       0.259   2.739  24.070  0.00  0.00    -0.033 A 
ATOM     20  C   UNL     1       0.354   2.281  25.384  0.00  0.00    +0.006 A 
ATOM     21  C   UNL     1      -0.746   3.639  23.716  0.00  0.00    +0.006 A 
ATOM     24  C   UNL     1      -0.555   2.724  26.345  0.00  0.00    +0.015 A 
ATOM     25  C   UNL     1      -1.656   4.082  24.677  0.00  0.00    +0.015 A 
ATOM     26  C   UNL     1      -1.560   3.624  25.991  0.00  0.00    +0.059 A 
BRANCH  26  32
ATOM      5  O   UNL     1      -2.467   3.814  28.197  0.00  0.00    -0.245 OA
ATOM     32  C   UNL     1      -2.508   4.087  26.992  0.00  0.00    +0.337 C 
BRANCH  32   4
ATOM      4  O   UNL     1      -3.481   4.878  26.463  0.00  0.00    -0.477 OA
ATOM     35  H   UNL     1      -4.373   4.623  26.783  0.00  0.00    +0.295 HD
ENDBRANCH  32   4
ENDBRANCH  26  32
ENDBRANCH  16  18
ENDBRANCH   6  16
TORSDOF 6
ENDMDL
MODEL 2
REMARK VINA RESULT:       6.0      2.717      7.583
REMARK  Name = 26761900
REMARK  6 active torsions:
REMARK  status: ('A' for Active; 'I' for Inactive)
REMARK    1  A    between atoms: O_4  and  C_32
REMARK    2  A    between atoms: N_6  and  C_16
REMARK    3  A    between atoms: C_11  and  C_17
REMARK    4  A    between atoms: C_16  and  C_18
REMARK    5  A    between atoms: C_22  and  C_23
REMARK    6  A    between atoms: C_26  and  C_32
REMARK                            x       y       z     vdW  Elec       q    Type
REMARK                         _______ _______ _______ _____ _____    ______ ____
ROOT
ATOM      6  N   UNL     1      -2.620   2.904  24.227  0.00  0.00    -0.281 NA
ATOM      7  N   UNL     1      -6.249   2.845  25.169  0.00  0.00    -0.347 N 
ATOM      8  N   UNL     1      -6.088   0.638  24.847  0.00  0.00    -0.240 NA
ATOM     11  C   UNL     1      -2.370   1.498  24.698  0.00  0.00    +0.152 C 
ATOM     12  C   UNL     1      -3.589   0.547  24.422  0.00  0.00    +0.086 C 
ATOM     13  C   UNL     1      -3.798   3.525  24.900  0.00  0.00    +0.140 C 
ATOM     14  C   UNL     1      -4.936   2.584  24.925  0.00  0.00    +0.053 A 
ATOM     15  C   UNL     1      -4.861   1.228  24.738  0.00  0.00    +0.065 A 
ATOM     19  C   UNL     1      -6.905   1.639  25.110  0.00  0.00    +0.197 A 
ATOM     34  H   UNL     1      -6.667   3.746  25.361  0.00  0.00    +0.167 HD
ENDROOT
BRANCH  11  17
ATOM      1  O   UNL     1      -1.339  -0.205  23.264  0.00  0.00    -0.336 OA
ATOM      9  N   UNL     1       0.132   1.170  24.245  0.00  0.00    -0.190 NA
ATOM     10  N   UNL     1      -0.071  -0.622  22.838  0.00  0.00    -0.056 NA
ATOM     17  C   UNL     1      -1.128   0.853  24.090  0.00  0.00    +0.245 A 
ATOM     22  C   UNL     1       0.743   0.237  23.458  0.00  0.00    +0.202 A 
BRANCH  22  23
ATOM      2  O   UNL     1       5.095  -1.924  23.961  0.00  0.00    -0.453 OA
ATOM      3  O   UNL     1       6.250  -0.066  22.952  0.00  0.00    -0.453 OA
ATOM     23  C   UNL     1       2.169   0.192  23.312  0.00  0.00    +0.026 A 
ATOM     27  C   UNL     1       2.875  -0.929  23.754  0.00  0.00    +0.061 A 
ATOM     28  C   UNL     1       2.843   1.277  22.723  0.00  0.00    +0.015 A 
ATOM     29  C   UNL     1       4.245  -0.927  23.592  0.00  0.00    +0.167 A 
ATOM     30  C   UNL     1       4.905   0.134  23.016  0.00  0.00    +0.166 A 
ATOM     31  C   UNL     1       4.231   1.253  22.571  0.00  0.00    +0.050 A 
ATOM     33  C   UNL     1       6.363  -1.373  23.553  0.00  0.00    +0.466 C 
ENDBRANCH  22  23
ENDBRANCH  11  17
BRANCH   6  16
ATOM     16  C   UNL     1      -1.459   3.779  24.440  0.00  0.00    +0.120 C 
BRANCH  16  18
ATOM     18  C   UNL     1      -0.709   3.418  25.695  0.00  0.00    -0.033 A 
ATOM     20  C   UNL     1       0.684   3.342  25.678  0.00  0.00    +0.006 A 
ATOM     21  C   UNL     1      -1.407   3.162  26.875  0.00  0.00    +0.006 A 
ATOM     24  C   UNL     1       1.379   3.009  26.841  0.00  0.00    +0.015 A 
ATOM     25  C   UNL     1      -0.713   2.828  28.038  0.00  0.00    +0.015 A 
ATOM     26  C   UNL     1       0.681   2.752  28.021  0.00  0.00    +0.059 A 
BRANCH  26  32
ATOM      5  O   UNL     1       0.925   2.384  30.372  0.00  0.00    -0.245 OA
ATOM     32  C   UNL     1       1.404   2.405  29.233  0.00  0.00    +0.337 C 
BRANCH  32   4
ATOM      4  O   UNL     1       2.708   2.095  28.991  0.00  0.00    -0.477 OA
ATOM     35  H   UNL     1       2.953   1.225  29.373  0.00  0.00    +0.295 HD
ENDBRANCH  32   4
ENDBRANCH  26  32
ENDBRANCH  16  18
ENDBRANCH   6  16
TORSDOF 6
ENDMDL
MODEL 3
REMARK VINA RESULT:       7.3      3.144      8.141
REMARK  Name = 26761900
REMARK  6 active torsions:
REMARK  status: ('A' for Active; 'I' for Inactive)
REMARK    1  A    between atoms: O_4  and  C_32
REMARK    2  A    between atoms: N_6  and  C_16
REMARK    3  A    between atoms: C_11  and  C_17
REMARK    4  A    between atoms: C_16  and  C_18
REMARK    5  A    between atoms: C_22  and  C_23
REMARK    6  A    between atoms: C_26  and  C_32
REMARK                            x       y       z     vdW  Elec       q    Type
REMARK                         _______ _______ _______ _____ _____    ______ ____
ROOT
ATOM      6  N   UNL     1      -4.402   1.256  24.952  0.00  0.00    -0.281 NA
ATOM      7  N   UNL     1      -6.573   4.118  26.028  0.00  0.00    -0.347 N 
ATOM      8  N   UNL     1      -4.973   5.401  25.137  0.00  0.00    -0.240 NA
ATOM     11  C   UNL     1      -3.778   2.022  23.819  0.00  0.00    +0.152 C 
ATOM     12  C   UNL     1      -3.552   3.536  24.171  0.00  0.00    +0.086 C 
ATOM     13  C   UNL     1      -5.736   1.801  25.337  0.00  0.00    +0.140 C 
ATOM     14  C   UNL     1      -5.685   3.274  25.434  0.00  0.00    +0.053 A 
ATOM     15  C   UNL     1      -4.720   4.082  24.891  0.00  0.00    +0.065 A 
ATOM     19  C   UNL     1      -6.100   5.391  25.823  0.00  0.00    +0.197 A 
ATOM     34  H   UNL     1      -7.419   3.864  26.521  0.00  0.00    +0.167 HD
ENDROOT
BRANCH  11  17
ATOM      1  O   UNL     1      -2.497   0.588  22.295  0.00  0.00    -0.336 OA
ATOM      9  N   UNL     1      -1.239   1.664  23.803  0.00  0.00    -0.190 NA
ATOM     10  N   UNL     1      -1.174   0.201  22.046  0.00  0.00    -0.056 NA
ATOM     17  C   UNL     1      -2.446   1.449  23.344  0.00  0.00    +0.245 A 
ATOM     22  C   UNL     1      -0.492   0.878  22.975  0.00  0.00    +0.202 A 
BRANCH  22  23
ATOM      2  O   UNL     1       3.675  -1.609  23.536  0.00  0.00    -0.453 OA
ATOM      3  O   UNL     1       5.003   0.400  23.476  0.00  0.00    -0.453 OA
ATOM     23  C   UNL     1       0.934   0.790  23.103  0.00  0.00    +0.026 A 
ATOM     27  C   UNL     1       1.540  -0.459  23.259  0.00  0.00    +0.061 A 
ATOM     28  C   UNL     1       1.708   1.963  23.069  0.00  0.00    +0.015 A 
ATOM     29  C   UNL     1       2.915  -0.492  23.376  0.00  0.00    +0.167 A 
ATOM     30  C   UNL     1       3.673   0.656  23.343  0.00  0.00    +0.166 A 
ATOM     31  C   UNL     1       3.099   1.900  23.190  0.00  0.00    +0.050 A 
ATOM     33  C   UNL     1       4.997  -1.037  23.598  0.00  0.00    +0.466 C 
ENDBRANCH  22  23
ENDBRANCH  11  17
BRANCH   6  16
ATOM     16  C   UNL     1      -4.565  -0.171  24.638  0.00  0.00    +0.120 C 
BRANCH  16  18
ATOM     18  C   UNL     1      -3.293  -0.944  24.872  0.00  0.00    -0.033 A 
ATOM     20  C   UNL     1      -3.035  -2.100  24.136  0.00  0.00    +0.006 A 
ATOM     21  C   UNL     1      -2.374  -0.504  25.823  0.00  0.00    +0.006 A 
ATOM     24  C   UNL     1      -1.858  -2.817  24.351  0.00  0.00    +0.015 A 
ATOM     25  C   UNL     1      -1.197  -1.219  26.040  0.00  0.00    +0.015 A 
ATOM     26  C   UNL     1      -0.939  -2.377  25.303  0.00  0.00    +0.059 A 
BRANCH  26  32
ATOM      5  O   UNL     1       0.362  -4.340  25.722  0.00  0.00    -0.245 OA
ATOM     32  C   UNL     1       0.289  -3.122  25.528  0.00  0.00    +0.337 C 
BRANCH  32   4
ATOM      4  O   UNL     1       1.394  -2.327  25.503  0.00  0.00    -0.477 OA
ATOM     35  H   UNL     1       1.237  -1.470  25.955  0.00  0.00    +0.295 HD
ENDBRANCH  32   4
ENDBRANCH  26  32
ENDBRANCH  16  18
ENDBRANCH   6  16
TORSDOF 6
ENDMDL
MODEL 4
REMARK VINA RESULT:       7.7      1.839      3.973
REMARK  Name = 26761900
REMARK  6 active torsions:
REMARK  status: ('A' for Active; 'I' for Inactive)
REMARK    1  A    between atoms: O_4  and  C_32
REMARK    2  A    between atoms: N_6  and  C_16
REMARK    3  A    between atoms: C_11  and  C_17
REMARK    4  A    between atoms: C_16  and  C_18
REMARK    5  A    between atoms: C_22  and  C_23
REMARK    6  A    between atoms: C_26  and  C_32
REMARK                            x       y       z     vdW  Elec       q    Type
REMARK                         _______ _______ _______ _____ _____    ______ ____
ROOT
ATOM      6  N   UNL     1       1.827  -1.219  24.339  0.00  0.00    -0.281 NA
ATOM      7  N   UNL     1       5.438  -1.406  23.346  0.00  0.00    -0.347 N 
ATOM      8  N   UNL     1       4.996   0.435  22.156  0.00  0.00    -0.240 NA
ATOM     11  C   UNL     1       1.750   0.271  24.161  0.00  0.00    +0.152 C 
ATOM     12  C   UNL     1       2.611   0.776  22.949  0.00  0.00    +0.086 C 
ATOM     13  C   UNL     1       3.221  -1.688  24.591  0.00  0.00    +0.140 C 
ATOM     14  C   UNL     1       4.160  -1.047  23.648  0.00  0.00    +0.053 A 
ATOM     15  C   UNL     1       3.915   0.084  22.914  0.00  0.00    +0.065 A 
ATOM     19  C   UNL     1       5.901  -0.482  22.441  0.00  0.00    +0.197 A 
ATOM     34  H   UNL     1       5.954  -2.194  23.716  0.00  0.00    +0.167 HD
ENDROOT
BRANCH  11  17
ATOM      1  O   UNL     1      -0.270   0.520  22.790  0.00  0.00    -0.336 OA
ATOM      9  N   UNL     1      -0.411   1.494  24.802  0.00  0.00    -0.190 NA
ATOM     10  N   UNL     1      -1.543   1.100  22.854  0.00  0.00    -0.056 NA
ATOM     17  C   UNL     1       0.330   0.799  23.977  0.00  0.00    +0.245 A 
ATOM     22  C   UNL     1      -1.551   1.654  24.070  0.00  0.00    +0.202 A 
BRANCH  22  23
ATOM      2  O   UNL     1      -6.292   2.087  25.170  0.00  0.00    -0.453 OA
ATOM      3  O   UNL     1      -5.995   4.320  26.026  0.00  0.00    -0.453 OA
ATOM     23  C   UNL     1      -2.681   2.373  24.583  0.00  0.00    +0.026 A 
ATOM     27  C   UNL     1      -3.943   1.773  24.584  0.00  0.00    +0.061 A 
ATOM     28  C   UNL     1      -2.508   3.676  25.082  0.00  0.00    +0.015 A 
ATOM     29  C   UNL     1      -4.999   2.504  25.089  0.00  0.00    +0.167 A 
ATOM     30  C   UNL     1      -4.829   3.778  25.578  0.00  0.00    +0.166 A 
ATOM     31  C   UNL     1      -3.595   4.394  25.588  0.00  0.00    +0.050 A 
ATOM     33  C   UNL     1      -6.917   3.242  25.764  0.00  0.00    +0.466 C 
ENDBRANCH  22  23
ENDBRANCH  11  17
BRANCH   6  16
ATOM     16  C   UNL     1       0.980  -1.694  25.442  0.00  0.00    +0.120 C 
BRANCH  16  18
ATOM     18  C   UNL     1      -0.468  -1.785  25.037  0.00  0.00    -0.033 A 
ATOM     20  C   UNL     1      -1.449  -1.169  25.814  0.00  0.00    +0.006 A 
ATOM     21  C   UNL     1      -0.827  -2.484  23.885  0.00  0.00    +0.006 A 
ATOM     24  C   UNL     1      -2.790  -1.253  25.439  0.00  0.00    +0.015 A 
ATOM     25  C   UNL     1      -2.168  -2.568  23.510  0.00  0.00    +0.015 A 
ATOM     26  C   UNL     1      -3.150  -1.953  24.287  0.00  0.00    +0.059 A 
BRANCH  26  32
ATOM      5  O   UNL     1      -5.082  -3.017  23.362  0.00  0.00    -0.245 OA
ATOM     32  C   UNL     1      -4.547  -2.039  23.895  0.00  0.00    +0.337 C 
BRANCH  32   4
ATOM      4  O   UNL     1      -5.240  -0.902  24.180  0.00  0.00    -0.477 OA
ATOM     35  H   UNL     1      -6.125  -0.898  23.757  0.00  0.00    +0.295 HD
ENDBRANCH  32   4
ENDBRANCH  26  32
ENDBRANCH  16  18
ENDBRANCH   6  16
TORSDOF 6
ENDMDL
