MODEL 1
REMARK VINA RESULT:       1.9      0.000      0.000
REMARK  Name = 45783977
REMARK  14 active torsions:
REMARK  status: ('A' for Active; 'I' for Inactive)
REMARK    1  A    between atoms: N_2  and  C_14
REMARK    2  A    between atoms: N_2  and  C_20
REMARK    3  A    between atoms: N_6  and  C_32
REMARK    4  A    between atoms: N_6  and  C_33
REMARK    5  A    between atoms: N_6  and  C_34
REMARK    6  A    between atoms: C_7  and  C_11
REMARK    7  A    between atoms: C_8  and  C_14
REMARK    8  A    between atoms: C_10  and  C_15
REMARK    9  A    between atoms: C_11  and  C_16
REMARK   10  A    between atoms: C_11  and  C_17
REMARK   11  A    between atoms: C_12  and  C_18
REMARK   12  A    between atoms: C_15  and  C_19
REMARK   13  A    between atoms: C_20  and  C_21
REMARK   14  A    between atoms: C_22  and  C_24
REMARK                            x       y       z     vdW  Elec       q    Type
REMARK                         _______ _______ _______ _____ _____    ______ ____
ROOT
ATOM      7  C   UNL     1      -2.727   3.388  25.723  0.00  0.00    +0.000 C 
ATOM      8  C   UNL     1      -4.106   3.897  25.245  0.00  0.00    +0.029 C 
ATOM      9  C   UNL     1      -2.296   2.158  24.912  0.00  0.00    +0.012 C 
ATOM     10  C   UNL     1      -2.249   2.415  23.391  0.00  0.00    +0.024 C 
ATOM     12  C   UNL     1      -3.398   3.282  22.897  0.00  0.00    -0.073 C 
ATOM     13  C   UNL     1      -4.223   3.927  23.742  0.00  0.00    -0.023 C 
ATOM     18  C   UNL     1      -3.551   3.451  21.410  0.00  0.00    +0.039 C 
ENDROOT
BRANCH   7  11
ATOM     11  C   UNL     1      -1.667   4.496  25.656  0.00  0.00    -0.013 C 
ATOM     16  C   UNL     1      -0.439   4.012  24.893  0.00  0.00    +0.007 C 
ATOM     17  C   UNL     1      -2.248   5.748  25.007  0.00  0.00    +0.007 C 
ENDBRANCH   7  11
BRANCH   8  14
ATOM     14  C   UNL     1      -5.250   3.058  25.823  0.00  0.00    +0.089 C 
BRANCH  14   2
ATOM      2  N   UNL     1      -4.837   1.677  25.999  0.00  0.00    -0.310 NA
ATOM     35  H   UNL     1      -5.235   1.323  26.868  0.00  0.00    +0.122 HD
BRANCH   2  20
ATOM     20  C   UNL     1      -5.295   0.846  24.892  0.00  0.00    +0.136 C 
BRANCH  20  21
ATOM      5  N   UNL     1      -3.905  -0.827  25.980  0.00  0.00    -0.259 NA
ATOM     21  C   UNL     1      -4.608  -0.493  24.874  0.00  0.00    +0.055 A 
ATOM     23  C   UNL     1      -4.726  -1.302  23.756  0.00  0.00    +0.024 A 
ATOM     25  C   UNL     1      -4.080  -2.533  23.773  0.00  0.00    +0.003 A 
ATOM     28  C   UNL     1      -3.291  -2.031  25.959  0.00  0.00    +0.111 A 
ATOM     29  C   UNL     1      -3.347  -2.913  24.892  0.00  0.00    +0.020 A 
ENDBRANCH  20  21
ENDBRANCH   2  20
ENDBRANCH  14   2
ENDBRANCH   8  14
BRANCH  10  15
ATOM     15  C   UNL     1      -2.169   1.064  22.669  0.00  0.00    +0.105 C 
BRANCH  15  19
ATOM      1  O   UNL     1       0.206   0.573  22.944  0.00  0.00    -0.420 OA
ATOM      3  N   UNL     1      -1.155  -0.872  23.977  0.00  0.00    -0.112 NA
ATOM      4  N   UNL     1       0.149  -1.267  24.215  0.00  0.00    -0.107 NA
ATOM     19  C   UNL     1      -1.073   0.205  23.232  0.00  0.00    +0.218 A 
ATOM     22  C   UNL     1       0.908  -0.396  23.593  0.00  0.00    +0.248 A 
BRANCH  22  24
ATOM     24  C   UNL     1       2.336  -0.308  23.495  0.00  0.00    +0.039 A 
ATOM     26  C   UNL     1       2.932   0.850  22.994  0.00  0.00    +0.015 A 
ATOM     27  C   UNL     1       3.131  -1.381  23.901  0.00  0.00    +0.015 A 
ATOM     30  C   UNL     1       4.320   0.936  22.900  0.00  0.00    +0.024 A 
ATOM     31  C   UNL     1       4.519  -1.294  23.807  0.00  0.00    +0.024 A 
ATOM     32  C   UNL     1       5.115  -0.137  23.306  0.00  0.00    +0.029 A 
BRANCH  32   6
ATOM      6  N   UNL     1       6.519  -0.050  23.210  0.00  0.00    -0.336 N 
ATOM     33  C   UNL     1       7.265  -1.038  22.458  0.00  0.00    +0.129 C 
ATOM     34  C   UNL     1       7.235   1.026  23.867  0.00  0.00    +0.129 C 
ENDBRANCH  32   6
ENDBRANCH  22  24
ENDBRANCH  15  19
ENDBRANCH  10  15
TORSDOF 9
ENDMDL
MODEL 2
REMARK VINA RESULT:       2.3      1.820      4.071
REMARK  Name = 45783977
REMARK  14 active torsions:
REMARK  status: ('A' for Active; 'I' for Inactive)
REMARK    1  A    between atoms: N_2  and  C_14
REMARK    2  A    between atoms: N_2  and  C_20
REMARK    3  A    between atoms: N_6  and  C_32
REMARK    4  A    between atoms: N_6  and  C_33
REMARK    5  A    between atoms: N_6  and  C_34
REMARK    6  A    between atoms: C_7  and  C_11
REMARK    7  A    between atoms: C_8  and  C_14
REMARK    8  A    between atoms: C_10  and  C_15
REMARK    9  A    between atoms: C_11  and  C_16
REMARK   10  A    between atoms: C_11  and  C_17
REMARK   11  A    between atoms: C_12  and  C_18
REMARK   12  A    between atoms: C_15  and  C_19
REMARK   13  A    between atoms: C_20  and  C_21
REMARK   14  A    between atoms: C_22  and  C_24
REMARK                            x       y       z     vdW  Elec       q    Type
REMARK                         _______ _______ _______ _____ _____    ______ ____
ROOT
ATOM      7  C   UNL     1      -3.265   2.884  23.913  0.00  0.00    +0.000 C 
ATOM      8  C   UNL     1      -4.078   3.785  24.871  0.00  0.00    +0.029 C 
ATOM      9  C   UNL     1      -3.229   1.440  24.433  0.00  0.00    +0.012 C 
ATOM     10  C   UNL     1      -4.632   0.832  24.644  0.00  0.00    +0.024 C 
ATOM     12  C   UNL     1      -5.630   1.821  25.228  0.00  0.00    -0.073 C 
ATOM     13  C   UNL     1      -5.358   3.136  25.331  0.00  0.00    -0.023 C 
ATOM     18  C   UNL     1      -6.975   1.291  25.639  0.00  0.00    +0.039 C 
ENDROOT
BRANCH   7  11
ATOM     11  C   UNL     1      -3.818   2.945  22.483  0.00  0.00    -0.013 C 
ATOM     16  C   UNL     1      -4.215   4.374  22.126  0.00  0.00    +0.007 C 
ATOM     17  C   UNL     1      -2.792   2.405  21.492  0.00  0.00    +0.007 C 
ENDBRANCH   7  11
BRANCH   8  14
ATOM     14  C   UNL     1      -3.254   4.198  26.094  0.00  0.00    +0.089 C 
BRANCH  14   2
ATOM      2  N   UNL     1      -2.739   5.547  25.935  0.00  0.00    -0.310 NA
ATOM     35  H   UNL     1      -2.527   5.929  26.856  0.00  0.00    +0.122 HD
BRANCH   2  20
ATOM     20  C   UNL     1      -1.525   5.553  25.126  0.00  0.00    +0.136 C 
BRANCH  20  21
ATOM      5  N   UNL     1      -0.830   3.580  26.369  0.00  0.00    -0.259 NA
ATOM     21  C   UNL     1      -0.807   4.231  25.184  0.00  0.00    +0.055 A 
ATOM     23  C   UNL     1      -0.173   3.752  24.049  0.00  0.00    +0.024 A 
ATOM     25  C   UNL     1       0.480   2.529  24.136  0.00  0.00    +0.003 A 
ATOM     28  C   UNL     1      -0.185   2.394  26.416  0.00  0.00    +0.111 A 
ATOM     29  C   UNL     1       0.479   1.829  25.338  0.00  0.00    +0.020 A 
ENDBRANCH  20  21
ENDBRANCH   2  20
ENDBRANCH  14   2
ENDBRANCH   8  14
BRANCH  10  15
ATOM     15  C   UNL     1      -4.491  -0.441  25.489  0.00  0.00    +0.105 C 
BRANCH  15  19
ATOM      1  O   UNL     1      -2.169  -0.632  24.764  0.00  0.00    -0.420 OA
ATOM      3  N   UNL     1      -3.272  -2.578  24.829  0.00  0.00    -0.112 NA
ATOM      4  N   UNL     1      -1.980  -2.832  24.406  0.00  0.00    -0.107 NA
ATOM     19  C   UNL     1      -3.336  -1.282  25.026  0.00  0.00    +0.218 A 
ATOM     22  C   UNL     1      -1.373  -1.669  24.382  0.00  0.00    +0.248 A 
BRANCH  22  24
ATOM     24  C   UNL     1      -0.027  -1.328  24.025  0.00  0.00    +0.039 A 
ATOM     26  C   UNL     1       1.042  -1.846  24.756  0.00  0.00    +0.015 A 
ATOM     27  C   UNL     1       0.214  -0.478  22.945  0.00  0.00    +0.015 A 
ATOM     30  C   UNL     1       2.351  -1.516  24.409  0.00  0.00    +0.024 A 
ATOM     31  C   UNL     1       1.523  -0.148  22.597  0.00  0.00    +0.024 A 
ATOM     32  C   UNL     1       2.592  -0.666  23.328  0.00  0.00    +0.029 A 
BRANCH  32   6
ATOM      6  N   UNL     1       3.916  -0.331  22.977  0.00  0.00    -0.336 N 
ATOM     33  C   UNL     1       5.035  -0.980  23.629  0.00  0.00    +0.129 C 
ATOM     34  C   UNL     1       4.175   0.673  21.964  0.00  0.00    +0.129 C 
ENDBRANCH  32   6
ENDBRANCH  22  24
ENDBRANCH  15  19
ENDBRANCH  10  15
TORSDOF 9
ENDMDL
MODEL 3
REMARK VINA RESULT:       2.5      2.506      4.531
REMARK  Name = 45783977
REMARK  14 active torsions:
REMARK  status: ('A' for Active; 'I' for Inactive)
REMARK    1  A    between atoms: N_2  and  C_14
REMARK    2  A    between atoms: N_2  and  C_20
REMARK    3  A    between atoms: N_6  and  C_32
REMARK    4  A    between atoms: N_6  and  C_33
REMARK    5  A    between atoms: N_6  and  C_34
REMARK    6  A    between atoms: C_7  and  C_11
REMARK    7  A    between atoms: C_8  and  C_14
REMARK    8  A    between atoms: C_10  and  C_15
REMARK    9  A    between atoms: C_11  and  C_16
REMARK   10  A    between atoms: C_11  and  C_17
REMARK   11  A    between atoms: C_12  and  C_18
REMARK   12  A    between atoms: C_15  and  C_19
REMARK   13  A    between atoms: C_20  and  C_21
REMARK   14  A    between atoms: C_22  and  C_24
REMARK                            x       y       z     vdW  Elec       q    Type
REMARK                         _______ _______ _______ _____ _____    ______ ____
ROOT
ATOM      7  C   UNL     1      -2.833   2.783  23.935  0.00  0.00    +0.000 C 
ATOM      8  C   UNL     1      -3.144   3.718  25.127  0.00  0.00    +0.029 C 
ATOM      9  C   UNL     1      -3.064   1.316  24.327  0.00  0.00    +0.012 C 
ATOM     10  C   UNL     1      -4.494   1.039  24.839  0.00  0.00    +0.024 C 
ATOM     12  C   UNL     1      -5.038   2.152  25.722  0.00  0.00    -0.073 C 
ATOM     13  C   UNL     1      -4.414   3.338  25.846  0.00  0.00    -0.023 C 
ATOM     18  C   UNL     1      -6.348   1.908  26.419  0.00  0.00    +0.039 C 
ENDROOT
BRANCH   7  11
ATOM     11  C   UNL     1      -3.657   3.163  22.697  0.00  0.00    -0.013 C 
ATOM     16  C   UNL     1      -3.961   4.657  22.698  0.00  0.00    +0.007 C 
ATOM     17  C   UNL     1      -2.918   2.762  21.424  0.00  0.00    +0.007 C 
ENDBRANCH   7  11
BRANCH   8  14
ATOM     14  C   UNL     1      -1.988   3.757  26.132  0.00  0.00    +0.089 C 
BRANCH  14   2
ATOM      2  N   UNL     1      -1.276   2.491  26.145  0.00  0.00    -0.310 NA
ATOM     35  H   UNL     1      -1.586   1.931  25.351  0.00  0.00    +0.122 HD
BRANCH   2  20
ATOM     20  C   UNL     1       0.164   2.699  26.048  0.00  0.00    +0.136 C 
BRANCH  20  21
ATOM      5  N   UNL     1       2.128   3.033  27.445  0.00  0.00    -0.259 NA
ATOM     21  C   UNL     1       0.828   2.663  27.399  0.00  0.00    +0.055 A 
ATOM     23  C   UNL     1       0.095   2.267  28.505  0.00  0.00    +0.024 A 
ATOM     25  C   UNL     1       0.737   2.246  29.737  0.00  0.00    +0.003 A 
ATOM     28  C   UNL     1       2.718   3.000  28.660  0.00  0.00    +0.111 A 
ATOM     29  C   UNL     1       2.074   2.619  29.826  0.00  0.00    +0.020 A 
ENDBRANCH  20  21
ENDBRANCH   2  20
ENDBRANCH  14   2
ENDBRANCH   8  14
BRANCH  10  15
ATOM     15  C   UNL     1      -4.508  -0.331  25.530  0.00  0.00    +0.105 C 
BRANCH  15  19
ATOM      1  O   UNL     1      -2.172  -0.466  24.836  0.00  0.00    -0.420 OA
ATOM      3  N   UNL     1      -3.174  -2.453  25.075  0.00  0.00    -0.112 NA
ATOM      4  N   UNL     1      -1.867  -2.677  24.682  0.00  0.00    -0.107 NA
ATOM     19  C   UNL     1      -3.306  -1.149  25.151  0.00  0.00    +0.218 A 
ATOM     22  C   UNL     1      -1.321  -1.491  24.554  0.00  0.00    +0.248 A 
BRANCH  22  24
ATOM     24  C   UNL     1       0.009  -1.115  24.173  0.00  0.00    +0.039 A 
ATOM     26  C   UNL     1       0.222   0.054  23.441  0.00  0.00    +0.015 A 
ATOM     27  C   UNL     1       1.092  -1.918  24.534  0.00  0.00    +0.015 A 
ATOM     30  C   UNL     1       1.515   0.420  23.071  0.00  0.00    +0.024 A 
ATOM     31  C   UNL     1       2.385  -1.551  24.164  0.00  0.00    +0.024 A 
ATOM     32  C   UNL     1       2.598  -0.383  23.432  0.00  0.00    +0.029 A 
BRANCH  32   6
ATOM      6  N   UNL     1       3.906  -0.013  23.056  0.00  0.00    -0.336 N 
ATOM     33  C   UNL     1       4.121   0.929  21.977  0.00  0.00    +0.129 C 
ATOM     34  C   UNL     1       5.053  -0.577  23.741  0.00  0.00    +0.129 C 
ENDBRANCH  32   6
ENDBRANCH  22  24
ENDBRANCH  15  19
ENDBRANCH  10  15
TORSDOF 9
ENDMDL
MODEL 4
REMARK VINA RESULT:       4.2      2.795      6.469
REMARK  Name = 45783977
REMARK  14 active torsions:
REMARK  status: ('A' for Active; 'I' for Inactive)
REMARK    1  A    between atoms: N_2  and  C_14
REMARK    2  A    between atoms: N_2  and  C_20
REMARK    3  A    between atoms: N_6  and  C_32
REMARK    4  A    between atoms: N_6  and  C_33
REMARK    5  A    between atoms: N_6  and  C_34
REMARK    6  A    between atoms: C_7  and  C_11
REMARK    7  A    between atoms: C_8  and  C_14
REMARK    8  A    between atoms: C_10  and  C_15
REMARK    9  A    between atoms: C_11  and  C_16
REMARK   10  A    between atoms: C_11  and  C_17
REMARK   11  A    between atoms: C_12  and  C_18
REMARK   12  A    between atoms: C_15  and  C_19
REMARK   13  A    between atoms: C_20  and  C_21
REMARK   14  A    between atoms: C_22  and  C_24
REMARK                            x       y       z     vdW  Elec       q    Type
REMARK                         _______ _______ _______ _____ _____    ______ ____
ROOT
ATOM      7  C   UNL     1      -2.806  -1.114  24.620  0.00  0.00    +0.000 C 
ATOM      8  C   UNL     1      -1.514  -0.640  23.915  0.00  0.00    +0.029 C 
ATOM      9  C   UNL     1      -3.722   0.079  24.925  0.00  0.00    +0.012 C 
ATOM     10  C   UNL     1      -4.093   0.901  23.672  0.00  0.00    +0.024 C 
ATOM     12  C   UNL     1      -2.932   1.067  22.702  0.00  0.00    -0.073 C 
ATOM     13  C   UNL     1      -1.784   0.377  22.835  0.00  0.00    -0.023 C 
ATOM     18  C   UNL     1      -3.129   1.995  21.535  0.00  0.00    +0.039 C 
ENDROOT
BRANCH   7  11
ATOM     11  C   UNL     1      -3.538  -2.178  23.791  0.00  0.00    -0.013 C 
ATOM     16  C   UNL     1      -3.237  -3.572  24.329  0.00  0.00    +0.007 C 
ATOM     17  C   UNL     1      -5.040  -1.911  23.789  0.00  0.00    +0.007 C 
ENDBRANCH   7  11
BRANCH   8  14
ATOM     14  C   UNL     1      -0.505  -0.061  24.911  0.00  0.00    +0.089 C 
BRANCH  14   2
ATOM      2  N   UNL     1       0.552   0.651  24.216  0.00  0.00    -0.310 NA
ATOM     35  H   UNL     1       1.268   0.918  24.891  0.00  0.00    +0.122 HD
BRANCH   2  20
ATOM     20  C   UNL     1       1.158  -0.183  23.185  0.00  0.00    +0.136 C 
BRANCH  20  21
ATOM      5  N   UNL     1       3.255  -1.299  23.711  0.00  0.00    -0.259 NA
ATOM     21  C   UNL     1       2.661  -0.170  23.264  0.00  0.00    +0.055 A 
ATOM     23  C   UNL     1       3.351   0.970  22.883  0.00  0.00    +0.024 A 
ATOM     25  C   UNL     1       4.738   0.949  22.967  0.00  0.00    +0.003 A 
ATOM     28  C   UNL     1       4.604  -1.282  23.779  0.00  0.00    +0.111 A 
ATOM     29  C   UNL     1       5.385  -0.194  23.422  0.00  0.00    +0.020 A 
ENDBRANCH  20  21
ENDBRANCH   2  20
ENDBRANCH  14   2
ENDBRANCH   8  14
BRANCH  10  15
ATOM     15  C   UNL     1      -4.688   2.240  24.123  0.00  0.00    +0.105 C 
BRANCH  15  19
ATOM      1  O   UNL     1      -2.717   2.499  25.539  0.00  0.00    -0.420 OA
ATOM      3  N   UNL     1      -3.489   4.417  24.683  0.00  0.00    -0.112 NA
ATOM      4  N   UNL     1      -2.381   4.710  25.457  0.00  0.00    -0.107 NA
ATOM     19  C   UNL     1      -3.648   3.117  24.761  0.00  0.00    +0.218 A 
ATOM     22  C   UNL     1      -1.964   3.561  25.936  0.00  0.00    +0.248 A 
BRANCH  22  24
ATOM     24  C   UNL     1      -0.857   3.259  26.797  0.00  0.00    +0.039 A 
ATOM     26  C   UNL     1       0.418   3.085  26.259  0.00  0.00    +0.015 A 
ATOM     27  C   UNL     1      -1.056   3.138  28.173  0.00  0.00    +0.015 A 
ATOM     30  C   UNL     1       1.494   2.792  27.095  0.00  0.00    +0.024 A 
ATOM     31  C   UNL     1       0.020   2.845  29.009  0.00  0.00    +0.024 A 
ATOM     32  C   UNL     1       1.295   2.672  28.472  0.00  0.00    +0.029 A 
BRANCH  32   6
ATOM      6  N   UNL     1       2.384   2.374  29.318  0.00  0.00    -0.336 N 
ATOM     33  C   UNL     1       2.163   1.741  30.602  0.00  0.00    +0.129 C 
ATOM     34  C   UNL     1       3.737   2.702  28.916  0.00  0.00    +0.129 C 
ENDBRANCH  32   6
ENDBRANCH  22  24
ENDBRANCH  15  19
ENDBRANCH  10  15
TORSDOF 9
ENDMDL
MODEL 5
REMARK VINA RESULT:       5.0      1.524      2.794
REMARK  Name = 45783977
REMARK  14 active torsions:
REMARK  status: ('A' for Active; 'I' for Inactive)
REMARK    1  A    between atoms: N_2  and  C_14
REMARK    2  A    between atoms: N_2  and  C_20
REMARK    3  A    between atoms: N_6  and  C_32
REMARK    4  A    between atoms: N_6  and  C_33
REMARK    5  A    between atoms: N_6  and  C_34
REMARK    6  A    between atoms: C_7  and  C_11
REMARK    7  A    between atoms: C_8  and  C_14
REMARK    8  A    between atoms: C_10  and  C_15
REMARK    9  A    between atoms: C_11  and  C_16
REMARK   10  A    between atoms: C_11  and  C_17
REMARK   11  A    between atoms: C_12  and  C_18
REMARK   12  A    between atoms: C_15  and  C_19
REMARK   13  A    between atoms: C_20  and  C_21
REMARK   14  A    between atoms: C_22  and  C_24
REMARK                            x       y       z     vdW  Elec       q    Type
REMARK                         _______ _______ _______ _____ _____    ______ ____
ROOT
ATOM      7  C   UNL     1      -4.285   2.334  24.927  0.00  0.00    +0.000 C 
ATOM      8  C   UNL     1      -4.119   3.231  23.679  0.00  0.00    +0.029 C 
ATOM      9  C   UNL     1      -2.917   2.013  25.546  0.00  0.00    +0.012 C 
ATOM     10  C   UNL     1      -2.107   3.271  25.921  0.00  0.00    +0.024 C 
ATOM     12  C   UNL     1      -2.229   4.389  24.896  0.00  0.00    -0.073 C 
ATOM     13  C   UNL     1      -3.128   4.346  23.895  0.00  0.00    -0.023 C 
ATOM     18  C   UNL     1      -1.345   5.592  25.070  0.00  0.00    +0.039 C 
ENDROOT
BRANCH   7  11
ATOM     11  C   UNL     1      -5.223   2.977  25.958  0.00  0.00    -0.013 C 
ATOM     16  C   UNL     1      -5.868   4.232  25.380  0.00  0.00    +0.007 C 
ATOM     17  C   UNL     1      -6.286   1.979  26.405  0.00  0.00    +0.007 C 
ENDBRANCH   7  11
BRANCH   8  14
ATOM     14  C   UNL     1      -3.703   2.418  22.449  0.00  0.00    +0.089 C 
BRANCH  14   2
ATOM      2  N   UNL     1      -2.997   1.213  22.845  0.00  0.00    -0.310 NA
ATOM     35  H   UNL     1      -2.559   1.371  23.752  0.00  0.00    +0.122 HD
BRANCH   2  20
ATOM     20  C   UNL     1      -3.909   0.079  22.948  0.00  0.00    +0.136 C 
BRANCH  20  21
ATOM      5  N   UNL     1      -1.999  -0.946  24.051  0.00  0.00    -0.259 NA
ATOM     21  C   UNL     1      -3.311  -1.051  23.743  0.00  0.00    +0.055 A 
ATOM     23  C   UNL     1      -4.113  -2.117  24.116  0.00  0.00    +0.024 A 
ATOM     25  C   UNL     1      -3.530  -3.143  24.850  0.00  0.00    +0.003 A 
ATOM     28  C   UNL     1      -1.467  -1.963  24.766  0.00  0.00    +0.111 A 
ATOM     29  C   UNL     1      -2.183  -3.073  25.186  0.00  0.00    +0.020 A 
ENDBRANCH  20  21
ENDBRANCH   2  20
ENDBRANCH  14   2
ENDBRANCH   8  14
BRANCH  10  15
ATOM     15  C   UNL     1      -0.652   2.857  26.179  0.00  0.00    +0.105 C 
BRANCH  15  19
ATOM      1  O   UNL     1       1.242   1.791  25.070  0.00  0.00    -0.420 OA
ATOM      3  N   UNL     1      -0.680   1.658  23.932  0.00  0.00    -0.112 NA
ATOM      4  N   UNL     1       0.299   1.018  23.194  0.00  0.00    -0.107 NA
ATOM     19  C   UNL     1      -0.084   2.093  25.017  0.00  0.00    +0.218 A 
ATOM     22  C   UNL     1       1.403   1.121  23.896  0.00  0.00    +0.248 A 
BRANCH  22  24
ATOM     24  C   UNL     1       2.728   0.645  23.622  0.00  0.00    +0.039 A 
ATOM     26  C   UNL     1       3.054  -0.689  23.867  0.00  0.00    +0.015 A 
ATOM     27  C   UNL     1       3.691   1.516  23.110  0.00  0.00    +0.015 A 
ATOM     30  C   UNL     1       4.341  -1.153  23.600  0.00  0.00    +0.024 A 
ATOM     31  C   UNL     1       4.978   1.052  22.843  0.00  0.00    +0.024 A 
ATOM     32  C   UNL     1       5.305  -0.282  23.088  0.00  0.00    +0.029 A 
BRANCH  32   6
ATOM      6  N   UNL     1       6.607  -0.751  22.819  0.00  0.00    -0.336 N 
ATOM     33  C   UNL     1       7.764   0.012  23.245  0.00  0.00    +0.129 C 
ATOM     34  C   UNL     1       6.807  -1.998  22.108  0.00  0.00    +0.129 C 
ENDBRANCH  32   6
ENDBRANCH  22  24
ENDBRANCH  15  19
ENDBRANCH  10  15
TORSDOF 9
ENDMDL
