MODEL 1
REMARK VINA RESULT:      -0.6      0.000      0.000
REMARK  Name = 26744756
REMARK  5 active torsions:
REMARK  status: ('A' for Active; 'I' for Inactive)
REMARK    1  A    between atoms: N_2  and  C_13
REMARK    2  A    between atoms: C_8  and  C_14
REMARK    3  A    between atoms: C_13  and  C_15
REMARK    4  A    between atoms: C_19  and  C_22
REMARK    5  A    between atoms: C_20  and  C_26
REMARK                            x       y       z     vdW  Elec       q    Type
REMARK                         _______ _______ _______ _____ _____    ______ ____
ROOT
ATOM      2  N   UNL     1      -0.861   1.594  25.627  0.00  0.00    -0.281 NA
ATOM      3  N   UNL     1      -2.703   4.823  26.126  0.00  0.00    -0.347 N 
ATOM      4  N   UNL     1      -1.327   5.616  24.551  0.00  0.00    -0.240 NA
ATOM      8  C   UNL     1      -0.497   1.904  24.201  0.00  0.00    +0.152 C 
ATOM      9  C   UNL     1      -0.180   3.427  23.981  0.00  0.00    +0.086 C 
ATOM     10  C   UNL     1      -2.069   2.344  26.078  0.00  0.00    +0.140 C 
ATOM     11  C   UNL     1      -1.980   3.761  25.673  0.00  0.00    +0.053 A 
ATOM     12  C   UNL     1      -1.152   4.270  24.707  0.00  0.00    +0.065 A 
ATOM     16  C   UNL     1      -2.273   5.919  25.420  0.00  0.00    +0.197 A 
ATOM     30  H   UNL     1      -3.419   4.811  26.839  0.00  0.00    +0.167 HD
ENDROOT
BRANCH   8  14
ATOM      1  O   UNL     1       0.451   0.306  22.599  0.00  0.00    -0.336 OA
ATOM      5  N   UNL     1       1.920   1.055  24.114  0.00  0.00    -0.190 NA
ATOM      6  N   UNL     1       1.668  -0.323  22.306  0.00  0.00    -0.056 NA
ATOM     14  C   UNL     1       0.687   1.099  23.677  0.00  0.00    +0.245 A 
ATOM     19  C   UNL     1       2.483   0.170  23.243  0.00  0.00    +0.202 A 
BRANCH  19  22
ATOM     22  C   UNL     1       3.867  -0.200  23.333  0.00  0.00    +0.022 A 
ATOM     24  C   UNL     1       4.857   0.717  22.984  0.00  0.00    +0.012 A 
ATOM     25  C   UNL     1       4.220  -1.477  23.770  0.00  0.00    +0.012 A 
ATOM     27  C   UNL     1       6.203   0.358  23.072  0.00  0.00    +0.001 A 
ATOM     28  C   UNL     1       5.565  -1.837  23.857  0.00  0.00    +0.001 A 
ATOM     29  C   UNL     1       6.557  -0.919  23.508  0.00  0.00    +0.000 A 
ENDBRANCH  19  22
ENDBRANCH   8  14
BRANCH   2  13
ATOM     13  C   UNL     1      -1.107   0.161  25.842  0.00  0.00    +0.120 C 
BRANCH  13  15
ATOM     15  C   UNL     1      -2.413  -0.280  25.239  0.00  0.00    -0.032 A 
ATOM     17  C   UNL     1      -3.512   0.578  25.248  0.00  0.00    +0.023 A 
ATOM     18  C   UNL     1      -2.524  -1.549  24.670  0.00  0.00    +0.005 A 
ATOM     20  C   UNL     1      -4.722   0.169  24.688  0.00  0.00    +0.052 A 
ATOM     21  C   UNL     1      -3.734  -1.958  24.109  0.00  0.00    +0.002 A 
ATOM     23  C   UNL     1      -4.833  -1.099  24.118  0.00  0.00    +0.019 A 
BRANCH  20  26
ATOM      7  N   UNL     1      -6.763   1.763  24.703  0.00  0.00    -0.191 NA
ATOM     26  C   UNL     1      -5.848   1.048  24.696  0.00  0.00    +0.099 C 
ENDBRANCH  20  26
ENDBRANCH  13  15
ENDBRANCH   2  13
TORSDOF 5
ENDMDL
MODEL 2
REMARK VINA RESULT:      -0.1      1.904      4.227
REMARK  Name = 26744756
REMARK  5 active torsions:
REMARK  status: ('A' for Active; 'I' for Inactive)
REMARK    1  A    between atoms: N_2  and  C_13
REMARK    2  A    between atoms: C_8  and  C_14
REMARK    3  A    between atoms: C_13  and  C_15
REMARK    4  A    between atoms: C_19  and  C_22
REMARK    5  A    between atoms: C_20  and  C_26
REMARK                            x       y       z     vdW  Elec       q    Type
REMARK                         _______ _______ _______ _____ _____    ______ ____
ROOT
ATOM      2  N   UNL     1      -2.011   0.543  23.037  0.00  0.00    -0.281 NA
ATOM      3  N   UNL     1      -4.791  -1.842  23.845  0.00  0.00    -0.347 N 
ATOM      4  N   UNL     1      -3.155  -3.186  24.566  0.00  0.00    -0.240 NA
ATOM      8  C   UNL     1      -1.098  -0.001  24.100  0.00  0.00    +0.152 C 
ATOM      9  C   UNL     1      -1.234  -1.557  24.268  0.00  0.00    +0.086 C 
ATOM     10  C   UNL     1      -3.448   0.276  23.335  0.00  0.00    +0.140 C 
ATOM     11  C   UNL     1      -3.636  -1.123  23.767  0.00  0.00    +0.053 A 
ATOM     12  C   UNL     1      -2.653  -1.963  24.219  0.00  0.00    +0.065 A 
ATOM     16  C   UNL     1      -4.449  -3.079  24.332  0.00  0.00    +0.197 A 
ATOM     30  H   UNL     1      -5.720  -1.529  23.599  0.00  0.00    +0.167 HD
ENDROOT
BRANCH   8  14
ATOM      1  O   UNL     1       0.683   1.620  23.631  0.00  0.00    -0.336 OA
ATOM      5  N   UNL     1       1.409  -0.485  23.872  0.00  0.00    -0.190 NA
ATOM      6  N   UNL     1       2.072   1.664  23.456  0.00  0.00    -0.056 NA
ATOM     14  C   UNL     1       0.375   0.318  23.872  0.00  0.00    +0.245 A 
ATOM     19  C   UNL     1       2.426   0.385  23.612  0.00  0.00    +0.202 A 
BRANCH  19  22
ATOM     22  C   UNL     1       3.789  -0.054  23.518  0.00  0.00    +0.022 A 
ATOM     24  C   UNL     1       4.780   0.834  23.103  0.00  0.00    +0.012 A 
ATOM     25  C   UNL     1       4.122  -1.369  23.842  0.00  0.00    +0.012 A 
ATOM     27  C   UNL     1       6.106   0.407  23.011  0.00  0.00    +0.001 A 
ATOM     28  C   UNL     1       5.446  -1.797  23.749  0.00  0.00    +0.001 A 
ATOM     29  C   UNL     1       6.438  -0.908  23.335  0.00  0.00    +0.000 A 
ENDBRANCH  19  22
ENDBRANCH   8  14
BRANCH   2  13
ATOM     13  C   UNL     1      -1.846   1.991  22.846  0.00  0.00    +0.120 C 
BRANCH  13  15
ATOM     15  C   UNL     1      -2.372   2.775  24.018  0.00  0.00    -0.032 A 
ATOM     17  C   UNL     1      -3.642   2.503  24.526  0.00  0.00    +0.023 A 
ATOM     18  C   UNL     1      -1.588   3.773  24.597  0.00  0.00    +0.005 A 
ATOM     20  C   UNL     1      -4.129   3.230  25.613  0.00  0.00    +0.052 A 
ATOM     21  C   UNL     1      -2.074   4.498  25.685  0.00  0.00    +0.002 A 
ATOM     23  C   UNL     1      -3.345   4.227  26.193  0.00  0.00    +0.019 A 
BRANCH  20  26
ATOM      7  N   UNL     1      -6.486   2.727  26.559  0.00  0.00    -0.191 NA
ATOM     26  C   UNL     1      -5.430   2.952  26.135  0.00  0.00    +0.099 C 
ENDBRANCH  20  26
ENDBRANCH  13  15
ENDBRANCH   2  13
TORSDOF 5
ENDMDL
MODEL 3
REMARK VINA RESULT:       0.5      2.077      3.613
REMARK  Name = 26744756
REMARK  5 active torsions:
REMARK  status: ('A' for Active; 'I' for Inactive)
REMARK    1  A    between atoms: N_2  and  C_13
REMARK    2  A    between atoms: C_8  and  C_14
REMARK    3  A    between atoms: C_13  and  C_15
REMARK    4  A    between atoms: C_19  and  C_22
REMARK    5  A    between atoms: C_20  and  C_26
REMARK                            x       y       z     vdW  Elec       q    Type
REMARK                         _______ _______ _______ _____ _____    ______ ____
ROOT
ATOM      2  N   UNL     1      -3.729   1.728  24.329  0.00  0.00    -0.281 NA
ATOM      3  N   UNL     1      -6.503   3.938  25.548  0.00  0.00    -0.347 N 
ATOM      4  N   UNL     1      -4.858   5.182  26.413  0.00  0.00    -0.240 NA
ATOM      8  C   UNL     1      -2.726   2.846  24.271  0.00  0.00    +0.152 C 
ATOM      9  C   UNL     1      -2.911   3.879  25.440  0.00  0.00    +0.086 C 
ATOM     10  C   UNL     1      -5.133   2.222  24.234  0.00  0.00    +0.140 C 
ATOM     11  C   UNL     1      -5.334   3.386  25.120  0.00  0.00    +0.053 A 
ATOM     12  C   UNL     1      -4.343   4.167  25.656  0.00  0.00    +0.065 A 
ATOM     16  C   UNL     1      -6.163   5.018  26.326  0.00  0.00    +0.197 A 
ATOM     30  H   UNL     1      -7.439   3.622  25.335  0.00  0.00    +0.167 HD
ENDROOT
BRANCH   8  14
ATOM      1  O   UNL     1      -0.604   2.524  25.460  0.00  0.00    -0.336 OA
ATOM      5  N   UNL     1      -0.564   1.843  23.327  0.00  0.00    -0.190 NA
ATOM      6  N   UNL     1       0.687   2.030  25.233  0.00  0.00    -0.056 NA
ATOM     14  C   UNL     1      -1.275   2.376  24.288  0.00  0.00    +0.245 A 
ATOM     19  C   UNL     1       0.632   1.648  23.954  0.00  0.00    +0.202 A 
BRANCH  19  22
ATOM     22  C   UNL     1       1.754   1.066  23.274  0.00  0.00    +0.022 A 
ATOM     24  C   UNL     1       3.026   1.611  23.438  0.00  0.00    +0.012 A 
ATOM     25  C   UNL     1       1.571  -0.044  22.451  0.00  0.00    +0.012 A 
ATOM     27  C   UNL     1       4.118   1.046  22.777  0.00  0.00    +0.001 A 
ATOM     28  C   UNL     1       2.661  -0.610  21.790  0.00  0.00    +0.001 A 
ATOM     29  C   UNL     1       3.935  -0.065  21.954  0.00  0.00    +0.000 A 
ENDBRANCH  19  22
ENDBRANCH   8  14
BRANCH   2  13
ATOM     13  C   UNL     1      -3.522   0.735  23.265  0.00  0.00    +0.120 C 
BRANCH  13  15
ATOM     15  C   UNL     1      -3.229  -0.632  23.822  0.00  0.00    -0.032 A 
ATOM     17  C   UNL     1      -1.954  -0.934  24.299  0.00  0.00    +0.023 A 
ATOM     18  C   UNL     1      -4.235  -1.597  23.862  0.00  0.00    +0.005 A 
ATOM     20  C   UNL     1      -1.684  -2.201  24.816  0.00  0.00    +0.052 A 
ATOM     21  C   UNL     1      -3.966  -2.864  24.381  0.00  0.00    +0.002 A 
ATOM     23  C   UNL     1      -2.690  -3.166  24.857  0.00  0.00    +0.019 A 
BRANCH  20  26
ATOM      7  N   UNL     1       0.683  -2.763  25.703  0.00  0.00    -0.191 NA
ATOM     26  C   UNL     1      -0.378  -2.511  25.306  0.00  0.00    +0.099 C 
ENDBRANCH  20  26
ENDBRANCH  13  15
ENDBRANCH   2  13
TORSDOF 5
ENDMDL
MODEL 4
REMARK VINA RESULT:       0.6      1.613      2.792
REMARK  Name = 26744756
REMARK  5 active torsions:
REMARK  status: ('A' for Active; 'I' for Inactive)
REMARK    1  A    between atoms: N_2  and  C_13
REMARK    2  A    between atoms: C_8  and  C_14
REMARK    3  A    between atoms: C_13  and  C_15
REMARK    4  A    between atoms: C_19  and  C_22
REMARK    5  A    between atoms: C_20  and  C_26
REMARK                            x       y       z     vdW  Elec       q    Type
REMARK                         _______ _______ _______ _____ _____    ______ ____
ROOT
ATOM      2  N   UNL     1      -2.885   1.594  24.177  0.00  0.00    -0.281 NA
ATOM      3  N   UNL     1      -4.405   4.549  25.918  0.00  0.00    -0.347 N 
ATOM      4  N   UNL     1      -2.300   5.287  26.067  0.00  0.00    -0.240 NA
ATOM      8  C   UNL     1      -1.702   2.372  23.672  0.00  0.00    +0.152 C 
ATOM      9  C   UNL     1      -1.207   3.448  24.704  0.00  0.00    +0.086 C 
ATOM     10  C   UNL     1      -4.057   2.471  24.465  0.00  0.00    +0.140 C 
ATOM     11  C   UNL     1      -3.636   3.669  25.218  0.00  0.00    +0.053 A 
ATOM     12  C   UNL     1      -2.355   4.146  25.318  0.00  0.00    +0.065 A 
ATOM     16  C   UNL     1      -3.554   5.506  26.412  0.00  0.00    +0.197 A 
ATOM     30  H   UNL     1      -5.407   4.511  26.048  0.00  0.00    +0.167 HD
ENDROOT
BRANCH   8  14
ATOM      1  O   UNL     1      -0.714   0.580  22.319  0.00  0.00    -0.336 OA
ATOM      5  N   UNL     1       0.711   1.511  23.774  0.00  0.00    -0.190 NA
ATOM      6  N   UNL     1       0.506  -0.085  22.148  0.00  0.00    -0.056 NA
ATOM     14  C   UNL     1      -0.507   1.503  23.294  0.00  0.00    +0.245 A 
ATOM     19  C   UNL     1       1.295   0.520  23.041  0.00  0.00    +0.202 A 
BRANCH  19  22
ATOM     22  C   UNL     1       2.672   0.159  23.223  0.00  0.00    +0.022 A 
ATOM     24  C   UNL     1       3.674   1.100  22.993  0.00  0.00    +0.012 A 
ATOM     25  C   UNL     1       3.006  -1.131  23.632  0.00  0.00    +0.012 A 
ATOM     27  C   UNL     1       5.014   0.750  23.170  0.00  0.00    +0.001 A 
ATOM     28  C   UNL     1       4.345  -1.482  23.809  0.00  0.00    +0.001 A 
ATOM     29  C   UNL     1       5.348  -0.540  23.578  0.00  0.00    +0.000 A 
ENDBRANCH  19  22
ENDBRANCH   8  14
BRANCH   2  13
ATOM     13  C   UNL     1      -3.315   0.554  23.233  0.00  0.00    +0.120 C 
BRANCH  13  15
ATOM     15  C   UNL     1      -3.108  -0.829  23.790  0.00  0.00    -0.032 A 
ATOM     17  C   UNL     1      -1.864  -1.197  24.301  0.00  0.00    +0.023 A 
ATOM     18  C   UNL     1      -4.162  -1.743  23.795  0.00  0.00    +0.005 A 
ATOM     20  C   UNL     1      -1.673  -2.479  24.818  0.00  0.00    +0.052 A 
ATOM     21  C   UNL     1      -3.972  -3.024  24.313  0.00  0.00    +0.002 A 
ATOM     23  C   UNL     1      -2.727  -3.392  24.824  0.00  0.00    +0.019 A 
BRANCH  20  26
ATOM      7  N   UNL     1       0.636  -3.164  25.769  0.00  0.00    -0.191 NA
ATOM     26  C   UNL     1      -0.399  -2.857  25.343  0.00  0.00    +0.099 C 
ENDBRANCH  20  26
ENDBRANCH  13  15
ENDBRANCH   2  13
TORSDOF 5
ENDMDL
MODEL 5
REMARK VINA RESULT:       0.8      1.700      2.287
REMARK  Name = 26744756
REMARK  5 active torsions:
REMARK  status: ('A' for Active; 'I' for Inactive)
REMARK    1  A    between atoms: N_2  and  C_13
REMARK    2  A    between atoms: C_8  and  C_14
REMARK    3  A    between atoms: C_13  and  C_15
REMARK    4  A    between atoms: C_19  and  C_22
REMARK    5  A    between atoms: C_20  and  C_26
REMARK                            x       y       z     vdW  Elec       q    Type
REMARK                         _______ _______ _______ _____ _____    ______ ____
ROOT
ATOM      2  N   UNL     1      -1.513   1.661  25.463  0.00  0.00    -0.281 NA
ATOM      3  N   UNL     1      -4.436   3.999  25.214  0.00  0.00    -0.347 N 
ATOM      4  N   UNL     1      -3.757   4.299  23.105  0.00  0.00    -0.240 NA
ATOM      8  C   UNL     1      -1.521   1.333  23.996  0.00  0.00    +0.152 C 
ATOM      9  C   UNL     1      -1.900   2.571  23.106  0.00  0.00    +0.086 C 
ATOM     10  C   UNL     1      -2.845   2.133  25.944  0.00  0.00    +0.140 C 
ATOM     11  C   UNL     1      -3.412   3.125  25.009  0.00  0.00    +0.053 A 
ATOM     12  C   UNL     1      -3.018   3.323  23.712  0.00  0.00    +0.065 A 
ATOM     16  C   UNL     1      -4.606   4.685  24.037  0.00  0.00    +0.197 A 
ATOM     30  H   UNL     1      -4.972   4.120  26.063  0.00  0.00    +0.167 HD
ENDROOT
BRANCH   8  14
ATOM      1  O   UNL     1      -0.248   0.082  22.313  0.00  0.00    -0.336 OA
ATOM      5  N   UNL     1       0.999   0.861  24.002  0.00  0.00    -0.190 NA
ATOM      6  N   UNL     1       1.065  -0.325  22.048  0.00  0.00    -0.056 NA
ATOM     14  C   UNL     1      -0.199   0.774  23.481  0.00  0.00    +0.245 A 
ATOM     19  C   UNL     1       1.740   0.172  23.088  0.00  0.00    +0.202 A 
BRANCH  19  22
ATOM     22  C   UNL     1       3.157  -0.001  23.242  0.00  0.00    +0.022 A 
ATOM     24  C   UNL     1       3.665  -1.217  23.695  0.00  0.00    +0.012 A 
ATOM     25  C   UNL     1       4.024   1.048  22.938  0.00  0.00    +0.012 A 
ATOM     27  C   UNL     1       5.042  -1.386  23.845  0.00  0.00    +0.001 A 
ATOM     28  C   UNL     1       5.401   0.881  23.088  0.00  0.00    +0.001 A 
ATOM     29  C   UNL     1       5.909  -0.337  23.541  0.00  0.00    +0.000 A 
ENDBRANCH  19  22
ENDBRANCH   8  14
BRANCH   2  13
ATOM     13  C   UNL     1      -1.109   0.516  26.290  0.00  0.00    +0.120 C 
BRANCH  13  15
ATOM     15  C   UNL     1      -1.405  -0.796  25.614  0.00  0.00    -0.032 A 
ATOM     17  C   UNL     1      -2.671  -1.038  25.083  0.00  0.00    +0.023 A 
ATOM     18  C   UNL     1      -0.411  -1.770  25.518  0.00  0.00    +0.005 A 
ATOM     20  C   UNL     1      -2.945  -2.254  24.456  0.00  0.00    +0.052 A 
ATOM     21  C   UNL     1      -0.683  -2.985  24.889  0.00  0.00    +0.002 A 
ATOM     23  C   UNL     1      -1.951  -3.227  24.359  0.00  0.00    +0.019 A 
BRANCH  20  26
ATOM      7  N   UNL     1      -5.296  -2.705  23.469  0.00  0.00    -0.191 NA
ATOM     26  C   UNL     1      -4.242  -2.503  23.911  0.00  0.00    +0.099 C 
ENDBRANCH  20  26
ENDBRANCH  13  15
ENDBRANCH   2  13
TORSDOF 5
ENDMDL
MODEL 6
REMARK VINA RESULT:       1.3      1.284      1.985
REMARK  Name = 26744756
REMARK  5 active torsions:
REMARK  status: ('A' for Active; 'I' for Inactive)
REMARK    1  A    between atoms: N_2  and  C_13
REMARK    2  A    between atoms: C_8  and  C_14
REMARK    3  A    between atoms: C_13  and  C_15
REMARK    4  A    between atoms: C_19  and  C_22
REMARK    5  A    between atoms: C_20  and  C_26
REMARK                            x       y       z     vdW  Elec       q    Type
REMARK                         _______ _______ _______ _____ _____    ______ ____
ROOT
ATOM      2  N   UNL     1      -0.898   1.905  25.668  0.00  0.00    -0.281 NA
ATOM      3  N   UNL     1      -2.629   5.215  26.010  0.00  0.00    -0.347 N 
ATOM      4  N   UNL     1      -1.266   5.868  24.362  0.00  0.00    -0.240 NA
ATOM      8  C   UNL     1      -0.558   2.118  24.219  0.00  0.00    +0.152 C 
ATOM      9  C   UNL     1      -0.200   3.613  23.901  0.00  0.00    +0.086 C 
ATOM     10  C   UNL     1      -2.072   2.718  26.098  0.00  0.00    +0.140 C 
ATOM     11  C   UNL     1      -1.949   4.105  25.606  0.00  0.00    +0.053 A 
ATOM     12  C   UNL     1      -1.128   4.529  24.595  0.00  0.00    +0.065 A 
ATOM     16  C   UNL     1      -2.181   6.253  25.230  0.00  0.00    +0.197 A 
ATOM     30  H   UNL     1      -3.329   5.268  26.737  0.00  0.00    +0.167 HD
ENDROOT
BRANCH   8  14
ATOM      1  O   UNL     1       0.297   0.376  22.717  0.00  0.00    -0.336 OA
ATOM      5  N   UNL     1       1.836   1.206  24.117  0.00  0.00    -0.190 NA
ATOM      6  N   UNL     1       1.489  -0.303  22.433  0.00  0.00    -0.056 NA
ATOM     14  C   UNL     1       0.590   1.246  23.719  0.00  0.00    +0.245 A 
ATOM     19  C   UNL     1       2.348   0.242  23.299  0.00  0.00    +0.202 A 
BRANCH  19  22
ATOM     22  C   UNL     1       3.726  -0.154  23.371  0.00  0.00    +0.022 A 
ATOM     24  C   UNL     1       4.060  -1.440  23.794  0.00  0.00    +0.012 A 
ATOM     25  C   UNL     1       4.729   0.746  23.016  0.00  0.00    +0.012 A 
ATOM     27  C   UNL     1       5.399  -1.826  23.864  0.00  0.00    +0.001 A 
ATOM     28  C   UNL     1       6.069   0.362  23.086  0.00  0.00    +0.001 A 
ATOM     29  C   UNL     1       6.403  -0.925  23.509  0.00  0.00    +0.000 A 
ENDBRANCH  19  22
ENDBRANCH   8  14
BRANCH   2  13
ATOM     13  C   UNL     1      -1.183   0.495  25.974  0.00  0.00    +0.120 C 
BRANCH  13  15
ATOM     15  C   UNL     1      -2.457   0.027  25.323  0.00  0.00    -0.032 A 
ATOM     17  C   UNL     1      -2.597  -1.306  24.940  0.00  0.00    +0.023 A 
ATOM     18  C   UNL     1      -3.499   0.929  25.103  0.00  0.00    +0.005 A 
ATOM     20  C   UNL     1      -3.778  -1.739  24.337  0.00  0.00    +0.052 A 
ATOM     21  C   UNL     1      -4.681   0.496  24.501  0.00  0.00    +0.002 A 
ATOM     23  C   UNL     1      -4.820  -0.838  24.118  0.00  0.00    +0.019 A 
BRANCH  20  26
ATOM      7  N   UNL     1      -4.040  -4.215  23.626  0.00  0.00    -0.191 NA
ATOM     26  C   UNL     1      -3.922  -3.105  23.945  0.00  0.00    +0.099 C 
ENDBRANCH  20  26
ENDBRANCH  13  15
ENDBRANCH   2  13
TORSDOF 5
ENDMDL
MODEL 7
REMARK VINA RESULT:       1.8      1.936      6.572
REMARK  Name = 26744756
REMARK  5 active torsions:
REMARK  status: ('A' for Active; 'I' for Inactive)
REMARK    1  A    between atoms: N_2  and  C_13
REMARK    2  A    between atoms: C_8  and  C_14
REMARK    3  A    between atoms: C_13  and  C_15
REMARK    4  A    between atoms: C_19  and  C_22
REMARK    5  A    between atoms: C_20  and  C_26
REMARK                            x       y       z     vdW  Elec       q    Type
REMARK                         _______ _______ _______ _____ _____    ______ ____
ROOT
ATOM      2  N   UNL     1       0.148  -0.223  24.420  0.00  0.00    -0.281 NA
ATOM      3  N   UNL     1       3.268  -0.869  22.442  0.00  0.00    -0.347 N 
ATOM      4  N   UNL     1       3.388   1.359  22.288  0.00  0.00    -0.240 NA
ATOM      8  C   UNL     1       0.607   1.128  24.895  0.00  0.00    +0.152 C 
ATOM      9  C   UNL     1       1.426   1.901  23.801  0.00  0.00    +0.086 C 
ATOM     10  C   UNL     1       1.289  -1.108  24.046  0.00  0.00    +0.140 C 
ATOM     11  C   UNL     1       2.266  -0.372  23.219  0.00  0.00    +0.053 A 
ATOM     12  C   UNL     1       2.364   0.991  23.114  0.00  0.00    +0.065 A 
ATOM     16  C   UNL     1       3.917   0.214  21.901  0.00  0.00    +0.197 A 
ATOM     30  H   UNL     1       3.497  -1.842  22.293  0.00  0.00    +0.167 HD
ENDROOT
BRANCH   8  14
ATOM      1  O   UNL     1      -0.364   2.637  26.568  0.00  0.00    -0.336 OA
ATOM      5  N   UNL     1      -1.653   2.332  24.763  0.00  0.00    -0.190 NA
ATOM      6  N   UNL     1      -1.514   3.408  26.776  0.00  0.00    -0.056 NA
ATOM     14  C   UNL     1      -0.526   2.037  25.360  0.00  0.00    +0.245 A 
ATOM     19  C   UNL     1      -2.225   3.175  25.669  0.00  0.00    +0.202 A 
BRANCH  19  22
ATOM     22  C   UNL     1      -3.509   3.772  25.437  0.00  0.00    +0.022 A 
ATOM     24  C   UNL     1      -4.571   3.496  26.297  0.00  0.00    +0.012 A 
ATOM     25  C   UNL     1      -3.694   4.630  24.354  0.00  0.00    +0.012 A 
ATOM     27  C   UNL     1      -5.821   4.076  26.073  0.00  0.00    +0.001 A 
ATOM     28  C   UNL     1      -4.943   5.210  24.128  0.00  0.00    +0.001 A 
ATOM     29  C   UNL     1      -6.006   4.933  24.989  0.00  0.00    +0.000 A 
ENDBRANCH  19  22
ENDBRANCH   8  14
BRANCH   2  13
ATOM     13  C   UNL     1      -0.663  -0.924  25.426  0.00  0.00    +0.120 C 
BRANCH  13  15
ATOM     15  C   UNL     1      -2.046  -1.229  24.918  0.00  0.00    -0.032 A 
ATOM     17  C   UNL     1      -3.044  -0.258  24.980  0.00  0.00    +0.023 A 
ATOM     18  C   UNL     1      -2.329  -2.486  24.384  0.00  0.00    +0.005 A 
ATOM     20  C   UNL     1      -4.325  -0.541  24.509  0.00  0.00    +0.052 A 
ATOM     21  C   UNL     1      -3.611  -2.770  23.910  0.00  0.00    +0.002 A 
ATOM     23  C   UNL     1      -4.609  -1.798  23.974  0.00  0.00    +0.019 A 
BRANCH  20  26
ATOM      7  N   UNL     1      -6.180   1.262  24.622  0.00  0.00    -0.191 NA
ATOM     26  C   UNL     1      -5.348   0.454  24.571  0.00  0.00    +0.099 C 
ENDBRANCH  20  26
ENDBRANCH  13  15
ENDBRANCH   2  13
TORSDOF 5
ENDMDL
MODEL 8
REMARK VINA RESULT:       1.8      2.058      4.730
REMARK  Name = 26744756
REMARK  5 active torsions:
REMARK  status: ('A' for Active; 'I' for Inactive)
REMARK    1  A    between atoms: N_2  and  C_13
REMARK    2  A    between atoms: C_8  and  C_14
REMARK    3  A    between atoms: C_13  and  C_15
REMARK    4  A    between atoms: C_19  and  C_22
REMARK    5  A    between atoms: C_20  and  C_26
REMARK                            x       y       z     vdW  Elec       q    Type
REMARK                         _______ _______ _______ _____ _____    ______ ____
ROOT
ATOM      2  N   UNL     1      -2.063   0.363  22.916  0.00  0.00    -0.281 NA
ATOM      3  N   UNL     1      -5.050  -1.589  24.072  0.00  0.00    -0.347 N 
ATOM      4  N   UNL     1      -3.584  -3.243  24.412  0.00  0.00    -0.240 NA
ATOM      8  C   UNL     1      -1.098  -0.416  23.767  0.00  0.00    +0.152 C 
ATOM      9  C   UNL     1      -1.479  -1.936  23.868  0.00  0.00    +0.086 C 
ATOM     10  C   UNL     1      -3.455   0.313  23.450  0.00  0.00    +0.140 C 
ATOM     11  C   UNL     1      -3.815  -1.068  23.830  0.00  0.00    +0.053 A 
ATOM     12  C   UNL     1      -2.936  -2.095  24.051  0.00  0.00    +0.065 A 
ATOM     16  C   UNL     1      -4.858  -2.904  24.419  0.00  0.00    +0.197 A 
ATOM     30  H   UNL     1      -5.936  -1.106  24.014  0.00  0.00    +0.167 HD
ENDROOT
BRANCH   8  14
ATOM      1  O   UNL     1       0.545  -0.130  21.967  0.00  0.00    -0.336 OA
ATOM      5  N   UNL     1       1.456  -0.414  23.993  0.00  0.00    -0.190 NA
ATOM      6  N   UNL     1       1.932  -0.083  21.781  0.00  0.00    -0.056 NA
ATOM     14  C   UNL     1       0.350  -0.327  23.298  0.00  0.00    +0.245 A 
ATOM     19  C   UNL     1       2.399  -0.259  23.020  0.00  0.00    +0.202 A 
BRANCH  19  22
ATOM     22  C   UNL     1       3.802  -0.282  23.320  0.00  0.00    +0.022 A 
ATOM     24  C   UNL     1       4.574   0.862  23.125  0.00  0.00    +0.012 A 
ATOM     25  C   UNL     1       4.392  -1.447  23.807  0.00  0.00    +0.012 A 
ATOM     27  C   UNL     1       5.939   0.841  23.416  0.00  0.00    +0.001 A 
ATOM     28  C   UNL     1       5.757  -1.469  24.099  0.00  0.00    +0.001 A 
ATOM     29  C   UNL     1       6.529  -0.324  23.904  0.00  0.00    +0.000 A 
ENDBRANCH  19  22
ENDBRANCH   8  14
BRANCH   2  13
ATOM     13  C   UNL     1      -1.676   1.774  22.781  0.00  0.00    +0.120 C 
BRANCH  13  15
ATOM     15  C   UNL     1      -1.679   2.486  24.107  0.00  0.00    -0.032 A 
ATOM     17  C   UNL     1      -0.628   2.298  25.003  0.00  0.00    +0.023 A 
ATOM     18  C   UNL     1      -2.736   3.334  24.439  0.00  0.00    +0.005 A 
ATOM     20  C   UNL     1      -0.631   2.959  26.232  0.00  0.00    +0.052 A 
ATOM     21  C   UNL     1      -2.739   3.995  25.668  0.00  0.00    +0.002 A 
ATOM     23  C   UNL     1      -1.687   3.807  26.564  0.00  0.00    +0.019 A 
BRANCH  20  26
ATOM      7  N   UNL     1       1.322   2.613  27.896  0.00  0.00    -0.191 NA
ATOM     26  C   UNL     1       0.446   2.768  27.150  0.00  0.00    +0.099 C 
ENDBRANCH  20  26
ENDBRANCH  13  15
ENDBRANCH   2  13
TORSDOF 5
ENDMDL
