MODEL 1
REMARK VINA RESULT:      -1.3      0.000      0.000
REMARK  Name = 75536401
REMARK  10 active torsions:
REMARK  status: ('A' for Active; 'I' for Inactive)
REMARK    1  A    between atoms: O_3  and  C_9
REMARK    2  A    between atoms: O_5  and  C_30
REMARK    3  A    between atoms: O_5  and  C_31
REMARK    4  A    between atoms: N_6  and  C_13
REMARK    5  A    between atoms: N_6  and  C_16
REMARK    6  A    between atoms: C_8  and  C_13
REMARK    7  A    between atoms: C_10  and  C_14
REMARK    8  A    between atoms: C_14  and  C_15
REMARK    9  A    between atoms: C_16  and  C_18
REMARK   10  A    between atoms: C_19  and  C_20
REMARK                            x       y       z     vdW  Elec       q    Type
REMARK                         _______ _______ _______ _____ _____    ______ ____
ROOT
ATOM      2  O   UNL     1      -3.738   0.377  23.597  0.00  0.00    -0.369 OA
ATOM      8  C   UNL     1      -4.623  -0.208  24.561  0.00  0.00    +0.161 C 
ATOM      9  C   UNL     1      -3.964  -1.397  25.272  0.00  0.00    +0.145 C 
ATOM     10  C   UNL     1      -2.468   0.789  24.108  0.00  0.00    +0.125 C 
ATOM     11  C   UNL     1      -2.574  -1.060  25.803  0.00  0.00    +0.036 C 
ATOM     12  C   UNL     1      -1.725  -0.394  24.724  0.00  0.00    +0.034 C 
ENDROOT
BRANCH   9   3
ATOM      3  O   UNL     1      -3.828  -2.473  24.341  0.00  0.00    -0.389 OA
ATOM     33  H   UNL     1      -4.661  -2.539  23.843  0.00  0.00    +0.210 HD
ENDBRANCH   9   3
BRANCH   8  13
ATOM     13  C   UNL     1      -5.156   0.845  25.529  0.00  0.00    +0.115 C 
BRANCH  13   6
ATOM      6  N   UNL     1      -5.274   2.139  24.874  0.00  0.00    -0.309 NA
ATOM     32  H   UNL     1      -4.668   2.158  24.054  0.00  0.00    +0.122 HD
BRANCH   6  16
ATOM     16  C   UNL     1      -4.882   3.217  25.773  0.00  0.00    +0.116 C 
BRANCH  16  18
ATOM      1 CL   UNL     1       0.198   2.516  26.708  0.00  0.00    -0.084 Cl
ATOM     18  C   UNL     1      -3.457   3.648  25.542  0.00  0.00    -0.032 A 
ATOM     21  C   UNL     1      -2.411   2.962  26.159  0.00  0.00    +0.025 A 
ATOM     22  C   UNL     1      -3.185   4.736  24.712  0.00  0.00    +0.005 A 
ATOM     25  C   UNL     1      -1.093   3.362  25.946  0.00  0.00    +0.041 A 
ATOM     26  C   UNL     1      -1.866   5.136  24.499  0.00  0.00    +0.002 A 
ATOM     27  C   UNL     1      -0.819   4.450  25.115  0.00  0.00    +0.020 A 
ENDBRANCH  16  18
ENDBRANCH   6  16
ENDBRANCH  13   6
ENDBRANCH   8  13
BRANCH  10  14
ATOM     14  C   UNL     1      -1.678   1.383  22.947  0.00  0.00    +0.090 C 
BRANCH  14  15
ATOM      4  O   UNL     1       1.219  -0.600  22.132  0.00  0.00    -0.354 OA
ATOM      7  N   UNL     1      -0.127  -0.279  22.005  0.00  0.00    -0.083 NA
ATOM     15  C   UNL     1      -0.314   0.759  22.824  0.00  0.00    +0.087 A 
ATOM     17  C   UNL     1       0.867   1.134  23.488  0.00  0.00    +0.076 A 
ATOM     19  C   UNL     1       1.800   0.249  23.019  0.00  0.00    +0.167 A 
BRANCH  19  20
ATOM     20  C   UNL     1       3.199   0.041  23.253  0.00  0.00    +0.020 A 
ATOM     23  C   UNL     1       3.657  -1.205  23.682  0.00  0.00    +0.015 A 
ATOM     24  C   UNL     1       4.103   1.084  23.049  0.00  0.00    +0.015 A 
ATOM     28  C   UNL     1       5.019  -1.408  23.909  0.00  0.00    +0.046 A 
ATOM     29  C   UNL     1       5.465   0.881  23.276  0.00  0.00    +0.046 A 
ATOM     30  C   UNL     1       5.922  -0.365  23.706  0.00  0.00    +0.120 A 
BRANCH  30   5
ATOM      5  O   UNL     1       7.250  -0.563  23.924  0.00  0.00    -0.495 OA
ATOM     31  C   UNL     1       8.098  -0.603  22.777  0.00  0.00    +0.277 C 
ENDBRANCH  30   5
ENDBRANCH  19  20
ENDBRANCH  14  15
ENDBRANCH  10  14
TORSDOF 9
ENDMDL
MODEL 2
REMARK VINA RESULT:      -0.6      1.866      2.965
REMARK  Name = 75536401
REMARK  10 active torsions:
REMARK  status: ('A' for Active; 'I' for Inactive)
REMARK    1  A    between atoms: O_3  and  C_9
REMARK    2  A    between atoms: O_5  and  C_30
REMARK    3  A    between atoms: O_5  and  C_31
REMARK    4  A    between atoms: N_6  and  C_13
REMARK    5  A    between atoms: N_6  and  C_16
REMARK    6  A    between atoms: C_8  and  C_13
REMARK    7  A    between atoms: C_10  and  C_14
REMARK    8  A    between atoms: C_14  and  C_15
REMARK    9  A    between atoms: C_16  and  C_18
REMARK   10  A    between atoms: C_19  and  C_20
REMARK                            x       y       z     vdW  Elec       q    Type
REMARK                         _______ _______ _______ _____ _____    ______ ____
ROOT
ATOM      2  O   UNL     1      -4.571   1.261  23.689  0.00  0.00    -0.369 OA
ATOM      8  C   UNL     1      -5.113   2.533  24.068  0.00  0.00    +0.161 C 
ATOM      9  C   UNL     1      -6.167   2.384  25.172  0.00  0.00    +0.145 C 
ATOM     10  C   UNL     1      -4.015   0.493  24.759  0.00  0.00    +0.125 C 
ATOM     11  C   UNL     1      -5.675   1.526  26.334  0.00  0.00    +0.036 C 
ATOM     12  C   UNL     1      -5.069   0.219  25.830  0.00  0.00    +0.034 C 
ENDROOT
BRANCH   9   3
ATOM      3  O   UNL     1      -7.324   1.750  24.621  0.00  0.00    -0.389 OA
ATOM     33  H   UNL     1      -7.086   1.420  23.738  0.00  0.00    +0.210 HD
ENDBRANCH   9   3
BRANCH   8  13
ATOM     13  C   UNL     1      -4.003   3.517  24.433  0.00  0.00    +0.115 C 
BRANCH  13   6
ATOM      6  N   UNL     1      -4.336   4.246  25.648  0.00  0.00    -0.309 NA
ATOM     32  H   UNL     1      -4.569   5.210  25.409  0.00  0.00    +0.122 HD
BRANCH   6  16
ATOM     16  C   UNL     1      -3.213   4.250  26.578  0.00  0.00    +0.116 C 
BRANCH  16  18
ATOM      1 CL   UNL     1       0.434   5.087  22.949  0.00  0.00    -0.084 Cl
ATOM     18  C   UNL     1      -1.934   3.817  25.913  0.00  0.00    -0.032 A 
ATOM     21  C   UNL     1      -1.404   4.566  24.862  0.00  0.00    +0.025 A 
ATOM     22  C   UNL     1      -1.278   2.664  26.348  0.00  0.00    +0.005 A 
ATOM     25  C   UNL     1      -0.220   4.164  24.247  0.00  0.00    +0.041 A 
ATOM     26  C   UNL     1      -0.093   2.262  25.732  0.00  0.00    +0.002 A 
ATOM     27  C   UNL     1       0.437   3.011  24.681  0.00  0.00    +0.020 A 
ENDBRANCH  16  18
ENDBRANCH   6  16
ENDBRANCH  13   6
ENDBRANCH   8  13
BRANCH  10  14
ATOM     14  C   UNL     1      -3.494  -0.810  24.164  0.00  0.00    +0.090 C 
BRANCH  14  15
ATOM      4  O   UNL     1      -0.058  -1.528  24.983  0.00  0.00    -0.354 OA
ATOM      7  N   UNL     1      -1.427  -1.672  25.182  0.00  0.00    -0.083 NA
ATOM     15  C   UNL     1      -1.994  -0.902  24.251  0.00  0.00    +0.087 A 
ATOM     17  C   UNL     1      -1.044  -0.254  23.442  0.00  0.00    +0.076 A 
ATOM     19  C   UNL     1       0.156  -0.680  23.944  0.00  0.00    +0.167 A 
BRANCH  19  20
ATOM     20  C   UNL     1       1.530  -0.434  23.616  0.00  0.00    +0.020 A 
ATOM     23  C   UNL     1       1.893   0.752  22.977  0.00  0.00    +0.015 A 
ATOM     24  C   UNL     1       2.504  -1.379  23.937  0.00  0.00    +0.015 A 
ATOM     28  C   UNL     1       3.229   0.993  22.658  0.00  0.00    +0.046 A 
ATOM     29  C   UNL     1       3.841  -1.139  23.618  0.00  0.00    +0.046 A 
ATOM     30  C   UNL     1       4.203   0.047  22.978  0.00  0.00    +0.120 A 
BRANCH  30   5
ATOM      5  O   UNL     1       5.508   0.282  22.671  0.00  0.00    -0.495 OA
ATOM     31  C   UNL     1       6.491  -0.305  23.522  0.00  0.00    +0.277 C 
ENDBRANCH  30   5
ENDBRANCH  19  20
ENDBRANCH  14  15
ENDBRANCH  10  14
TORSDOF 9
ENDMDL
MODEL 3
REMARK VINA RESULT:      -0.2      1.798      3.803
REMARK  Name = 75536401
REMARK  10 active torsions:
REMARK  status: ('A' for Active; 'I' for Inactive)
REMARK    1  A    between atoms: O_3  and  C_9
REMARK    2  A    between atoms: O_5  and  C_30
REMARK    3  A    between atoms: O_5  and  C_31
REMARK    4  A    between atoms: N_6  and  C_13
REMARK    5  A    between atoms: N_6  and  C_16
REMARK    6  A    between atoms: C_8  and  C_13
REMARK    7  A    between atoms: C_10  and  C_14
REMARK    8  A    between atoms: C_14  and  C_15
REMARK    9  A    between atoms: C_16  and  C_18
REMARK   10  A    between atoms: C_19  and  C_20
REMARK                            x       y       z     vdW  Elec       q    Type
REMARK                         _______ _______ _______ _____ _____    ______ ____
ROOT
ATOM      2  O   UNL     1      -2.963   1.977  24.724  0.00  0.00    -0.369 OA
ATOM      8  C   UNL     1      -3.658   2.877  25.598  0.00  0.00    +0.161 C 
ATOM      9  C   UNL     1      -3.404   4.339  25.209  0.00  0.00    +0.145 C 
ATOM     10  C   UNL     1      -3.246   2.142  23.333  0.00  0.00    +0.125 C 
ATOM     11  C   UNL     1      -3.629   4.592  23.721  0.00  0.00    +0.036 C 
ATOM     12  C   UNL     1      -2.896   3.556  22.874  0.00  0.00    +0.034 C 
ENDROOT
BRANCH   9   3
ATOM      3  O   UNL     1      -2.045   4.666  25.507  0.00  0.00    -0.389 OA
ATOM     33  H   UNL     1      -2.023   5.595  25.796  0.00  0.00    +0.210 HD
ENDBRANCH   9   3
BRANCH   8  13
ATOM     13  C   UNL     1      -5.143   2.530  25.677  0.00  0.00    +0.115 C 
BRANCH  13   6
ATOM      6  N   UNL     1      -5.392   1.193  25.161  0.00  0.00    -0.309 NA
ATOM     32  H   UNL     1      -6.396   1.059  25.041  0.00  0.00    +0.122 HD
BRANCH   6  16
ATOM     16  C   UNL     1      -4.888   0.177  26.076  0.00  0.00    +0.116 C 
BRANCH  16  18
ATOM      1 CL   UNL     1      -0.142  -1.916  25.556  0.00  0.00    -0.084 Cl
ATOM     18  C   UNL     1      -3.981  -0.804  25.381  0.00  0.00    -0.032 A 
ATOM     21  C   UNL     1      -2.639  -0.896  25.748  0.00  0.00    +0.025 A 
ATOM     22  C   UNL     1      -4.485  -1.620  24.368  0.00  0.00    +0.005 A 
ATOM     25  C   UNL     1      -1.800  -1.803  25.104  0.00  0.00    +0.041 A 
ATOM     26  C   UNL     1      -3.645  -2.528  23.723  0.00  0.00    +0.002 A 
ATOM     27  C   UNL     1      -2.302  -2.620  24.090  0.00  0.00    +0.020 A 
ENDBRANCH  16  18
ENDBRANCH   6  16
ENDBRANCH  13   6
ENDBRANCH   8  13
BRANCH  10  14
ATOM     14  C   UNL     1      -2.425   1.105  22.573  0.00  0.00    +0.090 C 
BRANCH  14  15
ATOM      4  O   UNL     1       0.811   1.780  24.009  0.00  0.00    -0.354 OA
ATOM      7  N   UNL     1      -0.537   2.065  23.825  0.00  0.00    -0.083 NA
ATOM     15  C   UNL     1      -0.982   1.115  23.000  0.00  0.00    +0.087 A 
ATOM     17  C   UNL     1       0.030   0.210  22.632  0.00  0.00    +0.076 A 
ATOM     19  C   UNL     1       1.137   0.673  23.292  0.00  0.00    +0.167 A 
BRANCH  19  20
ATOM     20  C   UNL     1       2.504   0.252  23.385  0.00  0.00    +0.020 A 
ATOM     23  C   UNL     1       2.805  -1.064  23.735  0.00  0.00    +0.015 A 
ATOM     24  C   UNL     1       3.532   1.157  23.123  0.00  0.00    +0.015 A 
ATOM     28  C   UNL     1       4.136  -1.476  23.825  0.00  0.00    +0.046 A 
ATOM     29  C   UNL     1       4.863   0.747  23.213  0.00  0.00    +0.046 A 
ATOM     30  C   UNL     1       5.164  -0.570  23.564  0.00  0.00    +0.120 A 
BRANCH  30   5
ATOM      5  O   UNL     1       6.461  -0.971  23.648  0.00  0.00    -0.495 OA
ATOM     31  C   UNL     1       7.398  -0.324  22.787  0.00  0.00    +0.277 C 
ENDBRANCH  30   5
ENDBRANCH  19  20
ENDBRANCH  14  15
ENDBRANCH  10  14
TORSDOF 9
ENDMDL
MODEL 4
REMARK VINA RESULT:       0.2      1.908      3.922
REMARK  Name = 75536401
REMARK  10 active torsions:
REMARK  status: ('A' for Active; 'I' for Inactive)
REMARK    1  A    between atoms: O_3  and  C_9
REMARK    2  A    between atoms: O_5  and  C_30
REMARK    3  A    between atoms: O_5  and  C_31
REMARK    4  A    between atoms: N_6  and  C_13
REMARK    5  A    between atoms: N_6  and  C_16
REMARK    6  A    between atoms: C_8  and  C_13
REMARK    7  A    between atoms: C_10  and  C_14
REMARK    8  A    between atoms: C_14  and  C_15
REMARK    9  A    between atoms: C_16  and  C_18
REMARK   10  A    between atoms: C_19  and  C_20
REMARK                            x       y       z     vdW  Elec       q    Type
REMARK                         _______ _______ _______ _____ _____    ______ ____
ROOT
ATOM      2  O   UNL     1      -4.023   1.927  25.494  0.00  0.00    -0.369 OA
ATOM      8  C   UNL     1      -5.293   1.262  25.476  0.00  0.00    +0.161 C 
ATOM      9  C   UNL     1      -6.399   2.160  26.047  0.00  0.00    +0.145 C 
ATOM     10  C   UNL     1      -3.987   3.189  24.823  0.00  0.00    +0.125 C 
ATOM     11  C   UNL     1      -6.397   3.553  25.424  0.00  0.00    +0.036 C 
ATOM     12  C   UNL     1      -4.995   4.156  25.439  0.00  0.00    +0.034 C 
ENDROOT
BRANCH   9   3
ATOM      3  O   UNL     1      -6.191   2.310  27.453  0.00  0.00    -0.389 OA
ATOM     33  H   UNL     1      -5.234   2.257  27.616  0.00  0.00    +0.210 HD
ENDBRANCH   9   3
BRANCH   8  13
ATOM     13  C   UNL     1      -5.617   0.731  24.082  0.00  0.00    +0.115 C 
BRANCH  13   6
ATOM      6  N   UNL     1      -4.472   0.035  23.513  0.00  0.00    -0.309 NA
ATOM     32  H   UNL     1      -4.616  -0.086  22.510  0.00  0.00    +0.122 HD
BRANCH   6  16
ATOM     16  C   UNL     1      -4.301  -1.276  24.126  0.00  0.00    +0.116 C 
BRANCH  16  18
ATOM      1 CL   UNL     1      -0.390   0.441  27.114  0.00  0.00    -0.084 Cl
ATOM     18  C   UNL     1      -2.905  -1.468  24.657  0.00  0.00    -0.032 A 
ATOM     21  C   UNL     1      -2.358  -0.534  25.537  0.00  0.00    +0.025 A 
ATOM     22  C   UNL     1      -2.157  -2.579  24.266  0.00  0.00    +0.005 A 
ATOM     25  C   UNL     1      -1.065  -0.712  26.028  0.00  0.00    +0.041 A 
ATOM     26  C   UNL     1      -0.864  -2.757  24.757  0.00  0.00    +0.002 A 
ATOM     27  C   UNL     1      -0.317  -1.824  25.638  0.00  0.00    +0.020 A 
ENDBRANCH  16  18
ENDBRANCH   6  16
ENDBRANCH  13   6
ENDBRANCH   8  13
BRANCH  10  14
ATOM     14  C   UNL     1      -2.568   3.732  24.946  0.00  0.00    +0.090 C 
BRANCH  14  15
ATOM      4  O   UNL     1      -0.794   1.300  22.966  0.00  0.00    -0.354 OA
ATOM      7  N   UNL     1      -1.949   1.978  23.336  0.00  0.00    -0.083 NA
ATOM     15  C   UNL     1      -1.562   2.820  24.297  0.00  0.00    +0.087 A 
ATOM     17  C   UNL     1      -0.187   2.721  24.573  0.00  0.00    +0.076 A 
ATOM     19  C   UNL     1       0.248   1.751  23.710  0.00  0.00    +0.167 A 
BRANCH  19  20
ATOM     20  C   UNL     1       1.517   1.142  23.437  0.00  0.00    +0.020 A 
ATOM     23  C   UNL     1       1.633  -0.248  23.415  0.00  0.00    +0.015 A 
ATOM     24  C   UNL     1       2.635   1.939  23.190  0.00  0.00    +0.015 A 
ATOM     28  C   UNL     1       2.868  -0.842  23.148  0.00  0.00    +0.046 A 
ATOM     29  C   UNL     1       3.870   1.346  22.923  0.00  0.00    +0.046 A 
ATOM     30  C   UNL     1       3.985  -0.044  22.903  0.00  0.00    +0.120 A 
BRANCH  30   5
ATOM      5  O   UNL     1       5.189  -0.622  22.638  0.00  0.00    -0.495 OA
ATOM     31  C   UNL     1       6.267  -0.309  23.519  0.00  0.00    +0.277 C 
ENDBRANCH  30   5
ENDBRANCH  19  20
ENDBRANCH  14  15
ENDBRANCH  10  14
TORSDOF 9
ENDMDL
MODEL 5
REMARK VINA RESULT:       0.4      2.214      4.189
REMARK  Name = 75536401
REMARK  10 active torsions:
REMARK  status: ('A' for Active; 'I' for Inactive)
REMARK    1  A    between atoms: O_3  and  C_9
REMARK    2  A    between atoms: O_5  and  C_30
REMARK    3  A    between atoms: O_5  and  C_31
REMARK    4  A    between atoms: N_6  and  C_13
REMARK    5  A    between atoms: N_6  and  C_16
REMARK    6  A    between atoms: C_8  and  C_13
REMARK    7  A    between atoms: C_10  and  C_14
REMARK    8  A    between atoms: C_14  and  C_15
REMARK    9  A    between atoms: C_16  and  C_18
REMARK   10  A    between atoms: C_19  and  C_20
REMARK                            x       y       z     vdW  Elec       q    Type
REMARK                         _______ _______ _______ _____ _____    ______ ____
ROOT
ATOM      2  O   UNL     1      -1.052   2.985  24.233  0.00  0.00    -0.369 OA
ATOM      8  C   UNL     1      -1.098   3.720  25.463  0.00  0.00    +0.161 C 
ATOM      9  C   UNL     1      -2.401   4.520  25.585  0.00  0.00    +0.145 C 
ATOM     10  C   UNL     1      -2.157   2.107  24.007  0.00  0.00    +0.125 C 
ATOM     11  C   UNL     1      -3.635   3.669  25.302  0.00  0.00    +0.036 C 
ATOM     12  C   UNL     1      -3.471   2.884  24.003  0.00  0.00    +0.034 C 
ENDROOT
BRANCH   9   3
ATOM      3  O   UNL     1      -2.378   5.586  24.633  0.00  0.00    -0.389 OA
ATOM     33  H   UNL     1      -2.326   5.188  23.747  0.00  0.00    +0.210 HD
ENDBRANCH   9   3
BRANCH   8  13
ATOM     13  C   UNL     1      -0.845   2.806  26.660  0.00  0.00    +0.115 C 
BRANCH  13   6
ATOM      6  N   UNL     1      -0.265   1.541  26.234  0.00  0.00    -0.309 NA
ATOM     32  H   UNL     1      -0.384   1.439  25.225  0.00  0.00    +0.122 HD
BRANCH   6  16
ATOM     16  C   UNL     1      -0.913   0.419  26.900  0.00  0.00    +0.116 C 
BRANCH  16  18
ATOM      1 CL   UNL     1      -4.649  -1.737  23.974  0.00  0.00    -0.084 Cl
ATOM     18  C   UNL     1      -1.329  -0.648  25.922  0.00  0.00    -0.032 A 
ATOM     21  C   UNL     1      -2.643  -0.693  25.455  0.00  0.00    +0.025 A 
ATOM     22  C   UNL     1      -0.401  -1.594  25.485  0.00  0.00    +0.005 A 
ATOM     25  C   UNL     1      -3.028  -1.681  24.550  0.00  0.00    +0.041 A 
ATOM     26  C   UNL     1      -0.786  -2.582  24.580  0.00  0.00    +0.002 A 
ATOM     27  C   UNL     1      -2.100  -2.627  24.112  0.00  0.00    +0.020 A 
ENDBRANCH  16  18
ENDBRANCH   6  16
ENDBRANCH  13   6
ENDBRANCH   8  13
BRANCH  10  14
ATOM     14  C   UNL     1      -1.928   1.420  22.665  0.00  0.00    +0.090 C 
BRANCH  14  15
ATOM      4  O   UNL     1       0.971  -0.599  21.956  0.00  0.00    -0.354 OA
ATOM      7  N   UNL     1      -0.367  -0.265  21.784  0.00  0.00    -0.083 NA
ATOM     15  C   UNL     1      -0.568   0.780  22.589  0.00  0.00    +0.087 A 
ATOM     17  C   UNL     1       0.595   1.147  23.289  0.00  0.00    +0.076 A 
ATOM     19  C   UNL     1       1.533   0.249  22.856  0.00  0.00    +0.167 A 
BRANCH  19  20
ATOM     20  C   UNL     1       2.921   0.028  23.136  0.00  0.00    +0.020 A 
ATOM     23  C   UNL     1       3.354  -1.225  23.570  0.00  0.00    +0.015 A 
ATOM     24  C   UNL     1       3.840   1.065  22.973  0.00  0.00    +0.015 A 
ATOM     28  C   UNL     1       4.705  -1.442  23.843  0.00  0.00    +0.046 A 
ATOM     29  C   UNL     1       5.191   0.849  23.244  0.00  0.00    +0.046 A 
ATOM     30  C   UNL     1       5.623  -0.404  23.680  0.00  0.00    +0.120 A 
BRANCH  30   5
ATOM      5  O   UNL     1       6.942  -0.615  23.942  0.00  0.00    -0.495 OA
ATOM     31  C   UNL     1       7.834  -0.606  22.829  0.00  0.00    +0.277 C 
ENDBRANCH  30   5
ENDBRANCH  19  20
ENDBRANCH  14  15
ENDBRANCH  10  14
TORSDOF 9
ENDMDL
MODEL 6
REMARK VINA RESULT:       0.5      2.156      4.420
REMARK  Name = 75536401
REMARK  10 active torsions:
REMARK  status: ('A' for Active; 'I' for Inactive)
REMARK    1  A    between atoms: O_3  and  C_9
REMARK    2  A    between atoms: O_5  and  C_30
REMARK    3  A    between atoms: O_5  and  C_31
REMARK    4  A    between atoms: N_6  and  C_13
REMARK    5  A    between atoms: N_6  and  C_16
REMARK    6  A    between atoms: C_8  and  C_13
REMARK    7  A    between atoms: C_10  and  C_14
REMARK    8  A    between atoms: C_14  and  C_15
REMARK    9  A    between atoms: C_16  and  C_18
REMARK   10  A    between atoms: C_19  and  C_20
REMARK                            x       y       z     vdW  Elec       q    Type
REMARK                         _______ _______ _______ _____ _____    ______ ____
ROOT
ATOM      2  O   UNL     1      -4.396   3.074  26.361  0.00  0.00    -0.369 OA
ATOM      8  C   UNL     1      -5.779   3.091  25.982  0.00  0.00    +0.161 C 
ATOM      9  C   UNL     1      -6.139   4.389  25.248  0.00  0.00    +0.145 C 
ATOM     10  C   UNL     1      -3.469   3.274  25.292  0.00  0.00    +0.125 C 
ATOM     11  C   UNL     1      -5.162   4.711  24.121  0.00  0.00    +0.036 C 
ATOM     12  C   UNL     1      -3.718   4.615  24.606  0.00  0.00    +0.034 C 
ENDROOT
BRANCH   9   3
ATOM      3  O   UNL     1      -6.101   5.471  26.181  0.00  0.00    -0.389 OA
ATOM     33  H   UNL     1      -5.333   5.333  26.761  0.00  0.00    +0.210 HD
ENDBRANCH   9   3
BRANCH   8  13
ATOM     13  C   UNL     1      -6.147   1.837  25.191  0.00  0.00    +0.115 C 
BRANCH  13   6
ATOM      6  N   UNL     1      -5.160   0.788  25.393  0.00  0.00    -0.309 NA
ATOM     32  H   UNL     1      -4.421   1.134  26.006  0.00  0.00    +0.122 HD
BRANCH   6  16
ATOM     16  C   UNL     1      -4.567   0.379  24.126  0.00  0.00    +0.116 C 
BRANCH  16  18
ATOM      1 CL   UNL     1      -0.093  -1.910  25.512  0.00  0.00    -0.084 Cl
ATOM     18  C   UNL     1      -3.754  -0.881  24.270  0.00  0.00    -0.032 A 
ATOM     21  C   UNL     1      -2.452  -0.820  24.767  0.00  0.00    +0.025 A 
ATOM     22  C   UNL     1      -4.304  -2.110  23.903  0.00  0.00    +0.005 A 
ATOM     25  C   UNL     1      -1.700  -1.986  24.899  0.00  0.00    +0.041 A 
ATOM     26  C   UNL     1      -3.551  -3.277  24.035  0.00  0.00    +0.002 A 
ATOM     27  C   UNL     1      -2.249  -3.216  24.533  0.00  0.00    +0.020 A 
ENDBRANCH  16  18
ENDBRANCH   6  16
ENDBRANCH  13   6
ENDBRANCH   8  13
BRANCH  10  14
ATOM     14  C   UNL     1      -2.066   3.221  25.887  0.00  0.00    +0.090 C 
BRANCH  14  15
ATOM      4  O   UNL     1      -0.389   1.478  23.215  0.00  0.00    -0.354 OA
ATOM      7  N   UNL     1      -1.516   2.049  23.794  0.00  0.00    -0.083 NA
ATOM     15  C   UNL     1      -1.097   2.523  24.970  0.00  0.00    +0.087 A 
ATOM     17  C   UNL     1       0.271   2.284  25.186  0.00  0.00    +0.076 A 
ATOM     19  C   UNL     1       0.668   1.624  24.054  0.00  0.00    +0.167 A 
BRANCH  19  20
ATOM     20  C   UNL     1       1.911   1.082  23.588  0.00  0.00    +0.020 A 
ATOM     23  C   UNL     1       2.935   1.938  23.180  0.00  0.00    +0.015 A 
ATOM     24  C   UNL     1       2.098  -0.299  23.544  0.00  0.00    +0.015 A 
ATOM     28  C   UNL     1       4.146   1.412  22.727  0.00  0.00    +0.046 A 
ATOM     29  C   UNL     1       3.308  -0.826  23.091  0.00  0.00    +0.046 A 
ATOM     30  C   UNL     1       4.331   0.030  22.682  0.00  0.00    +0.120 A 
BRANCH  30   5
ATOM      5  O   UNL     1       5.513  -0.484  22.244  0.00  0.00    -0.495 OA
ATOM     31  C   UNL     1       6.617  -0.433  23.146  0.00  0.00    +0.277 C 
ENDBRANCH  30   5
ENDBRANCH  19  20
ENDBRANCH  14  15
ENDBRANCH  10  14
TORSDOF 9
ENDMDL
MODEL 7
REMARK VINA RESULT:       2.3      2.000      3.932
REMARK  Name = 75536401
REMARK  10 active torsions:
REMARK  status: ('A' for Active; 'I' for Inactive)
REMARK    1  A    between atoms: O_3  and  C_9
REMARK    2  A    between atoms: O_5  and  C_30
REMARK    3  A    between atoms: O_5  and  C_31
REMARK    4  A    between atoms: N_6  and  C_13
REMARK    5  A    between atoms: N_6  and  C_16
REMARK    6  A    between atoms: C_8  and  C_13
REMARK    7  A    between atoms: C_10  and  C_14
REMARK    8  A    between atoms: C_14  and  C_15
REMARK    9  A    between atoms: C_16  and  C_18
REMARK   10  A    between atoms: C_19  and  C_20
REMARK                            x       y       z     vdW  Elec       q    Type
REMARK                         _______ _______ _______ _____ _____    ______ ____
ROOT
ATOM      2  O   UNL     1      -2.247   1.727  25.053  0.00  0.00    -0.369 OA
ATOM      8  C   UNL     1      -2.591   3.009  25.595  0.00  0.00    +0.161 C 
ATOM      9  C   UNL     1      -1.517   4.057  25.272  0.00  0.00    +0.145 C 
ATOM     10  C   UNL     1      -1.992   1.709  23.647  0.00  0.00    +0.125 C 
ATOM     11  C   UNL     1      -1.141   4.067  23.793  0.00  0.00    +0.036 C 
ATOM     12  C   UNL     1      -0.846   2.655  23.295  0.00  0.00    +0.034 C 
ENDROOT
BRANCH   9   3
ATOM      3  O   UNL     1      -0.338   3.753  26.020  0.00  0.00    -0.389 OA
ATOM     33  H   UNL     1       0.119   4.592  26.202  0.00  0.00    +0.210 HD
ENDBRANCH   9   3
BRANCH   8  13
ATOM     13  C   UNL     1      -3.990   3.434  25.157  0.00  0.00    +0.115 C 
BRANCH  13   6
ATOM      6  N   UNL     1      -4.649   2.367  24.420  0.00  0.00    -0.309 NA
ATOM     32  H   UNL     1      -5.385   2.766  23.835  0.00  0.00    +0.122 HD
BRANCH   6  16
ATOM     16  C   UNL     1      -5.246   1.396  25.329  0.00  0.00    +0.116 C 
BRANCH  16  18
ATOM      1 CL   UNL     1      -4.575  -3.079  22.742  0.00  0.00    -0.084 Cl
ATOM     18  C   UNL     1      -4.574   0.052  25.232  0.00  0.00    -0.032 A 
ATOM     21  C   UNL     1      -4.852  -0.792  24.157  0.00  0.00    +0.025 A 
ATOM     22  C   UNL     1      -3.672  -0.349  26.219  0.00  0.00    +0.005 A 
ATOM     25  C   UNL     1      -4.231  -2.037  24.068  0.00  0.00    +0.041 A 
ATOM     26  C   UNL     1      -3.050  -1.594  26.130  0.00  0.00    +0.002 A 
ATOM     27  C   UNL     1      -3.329  -2.439  25.055  0.00  0.00    +0.020 A 
ENDBRANCH  16  18
ENDBRANCH   6  16
ENDBRANCH  13   6
ENDBRANCH   8  13
BRANCH  10  14
ATOM     14  C   UNL     1      -1.650   0.275  23.262  0.00  0.00    +0.090 C 
BRANCH  14  15
ATOM      4  O   UNL     1       1.596  -0.163  21.758  0.00  0.00    -0.354 OA
ATOM      7  N   UNL     1       0.213  -0.047  21.687  0.00  0.00    -0.083 NA
ATOM     15  C   UNL     1      -0.186   0.114  22.951  0.00  0.00    +0.087 A 
ATOM     17  C   UNL     1       0.890   0.109  23.855  0.00  0.00    +0.076 A 
ATOM     19  C   UNL     1       1.987  -0.069  23.055  0.00  0.00    +0.167 A 
BRANCH  19  20
ATOM     20  C   UNL     1       3.398  -0.168  23.288  0.00  0.00    +0.020 A 
ATOM     23  C   UNL     1       4.237   0.895  22.951  0.00  0.00    +0.015 A 
ATOM     24  C   UNL     1       3.933  -1.326  23.853  0.00  0.00    +0.015 A 
ATOM     28  C   UNL     1       5.610   0.800  23.178  0.00  0.00    +0.046 A 
ATOM     29  C   UNL     1       5.306  -1.421  24.081  0.00  0.00    +0.046 A 
ATOM     30  C   UNL     1       6.144  -0.358  23.743  0.00  0.00    +0.120 A 
BRANCH  30   5
ATOM      5  O   UNL     1       7.483  -0.450  23.968  0.00  0.00    -0.495 OA
ATOM     31  C   UNL     1       8.345  -0.266  22.846  0.00  0.00    +0.277 C 
ENDBRANCH  30   5
ENDBRANCH  19  20
ENDBRANCH  14  15
ENDBRANCH  10  14
TORSDOF 9
ENDMDL
