MODEL 1
REMARK VINA RESULT:       0.9      0.000      0.000
REMARK  Name = 11886000
REMARK  6 active torsions:
REMARK  status: ('A' for Active; 'I' for Inactive)
REMARK    1  A    between atoms: S_1  and  C_17
REMARK    2  A    between atoms: S_1  and  C_20
REMARK    3  A    between atoms: O_4  and  C_14
REMARK    4  A    between atoms: O_4  and  C_18
REMARK    5  A    between atoms: N_6  and  C_13
REMARK    6  A    between atoms: N_10  and  C_19
REMARK                            x       y       z     vdW  Elec       q    Type
REMARK                         _______ _______ _______ _____ _____    ______ ____
ROOT
ATOM      2  O   UNL     1      -2.372  -0.084  24.213  0.00  0.00    -0.368 OA
ATOM      3  O   UNL     1      -4.719  -2.091  24.069  0.00  0.00    -0.368 OA
ATOM     11  C   UNL     1      -4.468  -0.951  24.922  0.00  0.00    +0.177 C 
ATOM     12  C   UNL     1      -2.978  -0.934  25.200  0.00  0.00    +0.192 C 
ATOM     13  C   UNL     1      -4.726   0.327  24.149  0.00  0.00    +0.168 C 
ATOM     14  C   UNL     1      -2.586  -2.380  25.009  0.00  0.00    +0.235 C 
ATOM     15  C   UNL     1      -3.393   0.569  23.446  0.00  0.00    +0.190 C 
ATOM     16  C   UNL     1      -3.491  -2.805  23.877  0.00  0.00    +0.207 C 
ENDROOT
BRANCH  13   6
ATOM      6  N   UNL     1      -5.190   1.418  25.008  0.00  0.00    -0.212 N 
ATOM      7  N   UNL     1      -5.959   1.155  26.071  0.00  0.00    -0.043 NA
ATOM      8  N   UNL     1      -5.581   3.346  25.906  0.00  0.00    -0.101 NA
ATOM      9  N   UNL     1      -6.196   2.341  26.619  0.00  0.00    -0.022 NA
ATOM     17  C   UNL     1      -4.964   2.750  24.913  0.00  0.00    +0.214 A 
BRANCH  17   1
ATOM      1  S   UNL     1      -4.017   3.480  23.677  0.00  0.00    -0.049 S 
BRANCH   1  20
ATOM     20  C   UNL     1      -2.452   3.621  24.544  0.00  0.00    +0.016 A 
ATOM     24  C   UNL     1      -2.076   2.634  25.445  0.00  0.00    +0.015 A 
ATOM     25  C   UNL     1      -1.631   4.717  24.304  0.00  0.00    +0.015 A 
ATOM     30  C   UNL     1      -0.860   2.743  26.118  0.00  0.00    +0.001 A 
ATOM     31  C   UNL     1      -0.415   4.825  24.978  0.00  0.00    +0.001 A 
ATOM     34  C   UNL     1      -0.028   3.838  25.885  0.00  0.00    +0.000 A 
ENDBRANCH   1  20
ENDBRANCH  17   1
ENDBRANCH  13   6
BRANCH  14   4
ATOM      4  O   UNL     1      -1.223  -2.557  24.696  0.00  0.00    -0.442 OA
BRANCH   4  18
ATOM      5  O   UNL     1      -0.251  -0.966  26.020  0.00  0.00    -0.226 OA
ATOM     10  N   UNL     1       0.231  -1.126  23.735  0.00  0.00    -0.251 N 
ATOM     18  C   UNL     1      -0.386  -1.483  24.918  0.00  0.00    +0.405 C 
ATOM     35  H   UNL     1      -0.031  -1.697  22.940  0.00  0.00    +0.158 HD
BRANCH  10  19
ATOM     19  C   UNL     1       1.160  -0.082  23.519  0.00  0.00    +0.044 A 
ATOM     21  C   UNL     1       2.536  -0.324  23.521  0.00  0.00    +0.003 A 
ATOM     22  C   UNL     1       0.643   1.190  23.308  0.00  0.00    +0.024 A 
ATOM     23  C   UNL     1       3.419   0.760  23.300  0.00  0.00    -0.016 A 
ATOM     26  C   UNL     1       3.065  -1.608  23.734  0.00  0.00    +0.010 A 
ATOM     27  C   UNL     1       1.511   2.255  23.090  0.00  0.00    +0.002 A 
ATOM     28  C   UNL     1       2.891   2.044  23.086  0.00  0.00    +0.008 A 
ATOM     29  C   UNL     1       4.804   0.529  23.298  0.00  0.00    +0.008 A 
ATOM     32  C   UNL     1       4.444  -1.819  23.730  0.00  0.00    +0.001 A 
ATOM     33  C   UNL     1       5.312  -0.753  23.512  0.00  0.00    +0.001 A 
ENDBRANCH  10  19
ENDBRANCH   4  18
ENDBRANCH  14   4
TORSDOF 6
ENDMDL
MODEL 2
REMARK VINA RESULT:       3.0      2.160      4.605
REMARK  Name = 11886000
REMARK  6 active torsions:
REMARK  status: ('A' for Active; 'I' for Inactive)
REMARK    1  A    between atoms: S_1  and  C_17
REMARK    2  A    between atoms: S_1  and  C_20
REMARK    3  A    between atoms: O_4  and  C_14
REMARK    4  A    between atoms: O_4  and  C_18
REMARK    5  A    between atoms: N_6  and  C_13
REMARK    6  A    between atoms: N_10  and  C_19
REMARK                            x       y       z     vdW  Elec       q    Type
REMARK                         _______ _______ _______ _____ _____    ______ ____
ROOT
ATOM      2  O   UNL     1      -2.304   3.509  26.439  0.00  0.00    -0.368 OA
ATOM      3  O   UNL     1      -3.182   5.808  24.567  0.00  0.00    -0.368 OA
ATOM     11  C   UNL     1      -3.533   4.407  24.614  0.00  0.00    +0.177 C 
ATOM     12  C   UNL     1      -2.278   3.655  25.010  0.00  0.00    +0.192 C 
ATOM     13  C   UNL     1      -4.500   4.163  25.756  0.00  0.00    +0.168 C 
ATOM     14  C   UNL     1      -1.177   4.587  24.563  0.00  0.00    +0.235 C 
ATOM     15  C   UNL     1      -3.568   3.960  26.947  0.00  0.00    +0.190 C 
ATOM     16  C   UNL     1      -1.781   5.944  24.836  0.00  0.00    +0.207 C 
ENDROOT
BRANCH  13   6
ATOM      6  N   UNL     1      -5.421   3.057  25.485  0.00  0.00    -0.212 N 
ATOM      7  N   UNL     1      -6.668   3.089  25.968  0.00  0.00    -0.043 NA
ATOM      8  N   UNL     1      -6.331   1.218  24.803  0.00  0.00    -0.101 NA
ATOM      9  N   UNL     1      -7.222   1.958  25.546  0.00  0.00    -0.022 NA
ATOM     17  C   UNL     1      -5.222   1.919  24.778  0.00  0.00    +0.214 A 
BRANCH  17   1
ATOM      1  S   UNL     1      -3.742   1.515  23.999  0.00  0.00    -0.049 S 
BRANCH   1  20
ATOM     20  C   UNL     1      -3.640  -0.222  24.437  0.00  0.00    +0.016 A 
ATOM     24  C   UNL     1      -3.977  -1.187  23.497  0.00  0.00    +0.015 A 
ATOM     25  C   UNL     1      -3.222  -0.585  25.712  0.00  0.00    +0.015 A 
ATOM     30  C   UNL     1      -3.897  -2.537  23.836  0.00  0.00    +0.001 A 
ATOM     31  C   UNL     1      -3.142  -1.936  26.050  0.00  0.00    +0.001 A 
ATOM     34  C   UNL     1      -3.479  -2.912  25.113  0.00  0.00    +0.000 A 
ENDBRANCH   1  20
ENDBRANCH  17   1
ENDBRANCH  13   6
BRANCH  14   4
ATOM      4  O   UNL     1       0.037   4.396  25.255  0.00  0.00    -0.442 OA
BRANCH   4  18
ATOM      5  O   UNL     1       0.851   2.661  26.503  0.00  0.00    -0.226 OA
ATOM     10  N   UNL     1       0.365   2.417  24.226  0.00  0.00    -0.251 N 
ATOM     18  C   UNL     1       0.461   3.094  25.426  0.00  0.00    +0.405 C 
ATOM     35  H   UNL     1       0.012   2.975  23.459  0.00  0.00    +0.158 HD
BRANCH  10  19
ATOM     19  C   UNL     1       0.696   1.068  23.961  0.00  0.00    +0.044 A 
ATOM     21  C   UNL     1       1.960   0.709  23.485  0.00  0.00    +0.003 A 
ATOM     22  C   UNL     1      -0.292   0.118  24.191  0.00  0.00    +0.024 A 
ATOM     23  C   UNL     1       2.233  -0.657  23.236  0.00  0.00    -0.016 A 
ATOM     26  C   UNL     1       2.963   1.665  23.250  0.00  0.00    +0.010 A 
ATOM     27  C   UNL     1      -0.023  -1.225  23.947  0.00  0.00    +0.002 A 
ATOM     28  C   UNL     1       1.231  -1.612  23.472  0.00  0.00    +0.008 A 
ATOM     29  C   UNL     1       3.501  -1.028  22.760  0.00  0.00    +0.008 A 
ATOM     32  C   UNL     1       4.217   1.278  22.776  0.00  0.00    +0.001 A 
ATOM     33  C   UNL     1       4.485  -0.065  22.531  0.00  0.00    +0.001 A 
ENDBRANCH  10  19
ENDBRANCH   4  18
ENDBRANCH  14   4
TORSDOF 6
ENDMDL
MODEL 3
REMARK VINA RESULT:       3.6      2.008      6.884
REMARK  Name = 11886000
REMARK  6 active torsions:
REMARK  status: ('A' for Active; 'I' for Inactive)
REMARK    1  A    between atoms: S_1  and  C_17
REMARK    2  A    between atoms: S_1  and  C_20
REMARK    3  A    between atoms: O_4  and  C_14
REMARK    4  A    between atoms: O_4  and  C_18
REMARK    5  A    between atoms: N_6  and  C_13
REMARK    6  A    between atoms: N_10  and  C_19
REMARK                            x       y       z     vdW  Elec       q    Type
REMARK                         _______ _______ _______ _____ _____    ______ ____
ROOT
ATOM      2  O   UNL     1      -2.320  -0.377  23.549  0.00  0.00    -0.368 OA
ATOM      3  O   UNL     1      -0.386  -0.763  25.929  0.00  0.00    -0.368 OA
ATOM     11  C   UNL     1      -0.281  -1.103  24.528  0.00  0.00    +0.177 C 
ATOM     12  C   UNL     1      -1.662  -1.538  24.080  0.00  0.00    +0.192 C 
ATOM     13  C   UNL     1       0.005   0.148  23.722  0.00  0.00    +0.168 C 
ATOM     14  C   UNL     1      -2.300  -2.002  25.368  0.00  0.00    +0.235 C 
ATOM     15  C   UNL     1      -1.390   0.713  23.472  0.00  0.00    +0.190 C 
ATOM     16  C   UNL     1      -1.721  -1.035  26.374  0.00  0.00    +0.207 C 
ENDROOT
BRANCH  13   6
ATOM      6  N   UNL     1       0.795  -0.127  22.520  0.00  0.00    -0.212 N 
ATOM      7  N   UNL     1       0.311  -0.933  21.569  0.00  0.00    -0.043 NA
ATOM      8  N   UNL     1       2.335  -0.190  21.003  0.00  0.00    -0.101 NA
ATOM      9  N   UNL     1       1.260  -0.968  20.640  0.00  0.00    -0.022 NA
ATOM     17  C   UNL     1       2.025   0.321  22.171  0.00  0.00    +0.214 A 
BRANCH  17   1
ATOM      1  S   UNL     1       2.973   1.382  23.138  0.00  0.00    -0.049 S 
BRANCH   1  20
ATOM     20  C   UNL     1       4.339   0.288  23.531  0.00  0.00    +0.016 A 
ATOM     24  C   UNL     1       5.626   0.802  23.621  0.00  0.00    +0.015 A 
ATOM     25  C   UNL     1       4.096  -1.064  23.742  0.00  0.00    +0.015 A 
ATOM     30  C   UNL     1       6.688  -0.049  23.926  0.00  0.00    +0.001 A 
ATOM     31  C   UNL     1       5.159  -1.914  24.048  0.00  0.00    +0.001 A 
ATOM     34  C   UNL     1       6.454  -1.407  24.140  0.00  0.00    +0.000 A 
ENDBRANCH   1  20
ENDBRANCH  17   1
ENDBRANCH  13   6
BRANCH  14   4
ATOM      4  O   UNL     1      -3.709  -1.965  25.344  0.00  0.00    -0.442 OA
BRANCH   4  18
ATOM      5  O   UNL     1      -4.974  -0.785  23.848  0.00  0.00    -0.226 OA
ATOM     10  N   UNL     1      -3.992   0.243  25.707  0.00  0.00    -0.251 N 
ATOM     18  C   UNL     1      -4.296  -0.810  24.867  0.00  0.00    +0.405 C 
ATOM     35  H   UNL     1      -3.412  -0.009  26.498  0.00  0.00    +0.158 HD
BRANCH  10  19
ATOM     19  C   UNL     1      -4.390   1.594  25.587  0.00  0.00    +0.044 A 
ATOM     21  C   UNL     1      -3.450   2.625  25.513  0.00  0.00    +0.003 A 
ATOM     22  C   UNL     1      -5.755   1.849  25.549  0.00  0.00    +0.024 A 
ATOM     23  C   UNL     1      -3.907   3.959  25.394  0.00  0.00    -0.016 A 
ATOM     26  C   UNL     1      -2.068   2.373  25.551  0.00  0.00    +0.010 A 
ATOM     27  C   UNL     1      -6.205   3.161  25.432  0.00  0.00    +0.002 A 
ATOM     28  C   UNL     1      -5.288   4.210  25.355  0.00  0.00    +0.008 A 
ATOM     29  C   UNL     1      -2.971   5.002  25.317  0.00  0.00    +0.008 A 
ATOM     32  C   UNL     1      -1.152   3.423  25.474  0.00  0.00    +0.001 A 
ATOM     33  C   UNL     1      -1.602   4.734  25.357  0.00  0.00    +0.001 A 
ENDBRANCH  10  19
ENDBRANCH   4  18
ENDBRANCH  14   4
TORSDOF 6
ENDMDL
MODEL 4
REMARK VINA RESULT:       3.8      2.093      6.712
REMARK  Name = 11886000
REMARK  6 active torsions:
REMARK  status: ('A' for Active; 'I' for Inactive)
REMARK    1  A    between atoms: S_1  and  C_17
REMARK    2  A    between atoms: S_1  and  C_20
REMARK    3  A    between atoms: O_4  and  C_14
REMARK    4  A    between atoms: O_4  and  C_18
REMARK    5  A    between atoms: N_6  and  C_13
REMARK    6  A    between atoms: N_10  and  C_19
REMARK                            x       y       z     vdW  Elec       q    Type
REMARK                         _______ _______ _______ _____ _____    ______ ____
ROOT
ATOM      2  O   UNL     1      -2.268  -0.310  25.538  0.00  0.00    -0.368 OA
ATOM      3  O   UNL     1      -0.922  -2.512  23.836  0.00  0.00    -0.368 OA
ATOM     11  C   UNL     1      -0.907  -1.069  23.745  0.00  0.00    +0.177 C 
ATOM     12  C   UNL     1      -2.293  -0.592  24.130  0.00  0.00    +0.192 C 
ATOM     13  C   UNL     1       0.003  -0.503  24.817  0.00  0.00    +0.168 C 
ATOM     14  C   UNL     1      -3.157  -1.791  23.815  0.00  0.00    +0.235 C 
ATOM     15  C   UNL     1      -0.923  -0.408  26.026  0.00  0.00    +0.190 C 
ATOM     16  C   UNL     1      -2.246  -2.941  24.178  0.00  0.00    +0.207 C 
ENDROOT
BRANCH  13   6
ATOM      6  N   UNL     1       0.634   0.754  24.410  0.00  0.00    -0.212 N 
ATOM      7  N   UNL     1       0.350   1.889  25.059  0.00  0.00    -0.043 NA
ATOM      8  N   UNL     1       1.813   2.274  23.421  0.00  0.00    -0.101 NA
ATOM      9  N   UNL     1       1.076   2.819  24.449  0.00  0.00    -0.022 NA
ATOM     17  C   UNL     1       1.523   0.994  23.417  0.00  0.00    +0.214 A 
BRANCH  17   1
ATOM      1  S   UNL     1       2.135  -0.216  22.359  0.00  0.00    -0.049 S 
BRANCH   1  20
ATOM     20  C   UNL     1       3.781  -0.410  23.047  0.00  0.00    +0.016 A 
ATOM     24  C   UNL     1       4.688   0.637  22.959  0.00  0.00    +0.015 A 
ATOM     25  C   UNL     1       4.130  -1.606  23.663  0.00  0.00    +0.015 A 
ATOM     30  C   UNL     1       5.967   0.487  23.494  0.00  0.00    +0.001 A 
ATOM     31  C   UNL     1       5.409  -1.755  24.198  0.00  0.00    +0.001 A 
ATOM     34  C   UNL     1       6.328  -0.709  24.114  0.00  0.00    +0.000 A 
ENDBRANCH   1  20
ENDBRANCH  17   1
ENDBRANCH  13   6
BRANCH  14   4
ATOM      4  O   UNL     1      -4.365  -1.820  24.541  0.00  0.00    -0.442 OA
BRANCH   4  18
ATOM      5  O   UNL     1      -4.716  -0.801  26.558  0.00  0.00    -0.226 OA
ATOM     10  N   UNL     1      -4.806   0.392  24.546  0.00  0.00    -0.251 N 
ATOM     18  C   UNL     1      -4.642  -0.728  25.337  0.00  0.00    +0.405 C 
ATOM     35  H   UNL     1      -4.697   0.220  23.554  0.00  0.00    +0.158 HD
BRANCH  10  19
ATOM     19  C   UNL     1      -5.099   1.712  24.957  0.00  0.00    +0.044 A 
ATOM     21  C   UNL     1      -4.113   2.703  24.977  0.00  0.00    +0.003 A 
ATOM     22  C   UNL     1      -6.407   1.979  25.342  0.00  0.00    +0.024 A 
ATOM     23  C   UNL     1      -4.465   4.007  25.399  0.00  0.00    -0.016 A 
ATOM     26  C   UNL     1      -2.789   2.440  24.589  0.00  0.00    +0.010 A 
ATOM     27  C   UNL     1      -6.752   3.261  25.756  0.00  0.00    +0.002 A 
ATOM     28  C   UNL     1      -5.789   4.270  25.785  0.00  0.00    +0.008 A 
ATOM     29  C   UNL     1      -3.483   5.010  25.421  0.00  0.00    +0.008 A 
ATOM     32  C   UNL     1      -1.825   3.449  24.618  0.00  0.00    +0.001 A 
ATOM     33  C   UNL     1      -2.171   4.731  25.033  0.00  0.00    +0.001 A 
ENDBRANCH  10  19
ENDBRANCH   4  18
ENDBRANCH  14   4
TORSDOF 6
ENDMDL
MODEL 5
REMARK VINA RESULT:       3.8      2.608      5.785
REMARK  Name = 11886000
REMARK  6 active torsions:
REMARK  status: ('A' for Active; 'I' for Inactive)
REMARK    1  A    between atoms: S_1  and  C_17
REMARK    2  A    between atoms: S_1  and  C_20
REMARK    3  A    between atoms: O_4  and  C_14
REMARK    4  A    between atoms: O_4  and  C_18
REMARK    5  A    between atoms: N_6  and  C_13
REMARK    6  A    between atoms: N_10  and  C_19
REMARK                            x       y       z     vdW  Elec       q    Type
REMARK                         _______ _______ _______ _____ _____    ______ ____
ROOT
ATOM      2  O   UNL     1      -4.299   2.131  24.440  0.00  0.00    -0.368 OA
ATOM      3  O   UNL     1      -5.155   4.904  25.504  0.00  0.00    -0.368 OA
ATOM     11  C   UNL     1      -3.907   4.178  25.579  0.00  0.00    +0.177 C 
ATOM     12  C   UNL     1      -4.263   2.715  25.751  0.00  0.00    +0.192 C 
ATOM     13  C   UNL     1      -3.200   4.244  24.240  0.00  0.00    +0.168 C 
ATOM     14  C   UNL     1      -5.637   2.777  26.374  0.00  0.00    +0.235 C 
ATOM     15  C   UNL     1      -3.821   3.079  23.475  0.00  0.00    +0.190 C 
ATOM     16  C   UNL     1      -6.238   3.985  25.694  0.00  0.00    +0.207 C 
ENDROOT
BRANCH  13   6
ATOM      6  N   UNL     1      -1.742   4.201  24.372  0.00  0.00    -0.212 N 
ATOM      7  N   UNL     1      -1.069   5.295  24.745  0.00  0.00    -0.043 NA
ATOM      8  N   UNL     1       0.334   3.596  24.408  0.00  0.00    -0.101 NA
ATOM      9  N   UNL     1       0.204   4.919  24.766  0.00  0.00    -0.022 NA
ATOM     17  C   UNL     1      -0.884   3.172  24.169  0.00  0.00    +0.214 A 
BRANCH  17   1
ATOM      1  S   UNL     1      -1.370   1.596  23.681  0.00  0.00    -0.049 S 
BRANCH   1  20
ATOM     20  C   UNL     1       0.220   0.937  23.175  0.00  0.00    +0.016 A 
ATOM     24  C   UNL     1       1.383   1.445  23.738  0.00  0.00    +0.015 A 
ATOM     25  C   UNL     1       0.271  -0.077  22.226  0.00  0.00    +0.015 A 
ATOM     30  C   UNL     1       2.619   0.932  23.345  0.00  0.00    +0.001 A 
ATOM     31  C   UNL     1       1.508  -0.590  21.834  0.00  0.00    +0.001 A 
ATOM     34  C   UNL     1       2.682  -0.085  22.393  0.00  0.00    +0.000 A 
ENDBRANCH   1  20
ENDBRANCH  17   1
ENDBRANCH  13   6
BRANCH  14   4
ATOM      4  O   UNL     1      -6.403   1.612  26.164  0.00  0.00    -0.442 OA
BRANCH   4  18
ATOM      5  O   UNL     1      -6.456   0.719  24.059  0.00  0.00    -0.226 OA
ATOM     10  N   UNL     1      -4.940  -0.033  25.677  0.00  0.00    -0.251 N 
ATOM     18  C   UNL     1      -5.968   0.746  25.183  0.00  0.00    +0.405 C 
ATOM     35  H   UNL     1      -4.696   0.162  26.640  0.00  0.00    +0.158 HD
BRANCH  10  19
ATOM     19  C   UNL     1      -4.214  -1.043  25.005  0.00  0.00    +0.044 A 
ATOM     21  C   UNL     1      -2.852  -1.239  25.245  0.00  0.00    +0.003 A 
ATOM     22  C   UNL     1      -4.914  -1.826  24.096  0.00  0.00    +0.024 A 
ATOM     23  C   UNL     1      -2.176  -2.265  24.542  0.00  0.00    -0.016 A 
ATOM     26  C   UNL     1      -2.138  -0.450  26.162  0.00  0.00    +0.010 A 
ATOM     27  C   UNL     1      -4.250  -2.835  23.406  0.00  0.00    +0.002 A 
ATOM     28  C   UNL     1      -2.889  -3.055  23.626  0.00  0.00    +0.008 A 
ATOM     29  C   UNL     1      -0.807  -2.472  24.777  0.00  0.00    +0.008 A 
ATOM     32  C   UNL     1      -0.777  -0.669  26.382  0.00  0.00    +0.001 A 
ATOM     33  C   UNL     1      -0.113  -1.678  25.691  0.00  0.00    +0.001 A 
ENDBRANCH  10  19
ENDBRANCH   4  18
ENDBRANCH  14   4
TORSDOF 6
ENDMDL
MODEL 6
REMARK VINA RESULT:       4.3      2.313      6.050
REMARK  Name = 11886000
REMARK  6 active torsions:
REMARK  status: ('A' for Active; 'I' for Inactive)
REMARK    1  A    between atoms: S_1  and  C_17
REMARK    2  A    between atoms: S_1  and  C_20
REMARK    3  A    between atoms: O_4  and  C_14
REMARK    4  A    between atoms: O_4  and  C_18
REMARK    5  A    between atoms: N_6  and  C_13
REMARK    6  A    between atoms: N_10  and  C_19
REMARK                            x       y       z     vdW  Elec       q    Type
REMARK                         _______ _______ _______ _____ _____    ______ ____
ROOT
ATOM      2  O   UNL     1      -1.492  -1.346  25.591  0.00  0.00    -0.368 OA
ATOM      3  O   UNL     1      -0.957  -3.256  23.221  0.00  0.00    -0.368 OA
ATOM     11  C   UNL     1      -0.822  -1.824  23.363  0.00  0.00    +0.177 C 
ATOM     12  C   UNL     1      -1.971  -1.362  24.238  0.00  0.00    +0.192 C 
ATOM     13  C   UNL     1       0.422  -1.509  24.170  0.00  0.00    +0.168 C 
ATOM     14  C   UNL     1      -3.007  -2.440  24.023  0.00  0.00    +0.235 C 
ATOM     15  C   UNL     1      -0.080  -1.596  25.608  0.00  0.00    +0.190 C 
ATOM     16  C   UNL     1      -2.152  -3.678  23.889  0.00  0.00    +0.207 C 
ENDROOT
BRANCH  13   6
ATOM      6  N   UNL     1       1.026  -0.229  23.792  0.00  0.00    -0.212 N 
ATOM      7  N   UNL     1       1.943  -0.181  22.819  0.00  0.00    -0.043 NA
ATOM      8  N   UNL     1       1.576   1.857  23.645  0.00  0.00    -0.101 NA
ATOM      9  N   UNL     1       2.276   1.102  22.733  0.00  0.00    -0.022 NA
ATOM     17  C   UNL     1       0.807   1.011  24.290  0.00  0.00    +0.214 A 
BRANCH  17   1
ATOM      1  S   UNL     1      -0.306   1.358  25.555  0.00  0.00    -0.049 S 
BRANCH   1  20
ATOM     20  C   UNL     1      -0.643   3.083  25.191  0.00  0.00    +0.016 A 
ATOM     24  C   UNL     1       0.029   3.708  24.148  0.00  0.00    +0.015 A 
ATOM     25  C   UNL     1      -1.575   3.775  25.955  0.00  0.00    +0.015 A 
ATOM     30  C   UNL     1      -0.233   5.048  23.865  0.00  0.00    +0.001 A 
ATOM     31  C   UNL     1      -1.837   5.116  25.670  0.00  0.00    +0.001 A 
ATOM     34  C   UNL     1      -1.166   5.752  24.626  0.00  0.00    +0.000 A 
ENDBRANCH   1  20
ENDBRANCH  17   1
ENDBRANCH  13   6
BRANCH  14   4
ATOM      4  O   UNL     1      -3.936  -2.546  25.079  0.00  0.00    -0.442 OA
BRANCH   4  18
ATOM      5  O   UNL     1      -4.172  -1.300  26.982  0.00  0.00    -0.226 OA
ATOM     10  N   UNL     1      -4.608  -0.405  24.864  0.00  0.00    -0.251 N 
ATOM     18  C   UNL     1      -4.240  -1.386  25.762  0.00  0.00    +0.405 C 
ATOM     35  H   UNL     1      -4.591  -0.698  23.894  0.00  0.00    +0.158 HD
BRANCH  10  19
ATOM     19  C   UNL     1      -4.996   0.927  25.141  0.00  0.00    +0.044 A 
ATOM     21  C   UNL     1      -4.523   1.995  24.374  0.00  0.00    +0.003 A 
ATOM     22  C   UNL     1      -5.863   1.124  26.208  0.00  0.00    +0.024 A 
ATOM     23  C   UNL     1      -4.944   3.307  24.699  0.00  0.00    -0.016 A 
ATOM     26  C   UNL     1      -3.646   1.803  23.294  0.00  0.00    +0.010 A 
ATOM     27  C   UNL     1      -6.277   2.413  26.526  0.00  0.00    +0.002 A 
ATOM     28  C   UNL     1      -5.822   3.499  25.778  0.00  0.00    +0.008 A 
ATOM     29  C   UNL     1      -4.476   4.387  23.934  0.00  0.00    +0.008 A 
ATOM     32  C   UNL     1      -3.190   2.889  22.545  0.00  0.00    +0.001 A 
ATOM     33  C   UNL     1      -3.604   4.179  22.865  0.00  0.00    +0.001 A 
ENDBRANCH  10  19
ENDBRANCH   4  18
ENDBRANCH  14   4
TORSDOF 6
ENDMDL
