MODEL 1
REMARK VINA RESULT:      -3.1      0.000      0.000
REMARK  Name = 75536937
REMARK  7 active torsions:
REMARK  status: ('A' for Active; 'I' for Inactive)
REMARK    1  A    between atoms: O_2  and  C_6
REMARK    2  A    between atoms: O_2  and  C_17
REMARK    3  A    between atoms: N_3  and  C_8
REMARK    4  A    between atoms: N_4  and  C_14
REMARK    5  A    between atoms: N_4  and  C_18
REMARK    6  A    between atoms: N_4  and  C_19
REMARK    7  A    between atoms: C_8  and  C_11
REMARK                            x       y       z     vdW  Elec       q    Type
REMARK                         _______ _______ _______ _____ _____    ______ ____
ROOT
ATOM      8  C   UNL     1      -3.264  -0.073  25.147  0.00  0.00    +0.119 C 
ENDROOT
BRANCH   8   3
ATOM      1  O   UNL     1      -6.086   3.464  25.443  0.00  0.00    -0.376 OA
ATOM      3  N   UNL     1      -3.949   1.219  25.099  0.00  0.00    -0.293 NA
ATOM      5  C   UNL     1      -3.091   2.266  25.664  0.00  0.00    +0.118 C 
ATOM      6  C   UNL     1      -3.751   3.596  26.064  0.00  0.00    +0.157 C 
ATOM      7  C   UNL     1      -5.282   1.141  25.700  0.00  0.00    +0.113 C 
ATOM      9  C   UNL     1      -4.841   4.067  25.111  0.00  0.00    +0.192 C 
ATOM     10  C   UNL     1      -6.227   2.121  25.002  0.00  0.00    +0.175 C 
BRANCH   6   2
ATOM      2  O   UNL     1      -2.736   4.600  26.105  0.00  0.00    -0.376 OA
ATOM     17  C   UNL     1      -1.659   4.280  25.238  0.00  0.00    +0.194 C 
ENDBRANCH   6   2
ENDBRANCH   8   3
BRANCH   8  11
ATOM     11  C   UNL     1      -1.916  -0.019  24.480  0.00  0.00    -0.033 A 
ATOM     12  C   UNL     1      -1.015  -1.071  24.642  0.00  0.00    +0.007 A 
ATOM     13  C   UNL     1      -1.568   1.084  23.699  0.00  0.00    +0.007 A 
ATOM     14  C   UNL     1       0.582   0.083  23.243  0.00  0.00    +0.029 A 
ATOM     15  C   UNL     1       0.235  -1.021  24.024  0.00  0.00    +0.023 A 
ATOM     16  C   UNL     1      -0.320   1.134  23.082  0.00  0.00    +0.023 A 
BRANCH  14   4
ATOM      4  N   UNL     1       1.846   0.133  22.617  0.00  0.00    -0.336 N 
ATOM     18  C   UNL     1       2.947   0.837  23.242  0.00  0.00    +0.129 C 
ATOM     19  C   UNL     1       2.059  -0.525  21.344  0.00  0.00    +0.129 C 
ENDBRANCH  14   4
ENDBRANCH   8  11
TORSDOF 4
ENDMDL
MODEL 2
REMARK VINA RESULT:      -2.8      1.649      2.991
REMARK  Name = 75536937
REMARK  7 active torsions:
REMARK  status: ('A' for Active; 'I' for Inactive)
REMARK    1  A    between atoms: O_2  and  C_6
REMARK    2  A    between atoms: O_2  and  C_17
REMARK    3  A    between atoms: N_3  and  C_8
REMARK    4  A    between atoms: N_4  and  C_14
REMARK    5  A    between atoms: N_4  and  C_18
REMARK    6  A    between atoms: N_4  and  C_19
REMARK    7  A    between atoms: C_8  and  C_11
REMARK                            x       y       z     vdW  Elec       q    Type
REMARK                         _______ _______ _______ _____ _____    ______ ____
ROOT
ATOM      8  C   UNL     1      -1.741   2.975  26.102  0.00  0.00    +0.119 C 
ENDROOT
BRANCH   8   3
ATOM      1  O   UNL     1      -6.101   2.623  24.905  0.00  0.00    -0.376 OA
ATOM      3  N   UNL     1      -3.130   2.587  25.852  0.00  0.00    -0.293 NA
ATOM      5  C   UNL     1      -3.179   1.272  25.203  0.00  0.00    +0.118 C 
ATOM      6  C   UNL     1      -4.489   0.861  24.512  0.00  0.00    +0.157 C 
ATOM      7  C   UNL     1      -3.861   3.638  25.142  0.00  0.00    +0.113 C 
ATOM      9  C   UNL     1      -5.749   1.289  25.251  0.00  0.00    +0.192 C 
ATOM     10  C   UNL     1      -5.332   3.623  25.558  0.00  0.00    +0.175 C 
BRANCH   6   2
ATOM      2  O   UNL     1      -4.503  -0.562  24.399  0.00  0.00    -0.376 OA
ATOM     17  C   UNL     1      -3.677  -1.166  25.382  0.00  0.00    +0.194 C 
ENDBRANCH   6   2
ENDBRANCH   8   3
BRANCH   8  11
ATOM     11  C   UNL     1      -0.785   2.251  25.193  0.00  0.00    -0.033 A 
ATOM     12  C   UNL     1       0.074   2.973  24.365  0.00  0.00    +0.007 A 
ATOM     13  C   UNL     1      -0.756   0.855  25.180  0.00  0.00    +0.007 A 
ATOM     14  C   UNL     1       0.988   0.907  23.511  0.00  0.00    +0.029 A 
ATOM     15  C   UNL     1       0.961   2.302  23.523  0.00  0.00    +0.023 A 
ATOM     16  C   UNL     1       0.130   0.185  24.339  0.00  0.00    +0.023 A 
BRANCH  14   4
ATOM      4  N   UNL     1       1.886   0.227  22.660  0.00  0.00    -0.336 N 
ATOM     18  C   UNL     1       1.390  -0.665  21.632  0.00  0.00    +0.129 C 
ATOM     19  C   UNL     1       3.316   0.419  22.800  0.00  0.00    +0.129 C 
ENDBRANCH  14   4
ENDBRANCH   8  11
TORSDOF 4
ENDMDL
MODEL 3
REMARK VINA RESULT:      -2.7      2.757      6.689
REMARK  Name = 75536937
REMARK  7 active torsions:
REMARK  status: ('A' for Active; 'I' for Inactive)
REMARK    1  A    between atoms: O_2  and  C_6
REMARK    2  A    between atoms: O_2  and  C_17
REMARK    3  A    between atoms: N_3  and  C_8
REMARK    4  A    between atoms: N_4  and  C_14
REMARK    5  A    between atoms: N_4  and  C_18
REMARK    6  A    between atoms: N_4  and  C_19
REMARK    7  A    between atoms: C_8  and  C_11
REMARK                            x       y       z     vdW  Elec       q    Type
REMARK                         _______ _______ _______ _____ _____    ______ ____
ROOT
ATOM      8  C   UNL     1      -0.078   3.084  24.258  0.00  0.00    +0.119 C 
ENDROOT
BRANCH   8   3
ATOM      1  O   UNL     1       1.857  -0.814  22.986  0.00  0.00    -0.376 OA
ATOM      3  N   UNL     1       0.257   1.740  23.787  0.00  0.00    -0.293 NA
ATOM      5  C   UNL     1      -0.533   0.739  24.511  0.00  0.00    +0.118 C 
ATOM      6  C   UNL     1      -0.065  -0.724  24.453  0.00  0.00    +0.157 C 
ATOM      7  C   UNL     1       1.703   1.507  23.820  0.00  0.00    +0.113 C 
ATOM      9  C   UNL     1       0.481  -1.155  23.099  0.00  0.00    +0.192 C 
ATOM     10  C   UNL     1       2.103   0.554  22.693  0.00  0.00    +0.175 C 
BRANCH   6   2
ATOM      2  O   UNL     1      -1.180  -1.560  24.767  0.00  0.00    -0.376 OA
ATOM     17  C   UNL     1      -2.172  -0.846  25.489  0.00  0.00    +0.194 C 
ENDBRANCH   6   2
ENDBRANCH   8   3
BRANCH   8  11
ATOM     11  C   UNL     1      -1.534   3.203  24.624  0.00  0.00    -0.033 A 
ATOM     12  C   UNL     1      -2.512   2.683  23.778  0.00  0.00    +0.007 A 
ATOM     13  C   UNL     1      -1.904   3.835  25.812  0.00  0.00    +0.007 A 
ATOM     14  C   UNL     1      -4.229   3.425  25.305  0.00  0.00    +0.029 A 
ATOM     15  C   UNL     1      -3.860   2.793  24.117  0.00  0.00    +0.023 A 
ATOM     16  C   UNL     1      -3.251   3.945  26.152  0.00  0.00    +0.023 A 
BRANCH  14   4
ATOM      4  N   UNL     1      -5.593   3.535  25.650  0.00  0.00    -0.336 N 
ATOM     18  C   UNL     1      -6.259   4.821  25.606  0.00  0.00    +0.129 C 
ATOM     19  C   UNL     1      -6.347   2.362  26.045  0.00  0.00    +0.129 C 
ENDBRANCH  14   4
ENDBRANCH   8  11
TORSDOF 4
ENDMDL
MODEL 4
REMARK VINA RESULT:      -2.4      2.891      6.704
REMARK  Name = 75536937
REMARK  7 active torsions:
REMARK  status: ('A' for Active; 'I' for Inactive)
REMARK    1  A    between atoms: O_2  and  C_6
REMARK    2  A    between atoms: O_2  and  C_17
REMARK    3  A    between atoms: N_3  and  C_8
REMARK    4  A    between atoms: N_4  and  C_14
REMARK    5  A    between atoms: N_4  and  C_18
REMARK    6  A    between atoms: N_4  and  C_19
REMARK    7  A    between atoms: C_8  and  C_11
REMARK                            x       y       z     vdW  Elec       q    Type
REMARK                         _______ _______ _______ _____ _____    ______ ____
ROOT
ATOM      8  C   UNL     1      -0.046   3.040  24.678  0.00  0.00    +0.119 C 
ENDROOT
BRANCH   8   3
ATOM      1  O   UNL     1       0.101  -1.453  24.088  0.00  0.00    -0.376 OA
ATOM      3  N   UNL     1       0.306   1.632  24.493  0.00  0.00    -0.293 NA
ATOM      5  C   UNL     1       1.238   1.487  23.370  0.00  0.00    +0.118 C 
ATOM      6  C   UNL     1       1.423   0.085  22.767  0.00  0.00    +0.157 C 
ATOM      7  C   UNL     1      -0.889   0.790  24.399  0.00  0.00    +0.113 C 
ATOM      9  C   UNL     1       1.430  -1.042  23.791  0.00  0.00    +0.192 C 
ATOM     10  C   UNL     1      -0.597  -0.595  24.979  0.00  0.00    +0.175 C 
BRANCH   6   2
ATOM      2  O   UNL     1       2.672   0.061  22.075  0.00  0.00    -0.376 OA
ATOM     17  C   UNL     1       3.656   0.820  22.760  0.00  0.00    +0.194 C 
ENDBRANCH   6   2
ENDBRANCH   8   3
BRANCH   8  11
ATOM     11  C   UNL     1      -1.522   3.224  24.910  0.00  0.00    -0.033 A 
ATOM     12  C   UNL     1      -2.434   2.879  23.913  0.00  0.00    +0.007 A 
ATOM     13  C   UNL     1      -1.978   3.740  26.124  0.00  0.00    +0.007 A 
ATOM     14  C   UNL     1      -4.256   3.565  25.343  0.00  0.00    +0.029 A 
ATOM     15  C   UNL     1      -3.801   3.050  24.129  0.00  0.00    +0.023 A 
ATOM     16  C   UNL     1      -3.344   3.911  26.339  0.00  0.00    +0.023 A 
BRANCH  14   4
ATOM      4  N   UNL     1      -5.640   3.737  25.561  0.00  0.00    -0.336 N 
ATOM     18  C   UNL     1      -6.487   2.594  25.831  0.00  0.00    +0.129 C 
ATOM     19  C   UNL     1      -6.228   5.061  25.525  0.00  0.00    +0.129 C 
ENDBRANCH  14   4
ENDBRANCH   8  11
TORSDOF 4
ENDMDL
MODEL 5
REMARK VINA RESULT:      -2.2      1.233      2.887
REMARK  Name = 75536937
REMARK  7 active torsions:
REMARK  status: ('A' for Active; 'I' for Inactive)
REMARK    1  A    between atoms: O_2  and  C_6
REMARK    2  A    between atoms: O_2  and  C_17
REMARK    3  A    between atoms: N_3  and  C_8
REMARK    4  A    between atoms: N_4  and  C_14
REMARK    5  A    between atoms: N_4  and  C_18
REMARK    6  A    between atoms: N_4  and  C_19
REMARK    7  A    between atoms: C_8  and  C_11
REMARK                            x       y       z     vdW  Elec       q    Type
REMARK                         _______ _______ _______ _____ _____    ______ ____
ROOT
ATOM      8  C   UNL     1      -2.118   0.855  23.860  0.00  0.00    +0.119 C 
ENDROOT
BRANCH   8   3
ATOM      1  O   UNL     1      -2.492   4.958  25.755  0.00  0.00    -0.376 OA
ATOM      3  N   UNL     1      -2.392   2.028  24.691  0.00  0.00    -0.293 NA
ATOM      5  C   UNL     1      -3.827   2.116  24.982  0.00  0.00    +0.118 C 
ATOM      6  C   UNL     1      -4.374   3.458  25.496  0.00  0.00    +0.157 C 
ATOM      7  C   UNL     1      -1.819   3.243  24.108  0.00  0.00    +0.113 C 
ATOM      9  C   UNL     1      -3.450   4.182  26.466  0.00  0.00    +0.192 C 
ATOM     10  C   UNL     1      -1.409   4.211  25.219  0.00  0.00    +0.175 C 
BRANCH   6   2
ATOM      2  O   UNL     1      -5.609   3.206  26.168  0.00  0.00    -0.376 OA
ATOM     17  C   UNL     1      -6.151   1.948  25.795  0.00  0.00    +0.194 C 
ENDBRANCH   6   2
ENDBRANCH   8   3
BRANCH   8  11
ATOM     11  C   UNL     1      -0.642   0.653  23.645  0.00  0.00    -0.033 A 
ATOM     12  C   UNL     1       0.268   1.605  24.103  0.00  0.00    +0.007 A 
ATOM     13  C   UNL     1      -0.183  -0.490  22.988  0.00  0.00    +0.007 A 
ATOM     14  C   UNL     1       2.093   0.275  23.248  0.00  0.00    +0.029 A 
ATOM     15  C   UNL     1       1.635   1.418  23.905  0.00  0.00    +0.023 A 
ATOM     16  C   UNL     1       1.184  -0.678  22.790  0.00  0.00    +0.023 A 
BRANCH  14   4
ATOM      4  N   UNL     1       3.477   0.084  23.048  0.00  0.00    -0.336 N 
ATOM     18  C   UNL     1       4.253   1.060  22.311  0.00  0.00    +0.129 C 
ATOM     19  C   UNL     1       4.140  -1.088  23.583  0.00  0.00    +0.129 C 
ENDBRANCH  14   4
ENDBRANCH   8  11
TORSDOF 4
ENDMDL
MODEL 6
REMARK VINA RESULT:      -2.0      3.050      5.306
REMARK  Name = 75536937
REMARK  7 active torsions:
REMARK  status: ('A' for Active; 'I' for Inactive)
REMARK    1  A    between atoms: O_2  and  C_6
REMARK    2  A    between atoms: O_2  and  C_17
REMARK    3  A    between atoms: N_3  and  C_8
REMARK    4  A    between atoms: N_4  and  C_14
REMARK    5  A    between atoms: N_4  and  C_18
REMARK    6  A    between atoms: N_4  and  C_19
REMARK    7  A    between atoms: C_8  and  C_11
REMARK                            x       y       z     vdW  Elec       q    Type
REMARK                         _______ _______ _______ _____ _____    ______ ____
ROOT
ATOM      8  C   UNL     1      -4.755   0.510  24.800  0.00  0.00    +0.119 C 
ENDROOT
BRANCH   8   3
ATOM      1  O   UNL     1      -2.805  -3.515  24.052  0.00  0.00    -0.376 OA
ATOM      3  N   UNL     1      -3.946  -0.710  24.795  0.00  0.00    -0.293 NA
ATOM      5  C   UNL     1      -2.520  -0.369  24.744  0.00  0.00    +0.118 C 
ATOM      6  C   UNL     1      -1.532  -1.477  24.342  0.00  0.00    +0.157 C 
ATOM      7  C   UNL     1      -4.383  -1.637  23.750  0.00  0.00    +0.113 C 
ATOM      9  C   UNL     1      -1.872  -2.853  24.898  0.00  0.00    +0.192 C 
ATOM     10  C   UNL     1      -4.149  -3.079  24.202  0.00  0.00    +0.175 C 
BRANCH   6   2
ATOM      2  O   UNL     1      -0.238  -1.113  24.823  0.00  0.00    -0.376 OA
ATOM     17  C   UNL     1       0.417  -0.231  23.925  0.00  0.00    +0.194 C 
ENDBRANCH   6   2
ENDBRANCH   8   3
BRANCH   8  11
ATOM     11  C   UNL     1      -3.901   1.750  24.810  0.00  0.00    -0.033 A 
ATOM     12  C   UNL     1      -2.952   1.952  23.809  0.00  0.00    +0.007 A 
ATOM     13  C   UNL     1      -4.060   2.697  25.822  0.00  0.00    +0.007 A 
ATOM     14  C   UNL     1      -2.320   4.048  24.831  0.00  0.00    +0.029 A 
ATOM     15  C   UNL     1      -2.161   3.101  23.818  0.00  0.00    +0.023 A 
ATOM     16  C   UNL     1      -3.269   3.845  25.832  0.00  0.00    +0.023 A 
BRANCH  14   4
ATOM      4  N   UNL     1      -1.521   5.211  24.840  0.00  0.00    -0.336 N 
ATOM     18  C   UNL     1      -2.107   6.502  25.136  0.00  0.00    +0.129 C 
ATOM     19  C   UNL     1      -0.101   5.126  24.559  0.00  0.00    +0.129 C 
ENDBRANCH  14   4
ENDBRANCH   8  11
TORSDOF 4
ENDMDL
MODEL 7
REMARK VINA RESULT:      -1.9      2.258      4.414
REMARK  Name = 75536937
REMARK  7 active torsions:
REMARK  status: ('A' for Active; 'I' for Inactive)
REMARK    1  A    between atoms: O_2  and  C_6
REMARK    2  A    between atoms: O_2  and  C_17
REMARK    3  A    between atoms: N_3  and  C_8
REMARK    4  A    between atoms: N_4  and  C_14
REMARK    5  A    between atoms: N_4  and  C_18
REMARK    6  A    between atoms: N_4  and  C_19
REMARK    7  A    between atoms: C_8  and  C_11
REMARK                            x       y       z     vdW  Elec       q    Type
REMARK                         _______ _______ _______ _____ _____    ______ ____
ROOT
ATOM      8  C   UNL     1      -0.067   1.793  24.551  0.00  0.00    +0.119 C 
ENDROOT
BRANCH   8   3
ATOM      1  O   UNL     1      -1.840   5.938  25.039  0.00  0.00    -0.376 OA
ATOM      3  N   UNL     1      -0.754   3.016  24.970  0.00  0.00    -0.293 NA
ATOM      5  C   UNL     1      -2.162   2.728  25.265  0.00  0.00    +0.118 C 
ATOM      6  C   UNL     1      -3.136   3.915  25.339  0.00  0.00    +0.157 C 
ATOM      7  C   UNL     1      -0.548   4.101  24.009  0.00  0.00    +0.113 C 
ATOM      9  C   UNL     1      -2.557   5.162  25.993  0.00  0.00    +0.192 C 
ATOM     10  C   UNL     1      -0.542   5.446  24.736  0.00  0.00    +0.175 C 
BRANCH   6   2
ATOM      2  O   UNL     1      -4.276   3.508  26.096  0.00  0.00    -0.376 OA
ATOM     17  C   UNL     1      -5.179   2.754  25.303  0.00  0.00    +0.194 C 
ENDBRANCH   6   2
ENDBRANCH   8   3
BRANCH   8  11
ATOM     11  C   UNL     1      -1.004   0.617  24.488  0.00  0.00    -0.033 A 
ATOM     12  C   UNL     1      -2.252   0.750  23.881  0.00  0.00    +0.007 A 
ATOM     13  C   UNL     1      -0.623  -0.609  25.037  0.00  0.00    +0.007 A 
ATOM     14  C   UNL     1      -2.739  -1.565  24.371  0.00  0.00    +0.029 A 
ATOM     15  C   UNL     1      -3.121  -0.340  23.822  0.00  0.00    +0.023 A 
ATOM     16  C   UNL     1      -1.491  -1.698  24.978  0.00  0.00    +0.023 A 
BRANCH  14   4
ATOM      4  N   UNL     1      -3.616  -2.668  24.311  0.00  0.00    -0.336 N 
ATOM     18  C   UNL     1      -3.439  -3.796  25.202  0.00  0.00    +0.129 C 
ATOM     19  C   UNL     1      -4.711  -2.683  23.360  0.00  0.00    +0.129 C 
ENDBRANCH  14   4
ENDBRANCH   8  11
TORSDOF 4
ENDMDL
MODEL 8
REMARK VINA RESULT:      -1.8      2.819      5.169
REMARK  Name = 75536937
REMARK  7 active torsions:
REMARK  status: ('A' for Active; 'I' for Inactive)
REMARK    1  A    between atoms: O_2  and  C_6
REMARK    2  A    between atoms: O_2  and  C_17
REMARK    3  A    between atoms: N_3  and  C_8
REMARK    4  A    between atoms: N_4  and  C_14
REMARK    5  A    between atoms: N_4  and  C_18
REMARK    6  A    between atoms: N_4  and  C_19
REMARK    7  A    between atoms: C_8  and  C_11
REMARK                            x       y       z     vdW  Elec       q    Type
REMARK                         _______ _______ _______ _____ _____    ______ ____
ROOT
ATOM      8  C   UNL     1      -0.296  -0.445  24.439  0.00  0.00    +0.119 C 
ENDROOT
BRANCH   8   3
ATOM      1  O   UNL     1      -3.708  -3.430  24.346  0.00  0.00    -0.376 OA
ATOM      3  N   UNL     1      -1.523  -1.210  24.210  0.00  0.00    -0.293 NA
ATOM      5  C   UNL     1      -2.697  -0.360  24.437  0.00  0.00    +0.118 C 
ATOM      6  C   UNL     1      -4.055  -1.052  24.633  0.00  0.00    +0.157 C 
ATOM      7  C   UNL     1      -1.524  -2.459  24.975  0.00  0.00    +0.113 C 
ATOM      9  C   UNL     1      -4.273  -2.270  23.746  0.00  0.00    +0.192 C 
ATOM     10  C   UNL     1      -2.298  -3.535  24.212  0.00  0.00    +0.175 C 
BRANCH   6   2
ATOM      2  O   UNL     1      -5.083  -0.104  24.341  0.00  0.00    -0.376 OA
ATOM     17  C   UNL     1      -4.777   1.171  24.886  0.00  0.00    +0.194 C 
ENDBRANCH   6   2
ENDBRANCH   8   3
BRANCH   8  11
ATOM     11  C   UNL     1      -0.575   1.023  24.619  0.00  0.00    -0.033 A 
ATOM     12  C   UNL     1      -0.917   1.809  23.519  0.00  0.00    +0.007 A 
ATOM     13  C   UNL     1      -0.491   1.598  25.888  0.00  0.00    +0.007 A 
ATOM     14  C   UNL     1      -1.092   3.743  24.956  0.00  0.00    +0.029 A 
ATOM     15  C   UNL     1      -1.176   3.169  23.686  0.00  0.00    +0.023 A 
ATOM     16  C   UNL     1      -0.749   2.957  26.055  0.00  0.00    +0.023 A 
BRANCH  14   4
ATOM      4  N   UNL     1      -1.355   5.119  25.125  0.00  0.00    -0.336 N 
ATOM     18  C   UNL     1      -0.456   6.112  24.573  0.00  0.00    +0.129 C 
ATOM     19  C   UNL     1      -2.532   5.557  25.849  0.00  0.00    +0.129 C 
ENDBRANCH  14   4
ENDBRANCH   8  11
TORSDOF 4
ENDMDL
MODEL 9
REMARK VINA RESULT:      -1.4      2.345      6.142
REMARK  Name = 75536937
REMARK  7 active torsions:
REMARK  status: ('A' for Active; 'I' for Inactive)
REMARK    1  A    between atoms: O_2  and  C_6
REMARK    2  A    between atoms: O_2  and  C_17
REMARK    3  A    between atoms: N_3  and  C_8
REMARK    4  A    between atoms: N_4  and  C_14
REMARK    5  A    between atoms: N_4  and  C_18
REMARK    6  A    between atoms: N_4  and  C_19
REMARK    7  A    between atoms: C_8  and  C_11
REMARK                            x       y       z     vdW  Elec       q    Type
REMARK                         _______ _______ _______ _____ _____    ______ ____
ROOT
ATOM      8  C   UNL     1      -1.350  -1.342  24.109  0.00  0.00    +0.119 C 
ENDROOT
BRANCH   8   3
ATOM      1  O   UNL     1       2.372   0.739  22.569  0.00  0.00    -0.376 OA
ATOM      3  N   UNL     1      -0.105  -0.601  23.908  0.00  0.00    -0.293 NA
ATOM      5  C   UNL     1      -0.201   0.726  24.525  0.00  0.00    +0.118 C 
ATOM      6  C   UNL     1       0.824   1.791  24.103  0.00  0.00    +0.157 C 
ATOM      7  C   UNL     1       0.286  -0.583  22.497  0.00  0.00    +0.113 C 
ATOM      9  C   UNL     1       2.232   1.255  23.887  0.00  0.00    +0.192 C 
ATOM     10  C   UNL     1       1.810  -0.552  22.378  0.00  0.00    +0.175 C 
BRANCH   6   2
ATOM      2  O   UNL     1       0.881   2.784  25.127  0.00  0.00    -0.376 OA
ATOM     17  C   UNL     1      -0.419   3.223  25.492  0.00  0.00    +0.194 C 
ENDBRANCH   6   2
ENDBRANCH   8   3
BRANCH   8  11
ATOM     11  C   UNL     1      -2.516  -0.423  24.358  0.00  0.00    -0.033 A 
ATOM     12  C   UNL     1      -2.679   0.725  23.584  0.00  0.00    +0.007 A 
ATOM     13  C   UNL     1      -3.435  -0.721  25.365  0.00  0.00    +0.007 A 
ATOM     14  C   UNL     1      -4.678   1.277  24.822  0.00  0.00    +0.029 A 
ATOM     15  C   UNL     1      -3.759   1.576  23.815  0.00  0.00    +0.023 A 
ATOM     16  C   UNL     1      -4.515   0.129  25.597  0.00  0.00    +0.023 A 
BRANCH  14   4
ATOM      4  N   UNL     1      -5.771   2.138  25.056  0.00  0.00    -0.336 N 
ATOM     18  C   UNL     1      -7.105   1.760  24.635  0.00  0.00    +0.129 C 
ATOM     19  C   UNL     1      -5.574   3.408  25.727  0.00  0.00    +0.129 C 
ENDBRANCH  14   4
ENDBRANCH   8  11
TORSDOF 4
ENDMDL
MODEL 10
REMARK VINA RESULT:      -0.9      1.887      3.385
REMARK  Name = 75536937
REMARK  7 active torsions:
REMARK  status: ('A' for Active; 'I' for Inactive)
REMARK    1  A    between atoms: O_2  and  C_6
REMARK    2  A    between atoms: O_2  and  C_17
REMARK    3  A    between atoms: N_3  and  C_8
REMARK    4  A    between atoms: N_4  and  C_14
REMARK    5  A    between atoms: N_4  and  C_18
REMARK    6  A    between atoms: N_4  and  C_19
REMARK    7  A    between atoms: C_8  and  C_11
REMARK                            x       y       z     vdW  Elec       q    Type
REMARK                         _______ _______ _______ _____ _____    ______ ____
ROOT
ATOM      8  C   UNL     1      -1.554   1.738  23.154  0.00  0.00    +0.119 C 
ENDROOT
BRANCH   8   3
ATOM      1  O   UNL     1      -3.640  -1.197  25.910  0.00  0.00    -0.376 OA
ATOM      3  N   UNL     1      -2.476   0.860  23.876  0.00  0.00    -0.293 NA
ATOM      5  C   UNL     1      -3.653   1.616  24.315  0.00  0.00    +0.118 C 
ATOM      6  C   UNL     1      -4.540   0.993  25.406  0.00  0.00    +0.157 C 
ATOM      7  C   UNL     1      -1.792   0.131  24.946  0.00  0.00    +0.113 C 
ATOM      9  C   UNL     1      -4.720  -0.514  25.283  0.00  0.00    +0.192 C 
ATOM     10  C   UNL     1      -2.445  -1.238  25.143  0.00  0.00    +0.175 C 
BRANCH   6   2
ATOM      2  O   UNL     1      -5.830   1.600  25.330  0.00  0.00    -0.376 OA
ATOM     17  C   UNL     1      -5.754   3.000  25.549  0.00  0.00    +0.194 C 
ENDBRANCH   6   2
ENDBRANCH   8   3
BRANCH   8  11
ATOM     11  C   UNL     1      -0.143   1.213  23.179  0.00  0.00    -0.033 A 
ATOM     12  C   UNL     1       0.861   1.940  23.818  0.00  0.00    +0.007 A 
ATOM     13  C   UNL     1       0.160  -0.001  22.562  0.00  0.00    +0.007 A 
ATOM     14  C   UNL     1       2.470   0.239  23.224  0.00  0.00    +0.029 A 
ATOM     15  C   UNL     1       2.168   1.453  23.841  0.00  0.00    +0.023 A 
ATOM     16  C   UNL     1       1.466  -0.487  22.585  0.00  0.00    +0.023 A 
BRANCH  14   4
ATOM      4  N   UNL     1       3.792  -0.254  23.248  0.00  0.00    -0.336 N 
ATOM     18  C   UNL     1       4.074  -1.572  23.780  0.00  0.00    +0.129 C 
ATOM     19  C   UNL     1       4.883   0.550  22.735  0.00  0.00    +0.129 C 
ENDBRANCH  14   4
ENDBRANCH   8  11
TORSDOF 4
ENDMDL
