MODEL 1
REMARK VINA RESULT:      -3.7      0.000      0.000
REMARK  Name = 75368472
REMARK  2 active torsions:
REMARK  status: ('A' for Active; 'I' for Inactive)
REMARK    1  A    between atoms: N_5  and  C_13
REMARK    2  A    between atoms: C_12  and  C_14
REMARK                            x       y       z     vdW  Elec       q    Type
REMARK                         _______ _______ _______ _____ _____    ______ ____
ROOT
ATOM      1  O   UNL     1      -6.889   1.778  25.425  0.00  0.00    -0.252 OA
ATOM      2  O   UNL     1      -1.218  -2.089  24.126  0.00  0.00    -0.270 OA
ATOM      3  N   UNL     1      -4.683   1.237  24.825  0.00  0.00    -0.278 N 
ATOM      4  N   UNL     1      -2.273  -0.146  24.882  0.00  0.00    -0.294 N 
ATOM      5  N   UNL     1      -5.187   3.394  25.198  0.00  0.00    -0.287 N 
ATOM      6  C   UNL     1      -3.468   1.959  24.490  0.00  0.00    +0.112 C 
ATOM      7  C   UNL     1      -2.263   1.304  25.157  0.00  0.00    +0.132 C 
ATOM      8  C   UNL     1      -3.756   3.386  24.950  0.00  0.00    +0.133 C 
ATOM      9  C   UNL     1      -4.730  -0.207  24.673  0.00  0.00    +0.128 C 
ATOM     10  C   UNL     1      -3.495  -0.842  25.310  0.00  0.00    +0.127 C 
ATOM     11  C   UNL     1      -5.733   2.095  25.177  0.00  0.00    +0.305 C 
ATOM     12  C   UNL     1      -1.225  -0.873  24.314  0.00  0.00    +0.247 C 
ATOM     13  C   UNL     1      -5.895   4.603  25.555  0.00  0.00    +0.133 C 
ENDROOT
BRANCH  12  14
ATOM     14  C   UNL     1      -0.027  -0.141  23.888  0.00  0.00    +0.037 A 
ATOM     15  C   UNL     1       0.875  -0.733  23.004  0.00  0.00    +0.013 A 
ATOM     16  C   UNL     1       0.209   1.149  24.364  0.00  0.00    +0.013 A 
ATOM     17  C   UNL     1       2.013  -0.036  22.597  0.00  0.00    +0.001 A 
ATOM     18  C   UNL     1       1.347   1.845  23.959  0.00  0.00    +0.001 A 
ATOM     19  C   UNL     1       2.248   1.253  23.075  0.00  0.00    +0.000 A 
ENDBRANCH  12  14
TORSDOF 1
ENDMDL
MODEL 2
REMARK VINA RESULT:      -3.2      3.006      5.009
REMARK  Name = 75368472
REMARK  2 active torsions:
REMARK  status: ('A' for Active; 'I' for Inactive)
REMARK    1  A    between atoms: N_5  and  C_13
REMARK    2  A    between atoms: C_12  and  C_14
REMARK                            x       y       z     vdW  Elec       q    Type
REMARK                         _______ _______ _______ _____ _____    ______ ____
ROOT
ATOM      1  O   UNL     1      -2.339  -3.571  24.250  0.00  0.00    -0.252 OA
ATOM      2  O   UNL     1       0.734   2.324  26.397  0.00  0.00    -0.270 OA
ATOM      3  N   UNL     1      -1.971  -1.275  24.583  0.00  0.00    -0.278 N 
ATOM      4  N   UNL     1      -1.146   1.028  25.902  0.00  0.00    -0.294 N 
ATOM      5  N   UNL     1      -3.978  -1.932  23.819  0.00  0.00    -0.287 N 
ATOM      6  C   UNL     1      -2.683  -0.037  24.316  0.00  0.00    +0.112 C 
ATOM      7  C   UNL     1      -2.563   0.909  25.506  0.00  0.00    +0.132 C 
ATOM      8  C   UNL     1      -4.105  -0.497  24.006  0.00  0.00    +0.133 C 
ATOM      9  C   UNL     1      -0.603  -1.230  25.071  0.00  0.00    +0.128 C 
ATOM     10  C   UNL     1      -0.494  -0.246  26.235  0.00  0.00    +0.127 C 
ATOM     11  C   UNL     1      -2.713  -2.406  24.218  0.00  0.00    +0.305 C 
ATOM     12  C   UNL     1      -0.433   2.222  26.024  0.00  0.00    +0.247 C 
ATOM     13  C   UNL     1      -5.094  -2.751  23.399  0.00  0.00    +0.133 C 
ENDROOT
BRANCH  12  14
ATOM     14  C   UNL     1      -1.115   3.473  25.670  0.00  0.00    +0.037 A 
ATOM     15  C   UNL     1      -2.432   3.689  26.072  0.00  0.00    +0.013 A 
ATOM     16  C   UNL     1      -0.443   4.449  24.932  0.00  0.00    +0.013 A 
ATOM     17  C   UNL     1      -3.079   4.878  25.737  0.00  0.00    +0.001 A 
ATOM     18  C   UNL     1      -1.089   5.637  24.597  0.00  0.00    +0.001 A 
ATOM     19  C   UNL     1      -2.407   5.853  24.999  0.00  0.00    +0.000 A 
ENDBRANCH  12  14
TORSDOF 1
ENDMDL
MODEL 3
REMARK VINA RESULT:      -3.0      2.683      4.284
REMARK  Name = 75368472
REMARK  2 active torsions:
REMARK  status: ('A' for Active; 'I' for Inactive)
REMARK    1  A    between atoms: N_5  and  C_13
REMARK    2  A    between atoms: C_12  and  C_14
REMARK                            x       y       z     vdW  Elec       q    Type
REMARK                         _______ _______ _______ _____ _____    ______ ____
ROOT
ATOM      1  O   UNL     1      -1.344   5.664  25.272  0.00  0.00    -0.252 OA
ATOM      2  O   UNL     1      -0.293  -1.225  25.751  0.00  0.00    -0.270 OA
ATOM      3  N   UNL     1      -1.762   3.358  25.122  0.00  0.00    -0.278 N 
ATOM      4  N   UNL     1      -1.197   0.667  24.719  0.00  0.00    -0.294 N 
ATOM      5  N   UNL     1      -3.178   4.766  24.093  0.00  0.00    -0.287 N 
ATOM      6  C   UNL     1      -2.818   2.503  24.606  0.00  0.00    +0.112 C 
ATOM      7  C   UNL     1      -2.219   1.309  23.870  0.00  0.00    +0.132 C 
ATOM      8  C   UNL     1      -3.649   3.440  23.734  0.00  0.00    +0.133 C 
ATOM      9  C   UNL     1      -0.670   2.777  25.883  0.00  0.00    +0.128 C 
ATOM     10  C   UNL     1      -0.110   1.558  25.151  0.00  0.00    +0.127 C 
ATOM     11  C   UNL     1      -2.012   4.716  24.882  0.00  0.00    +0.305 C 
ATOM     12  C   UNL     1      -1.169  -0.682  25.080  0.00  0.00    +0.247 C 
ATOM     13  C   UNL     1      -3.789   5.965  23.564  0.00  0.00    +0.133 C 
ENDROOT
BRANCH  12  14
ATOM     14  C   UNL     1      -2.278  -1.537  24.641  0.00  0.00    +0.037 A 
ATOM     15  C   UNL     1      -2.098  -2.917  24.541  0.00  0.00    +0.013 A 
ATOM     16  C   UNL     1      -3.514  -0.971  24.326  0.00  0.00    +0.013 A 
ATOM     17  C   UNL     1      -3.152  -3.729  24.125  0.00  0.00    +0.001 A 
ATOM     18  C   UNL     1      -4.567  -1.783  23.910  0.00  0.00    +0.001 A 
ATOM     19  C   UNL     1      -4.387  -3.163  23.810  0.00  0.00    +0.000 A 
ENDBRANCH  12  14
TORSDOF 1
ENDMDL
MODEL 4
REMARK VINA RESULT:      -2.9      1.960      6.122
REMARK  Name = 75368472
REMARK  2 active torsions:
REMARK  status: ('A' for Active; 'I' for Inactive)
REMARK    1  A    between atoms: N_5  and  C_13
REMARK    2  A    between atoms: C_12  and  C_14
REMARK                            x       y       z     vdW  Elec       q    Type
REMARK                         _______ _______ _______ _____ _____    ______ ____
ROOT
ATOM      1  O   UNL     1       2.585  -1.449  23.516  0.00  0.00    -0.252 OA
ATOM      2  O   UNL     1      -4.113  -0.919  25.428  0.00  0.00    -0.270 OA
ATOM      3  N   UNL     1       0.540  -0.466  24.126  0.00  0.00    -0.278 N 
ATOM      4  N   UNL     1      -2.218  -0.167  24.287  0.00  0.00    -0.294 N 
ATOM      5  N   UNL     1       2.148   0.856  23.282  0.00  0.00    -0.287 N 
ATOM      6  C   UNL     1      -0.001   0.879  24.229  0.00  0.00    +0.112 C 
ATOM      7  C   UNL     1      -1.423   0.918  23.680  0.00  0.00    +0.132 C 
ATOM      8  C   UNL     1       1.004   1.733  23.461  0.00  0.00    +0.133 C 
ATOM      9  C   UNL     1      -0.233  -1.595  24.614  0.00  0.00    +0.128 C 
ATOM     10  C   UNL     1      -1.666  -1.515  24.089  0.00  0.00    +0.127 C 
ATOM     11  C   UNL     1       1.851  -0.476  23.631  0.00  0.00    +0.305 C 
ATOM     12  C   UNL     1      -3.430  -0.009  24.961  0.00  0.00    +0.247 C 
ATOM     13  C   UNL     1       3.381   1.319  22.685  0.00  0.00    +0.133 C 
ENDROOT
BRANCH  12  14
ATOM     14  C   UNL     1      -3.943   1.353  25.151  0.00  0.00    +0.037 A 
ATOM     15  C   UNL     1      -3.057   2.426  25.247  0.00  0.00    +0.013 A 
ATOM     16  C   UNL     1      -5.318   1.576  25.233  0.00  0.00    +0.013 A 
ATOM     17  C   UNL     1      -3.545   3.720  25.425  0.00  0.00    +0.001 A 
ATOM     18  C   UNL     1      -5.806   2.869  25.411  0.00  0.00    +0.001 A 
ATOM     19  C   UNL     1      -4.919   3.942  25.507  0.00  0.00    +0.000 A 
ENDBRANCH  12  14
TORSDOF 1
ENDMDL
MODEL 5
REMARK VINA RESULT:      -2.5      2.227      5.145
REMARK  Name = 75368472
REMARK  2 active torsions:
REMARK  status: ('A' for Active; 'I' for Inactive)
REMARK    1  A    between atoms: N_5  and  C_13
REMARK    2  A    between atoms: C_12  and  C_14
REMARK                            x       y       z     vdW  Elec       q    Type
REMARK                         _______ _______ _______ _____ _____    ______ ____
ROOT
ATOM      1  O   UNL     1      -3.915  -3.281  24.797  0.00  0.00    -0.252 OA
ATOM      2  O   UNL     1      -4.880   3.586  25.641  0.00  0.00    -0.270 OA
ATOM      3  N   UNL     1      -3.418  -0.991  24.951  0.00  0.00    -0.278 N 
ATOM      4  N   UNL     1      -3.811   1.747  24.674  0.00  0.00    -0.294 N 
ATOM      5  N   UNL     1      -1.840  -2.372  24.145  0.00  0.00    -0.287 N 
ATOM      6  C   UNL     1      -2.252  -0.144  24.765  0.00  0.00    +0.112 C 
ATOM      7  C   UNL     1      -2.639   1.131  24.023  0.00  0.00    +0.132 C 
ATOM      8  C   UNL     1      -1.267  -1.042  24.022  0.00  0.00    +0.133 C 
ATOM      9  C   UNL     1      -4.641  -0.426  25.497  0.00  0.00    +0.128 C 
ATOM     10  C   UNL     1      -4.989   0.872  24.769  0.00  0.00    +0.127 C 
ATOM     11  C   UNL     1      -3.154  -2.334  24.653  0.00  0.00    +0.305 C 
ATOM     12  C   UNL     1      -3.887   3.061  25.139  0.00  0.00    +0.247 C 
ATOM     13  C   UNL     1      -1.153  -3.549  23.662  0.00  0.00    +0.133 C 
ENDROOT
BRANCH  12  14
ATOM     14  C   UNL     1      -2.687   3.900  25.038  0.00  0.00    +0.037 A 
ATOM     15  C   UNL     1      -2.806   5.289  25.017  0.00  0.00    +0.013 A 
ATOM     16  C   UNL     1      -1.426   3.307  24.966  0.00  0.00    +0.013 A 
ATOM     17  C   UNL     1      -1.666   6.086  24.924  0.00  0.00    +0.001 A 
ATOM     18  C   UNL     1      -0.286   4.104  24.872  0.00  0.00    +0.001 A 
ATOM     19  C   UNL     1      -0.405   5.493  24.851  0.00  0.00    +0.000 A 
ENDBRANCH  12  14
TORSDOF 1
ENDMDL
MODEL 6
REMARK VINA RESULT:      -1.9      2.061      3.020
REMARK  Name = 75368472
REMARK  2 active torsions:
REMARK  status: ('A' for Active; 'I' for Inactive)
REMARK    1  A    between atoms: N_5  and  C_13
REMARK    2  A    between atoms: C_12  and  C_14
REMARK                            x       y       z     vdW  Elec       q    Type
REMARK                         _______ _______ _______ _____ _____    ______ ____
ROOT
ATOM      1  O   UNL     1      -6.156   4.128  26.121  0.00  0.00    -0.252 OA
ATOM      2  O   UNL     1       0.760   3.409  25.454  0.00  0.00    -0.270 OA
ATOM      3  N   UNL     1      -4.085   3.158  25.585  0.00  0.00    -0.278 N 
ATOM      4  N   UNL     1      -1.438   3.057  24.745  0.00  0.00    -0.294 N 
ATOM      5  N   UNL     1      -5.951   2.190  24.794  0.00  0.00    -0.287 N 
ATOM      6  C   UNL     1      -3.619   1.950  24.926  0.00  0.00    +0.112 C 
ATOM      7  C   UNL     1      -2.445   2.270  24.006  0.00  0.00    +0.132 C 
ATOM      8  C   UNL     1      -4.862   1.422  24.215  0.00  0.00    +0.133 C 
ATOM      9  C   UNL     1      -3.133   4.033  26.248  0.00  0.00    +0.128 C 
ATOM     10  C   UNL     1      -1.944   4.307  25.327  0.00  0.00    +0.127 C 
ATOM     11  C   UNL     1      -5.482   3.266  25.573  0.00  0.00    +0.305 C 
ATOM     12  C   UNL     1      -0.087   2.730  24.876  0.00  0.00    +0.247 C 
ATOM     13  C   UNL     1      -7.334   1.923  24.467  0.00  0.00    +0.133 C 
ENDROOT
BRANCH  12  14
ATOM     14  C   UNL     1       0.379   1.467  24.291  0.00  0.00    +0.037 A 
ATOM     15  C   UNL     1      -0.297   0.279  24.569  0.00  0.00    +0.013 A 
ATOM     16  C   UNL     1       1.496   1.455  23.456  0.00  0.00    +0.013 A 
ATOM     17  C   UNL     1       0.145  -0.922  24.012  0.00  0.00    +0.001 A 
ATOM     18  C   UNL     1       1.938   0.255  22.900  0.00  0.00    +0.001 A 
ATOM     19  C   UNL     1       1.262  -0.933  23.177  0.00  0.00    +0.000 A 
ENDBRANCH  12  14
TORSDOF 1
ENDMDL
MODEL 7
REMARK VINA RESULT:      -1.7      2.761      4.935
REMARK  Name = 75368472
REMARK  2 active torsions:
REMARK  status: ('A' for Active; 'I' for Inactive)
REMARK    1  A    between atoms: N_5  and  C_13
REMARK    2  A    between atoms: C_12  and  C_14
REMARK                            x       y       z     vdW  Elec       q    Type
REMARK                         _______ _______ _______ _____ _____    ______ ____
ROOT
ATOM      1  O   UNL     1      -2.138   6.374  24.727  0.00  0.00    -0.252 OA
ATOM      2  O   UNL     1      -6.251   0.751  25.244  0.00  0.00    -0.270 OA
ATOM      3  N   UNL     1      -2.802   4.120  24.694  0.00  0.00    -0.278 N 
ATOM      4  N   UNL     1      -4.198   1.843  25.462  0.00  0.00    -0.294 N 
ATOM      5  N   UNL     1      -0.605   4.586  24.627  0.00  0.00    -0.287 N 
ATOM      6  C   UNL     1      -2.160   2.829  24.519  0.00  0.00    +0.112 C 
ATOM      7  C   UNL     1      -2.723   1.820  25.515  0.00  0.00    +0.132 C 
ATOM      8  C   UNL     1      -0.675   3.136  24.691  0.00  0.00    +0.133 C 
ATOM      9  C   UNL     1      -4.251   4.205  24.751  0.00  0.00    +0.128 C 
ATOM     10  C   UNL     1      -4.799   3.159  25.722  0.00  0.00    +0.127 C 
ATOM     11  C   UNL     1      -1.882   5.178  24.684  0.00  0.00    +0.305 C 
ATOM     12  C   UNL     1      -5.021   0.738  25.243  0.00  0.00    +0.247 C 
ATOM     13  C   UNL     1       0.657   5.292  24.642  0.00  0.00    +0.133 C 
ENDROOT
BRANCH  12  14
ATOM     14  C   UNL     1      -4.384  -0.557  24.976  0.00  0.00    +0.037 A 
ATOM     15  C   UNL     1      -4.593  -1.199  23.756  0.00  0.00    +0.013 A 
ATOM     16  C   UNL     1      -3.565  -1.144  25.941  0.00  0.00    +0.013 A 
ATOM     17  C   UNL     1      -3.986  -2.429  23.501  0.00  0.00    +0.001 A 
ATOM     18  C   UNL     1      -2.958  -2.373  25.686  0.00  0.00    +0.001 A 
ATOM     19  C   UNL     1      -3.168  -3.016  24.466  0.00  0.00    +0.000 A 
ENDBRANCH  12  14
TORSDOF 1
ENDMDL
MODEL 8
REMARK VINA RESULT:      -0.6      2.323      6.528
REMARK  Name = 75368472
REMARK  2 active torsions:
REMARK  status: ('A' for Active; 'I' for Inactive)
REMARK    1  A    between atoms: N_5  and  C_13
REMARK    2  A    between atoms: C_12  and  C_14
REMARK                            x       y       z     vdW  Elec       q    Type
REMARK                         _______ _______ _______ _____ _____    ______ ____
ROOT
ATOM      1  O   UNL     1       1.308  -1.054  23.747  0.00  0.00    -0.252 OA
ATOM      2  O   UNL     1      -1.771   5.010  25.344  0.00  0.00    -0.270 OA
ATOM      3  N   UNL     1      -0.396   0.499  24.197  0.00  0.00    -0.278 N 
ATOM      4  N   UNL     1      -1.632   2.678  25.399  0.00  0.00    -0.294 N 
ATOM      5  N   UNL     1      -0.933  -1.682  24.124  0.00  0.00    -0.287 N 
ATOM      6  C   UNL     1      -1.841   0.472  24.349  0.00  0.00    +0.112 C 
ATOM      7  C   UNL     1      -2.265   1.350  25.521  0.00  0.00    +0.132 C 
ATOM      8  C   UNL     1      -2.162  -1.011  24.512  0.00  0.00    +0.133 C 
ATOM      9  C   UNL     1       0.304   1.771  24.169  0.00  0.00    +0.128 C 
ATOM     10  C   UNL     1      -0.164   2.653  25.326  0.00  0.00    +0.127 C 
ATOM     11  C   UNL     1       0.140  -0.779  23.988  0.00  0.00    +0.305 C 
ATOM     12  C   UNL     1      -2.303   3.902  25.401  0.00  0.00    +0.247 C 
ATOM     13  C   UNL     1      -0.843  -3.122  24.035  0.00  0.00    +0.133 C 
ENDROOT
BRANCH  12  14
ATOM     14  C   UNL     1      -3.769   3.887  25.462  0.00  0.00    +0.037 A 
ATOM     15  C   UNL     1      -4.475   5.083  25.589  0.00  0.00    +0.013 A 
ATOM     16  C   UNL     1      -4.457   2.676  25.392  0.00  0.00    +0.013 A 
ATOM     17  C   UNL     1      -5.869   5.068  25.646  0.00  0.00    +0.001 A 
ATOM     18  C   UNL     1      -5.850   2.660  25.449  0.00  0.00    +0.001 A 
ATOM     19  C   UNL     1      -6.556   3.856  25.576  0.00  0.00    +0.000 A 
ENDBRANCH  12  14
TORSDOF 1
ENDMDL
MODEL 9
REMARK VINA RESULT:      -0.5      2.156      5.393
REMARK  Name = 75368472
REMARK  2 active torsions:
REMARK  status: ('A' for Active; 'I' for Inactive)
REMARK    1  A    between atoms: N_5  and  C_13
REMARK    2  A    between atoms: C_12  and  C_14
REMARK                            x       y       z     vdW  Elec       q    Type
REMARK                         _______ _______ _______ _____ _____    ______ ____
ROOT
ATOM      1  O   UNL     1      -2.449  -3.689  24.994  0.00  0.00    -0.252 OA
ATOM      2  O   UNL     1      -5.367   2.618  24.280  0.00  0.00    -0.270 OA
ATOM      3  N   UNL     1      -2.673  -1.351  25.019  0.00  0.00    -0.278 N 
ATOM      4  N   UNL     1      -3.548   1.154  24.192  0.00  0.00    -0.294 N 
ATOM      5  N   UNL     1      -0.616  -2.228  25.237  0.00  0.00    -0.287 N 
ATOM      6  C   UNL     1      -1.811  -0.207  25.264  0.00  0.00    +0.112 C 
ATOM      7  C   UNL     1      -2.096   0.895  24.248  0.00  0.00    +0.132 C 
ATOM      8  C   UNL     1      -0.403  -0.791  25.195  0.00  0.00    +0.133 C 
ATOM      9  C   UNL     1      -4.103  -1.157  24.855  0.00  0.00    +0.128 C 
ATOM     10  C   UNL     1      -4.368  -0.022  23.866  0.00  0.00    +0.127 C 
ATOM     11  C   UNL     1      -1.974  -2.565  25.077  0.00  0.00    +0.305 C 
ATOM     12  C   UNL     1      -4.160   2.395  24.371  0.00  0.00    +0.247 C 
ATOM     13  C   UNL     1       0.486  -3.163  25.301  0.00  0.00    +0.133 C 
ENDROOT
BRANCH  12  14
ATOM     14  C   UNL     1      -3.310   3.543  24.708  0.00  0.00    +0.037 A 
ATOM     15  C   UNL     1      -2.138   3.779  23.990  0.00  0.00    +0.013 A 
ATOM     16  C   UNL     1      -3.675   4.401  25.746  0.00  0.00    +0.013 A 
ATOM     17  C   UNL     1      -1.332   4.871  24.309  0.00  0.00    +0.001 A 
ATOM     18  C   UNL     1      -2.869   5.492  26.066  0.00  0.00    +0.001 A 
ATOM     19  C   UNL     1      -1.697   5.728  25.348  0.00  0.00    +0.000 A 
ENDBRANCH  12  14
TORSDOF 1
ENDMDL
MODEL 10
REMARK VINA RESULT:      -0.1      2.371      3.896
REMARK  Name = 75368472
REMARK  2 active torsions:
REMARK  status: ('A' for Active; 'I' for Inactive)
REMARK    1  A    between atoms: N_5  and  C_13
REMARK    2  A    between atoms: C_12  and  C_14
REMARK                            x       y       z     vdW  Elec       q    Type
REMARK                         _______ _______ _______ _____ _____    ______ ____
ROOT
ATOM      1  O   UNL     1      -3.552   5.942  25.011  0.00  0.00    -0.252 OA
ATOM      2  O   UNL     1      -0.108  -0.016  23.808  0.00  0.00    -0.270 OA
ATOM      3  N   UNL     1      -3.112   3.637  24.900  0.00  0.00    -0.278 N 
ATOM      4  N   UNL     1      -2.057   1.270  23.895  0.00  0.00    -0.294 N 
ATOM      5  N   UNL     1      -5.225   4.301  25.274  0.00  0.00    -0.287 N 
ATOM      6  C   UNL     1      -3.847   2.405  25.129  0.00  0.00    +0.112 C 
ATOM      7  C   UNL     1      -3.521   1.386  24.043  0.00  0.00    +0.132 C 
ATOM      8  C   UNL     1      -5.305   2.855  25.167  0.00  0.00    +0.133 C 
ATOM      9  C   UNL     1      -1.682   3.589  24.649  0.00  0.00    +0.128 C 
ATOM     10  C   UNL     1      -1.371   2.533  23.589  0.00  0.00    +0.127 C 
ATOM     11  C   UNL     1      -3.915   4.774  25.059  0.00  0.00    +0.305 C 
ATOM     12  C   UNL     1      -1.323   0.086  23.975  0.00  0.00    +0.247 C 
ATOM     13  C   UNL     1      -6.403   5.122  25.447  0.00  0.00    +0.133 C 
ENDROOT
BRANCH  12  14
ATOM     14  C   UNL     1      -2.042  -1.153  24.295  0.00  0.00    +0.037 A 
ATOM     15  C   UNL     1      -3.322  -1.369  23.787  0.00  0.00    +0.013 A 
ATOM     16  C   UNL     1      -1.443  -2.117  25.107  0.00  0.00    +0.013 A 
ATOM     17  C   UNL     1      -4.004  -2.547  24.091  0.00  0.00    +0.001 A 
ATOM     18  C   UNL     1      -2.124  -3.294  25.411  0.00  0.00    +0.001 A 
ATOM     19  C   UNL     1      -3.405  -3.510  24.903  0.00  0.00    +0.000 A 
ENDBRANCH  12  14
TORSDOF 1
ENDMDL
