MODEL 1
REMARK VINA RESULT:      -0.9      0.000      0.000
REMARK  Name = 75536060
REMARK  8 active torsions:
REMARK  status: ('A' for Active; 'I' for Inactive)
REMARK    1  A    between atoms: O_1  and  C_9
REMARK    2  A    between atoms: O_2  and  C_11
REMARK    3  A    between atoms: O_4  and  C_21
REMARK    4  A    between atoms: O_4  and  C_25
REMARK    5  A    between atoms: N_5  and  C_8
REMARK    6  A    between atoms: C_7  and  C_12
REMARK    7  A    between atoms: C_13  and  C_17
REMARK    8  A    between atoms: C_15  and  C_20
REMARK                            x       y       z     vdW  Elec       q    Type
REMARK                         _______ _______ _______ _____ _____    ______ ____
ROOT
ATOM      3  O   UNL     1       0.048  -0.652  21.799  0.00  0.00    -0.270 OA
ATOM      5  N   UNL     1      -0.328  -0.566  24.085  0.00  0.00    -0.305 N 
ATOM     15  C   UNL     1       0.454  -0.466  22.943  0.00  0.00    +0.250 C 
ATOM     31  H   UNL     1       0.060  -0.310  24.988  0.00  0.00    +0.149 HD
ENDROOT
BRANCH  15  20
ATOM      6  N   UNL     1       3.634   1.523  23.364  0.00  0.00    -0.220 NA
ATOM     20  C   UNL     1       1.885  -0.133  23.159  0.00  0.00    +0.098 A 
ATOM     21  C   UNL     1       2.342   1.175  23.172  0.00  0.00    +0.233 A 
ATOM     22  C   UNL     1       2.814  -1.149  23.356  0.00  0.00    +0.020 A 
ATOM     23  C   UNL     1       4.152  -0.831  23.557  0.00  0.00    +0.021 A 
ATOM     24  C   UNL     1       4.508   0.509  23.552  0.00  0.00    +0.114 A 
BRANCH  21   4
ATOM      4  O   UNL     1       1.460   2.207  22.983  0.00  0.00    -0.437 OA
BRANCH   4  25
ATOM     25  C   UNL     1       0.674   2.573  24.056  0.00  0.00    +0.130 A 
ATOM     26  C   UNL     1      -0.150   3.696  23.966  0.00  0.00    +0.046 A 
ATOM     27  C   UNL     1       0.704   1.823  25.231  0.00  0.00    +0.046 A 
ATOM     28  C   UNL     1      -0.944   4.066  25.050  0.00  0.00    +0.004 A 
ATOM     29  C   UNL     1      -0.090   2.194  26.316  0.00  0.00    +0.004 A 
ATOM     30  C   UNL     1      -0.915   3.316  26.225  0.00  0.00    +0.000 A 
ENDBRANCH   4  25
ENDBRANCH  21   4
ENDBRANCH  15  20
BRANCH   5   8
ATOM      7  C   UNL     1      -2.587   0.066  24.882  0.00  0.00    +0.045 C 
ATOM      8  C   UNL     1      -1.728  -0.906  24.041  0.00  0.00    +0.112 C 
ATOM      9  C   UNL     1      -2.005  -2.267  24.678  0.00  0.00    +0.164 C 
ATOM     10  C   UNL     1      -3.708  -0.799  25.513  0.00  0.00    +0.044 C 
ATOM     11  C   UNL     1      -3.499  -2.212  24.973  0.00  0.00    +0.145 C 
BRANCH   7  12
ATOM     12  C   UNL     1      -3.087   1.254  24.087  0.00  0.00    -0.039 A 
ATOM     13  C   UNL     1      -4.045   2.120  24.615  0.00  0.00    -0.047 A 
ATOM     14  C   UNL     1      -2.575   1.476  22.808  0.00  0.00    +0.004 A 
ATOM     16  C   UNL     1      -4.492   3.207  23.864  0.00  0.00    +0.003 A 
ATOM     17  C   UNL     1      -4.607   1.902  25.981  0.00  0.00    +0.044 C 
ATOM     18  C   UNL     1      -3.023   2.564  22.057  0.00  0.00    +0.000 A 
ATOM     19  C   UNL     1      -3.980   3.429  22.585  0.00  0.00    +0.000 A 
ENDBRANCH   7  12
BRANCH   9   1
ATOM      1  O   UNL     1      -1.694  -3.339  23.807  0.00  0.00    -0.387 OA
ATOM     32  H   UNL     1      -1.586  -4.136  24.354  0.00  0.00    +0.210 HD
ENDBRANCH   9   1
BRANCH  11   2
ATOM      2  O   UNL     1      -4.261  -2.363  23.779  0.00  0.00    -0.389 OA
ATOM     33  H   UNL     1      -3.815  -3.031  23.231  0.00  0.00    +0.210 HD
ENDBRANCH  11   2
ENDBRANCH   5   8
TORSDOF 7
ENDMDL
MODEL 2
REMARK VINA RESULT:      -0.6      2.467      5.308
REMARK  Name = 75536060
REMARK  8 active torsions:
REMARK  status: ('A' for Active; 'I' for Inactive)
REMARK    1  A    between atoms: O_1  and  C_9
REMARK    2  A    between atoms: O_2  and  C_11
REMARK    3  A    between atoms: O_4  and  C_21
REMARK    4  A    between atoms: O_4  and  C_25
REMARK    5  A    between atoms: N_5  and  C_8
REMARK    6  A    between atoms: C_7  and  C_12
REMARK    7  A    between atoms: C_13  and  C_17
REMARK    8  A    between atoms: C_15  and  C_20
REMARK                            x       y       z     vdW  Elec       q    Type
REMARK                         _______ _______ _______ _____ _____    ______ ____
ROOT
ATOM      3  O   UNL     1      -3.045   1.259  23.040  0.00  0.00    -0.270 OA
ATOM      5  N   UNL     1      -3.931   1.169  25.181  0.00  0.00    -0.305 N 
ATOM     15  C   UNL     1      -3.297   0.635  24.067  0.00  0.00    +0.250 C 
ATOM     31  H   UNL     1      -4.023   0.614  26.025  0.00  0.00    +0.149 HD
ENDROOT
BRANCH  15  20
ATOM      6  N   UNL     1      -1.273  -2.517  24.531  0.00  0.00    -0.220 NA
ATOM     20  C   UNL     1      -2.935  -0.803  24.151  0.00  0.00    +0.098 A 
ATOM     21  C   UNL     1      -1.647  -1.221  24.445  0.00  0.00    +0.233 A 
ATOM     22  C   UNL     1      -3.901  -1.778  23.929  0.00  0.00    +0.020 A 
ATOM     23  C   UNL     1      -3.555  -3.122  24.008  0.00  0.00    +0.021 A 
ATOM     24  C   UNL     1      -2.239  -3.436  24.309  0.00  0.00    +0.114 A 
BRANCH  21   4
ATOM      4  O   UNL     1      -0.664  -0.292  24.672  0.00  0.00    -0.437 OA
BRANCH   4  25
ATOM     25  C   UNL     1       0.325  -0.170  23.718  0.00  0.00    +0.130 A 
ATOM     26  C   UNL     1       1.447   0.619  23.974  0.00  0.00    +0.046 A 
ATOM     27  C   UNL     1       0.204  -0.834  22.498  0.00  0.00    +0.046 A 
ATOM     28  C   UNL     1       2.447   0.743  23.011  0.00  0.00    +0.004 A 
ATOM     29  C   UNL     1       1.204  -0.710  21.534  0.00  0.00    +0.004 A 
ATOM     30  C   UNL     1       2.326   0.078  21.791  0.00  0.00    +0.000 A 
ENDBRANCH   4  25
ENDBRANCH  21   4
ENDBRANCH  15  20
BRANCH   5   8
ATOM      7  C   UNL     1      -3.523   3.373  26.235  0.00  0.00    +0.045 C 
ATOM      8  C   UNL     1      -4.366   2.542  25.242  0.00  0.00    +0.112 C 
ATOM      9  C   UNL     1      -5.786   2.667  25.792  0.00  0.00    +0.164 C 
ATOM     10  C   UNL     1      -4.510   4.368  26.898  0.00  0.00    +0.044 C 
ATOM     11  C   UNL     1      -5.861   4.123  26.231  0.00  0.00    +0.145 C 
BRANCH   7  12
ATOM     12  C   UNL     1      -2.319   4.026  25.588  0.00  0.00    -0.039 A 
ATOM     13  C   UNL     1      -1.063   3.421  25.634  0.00  0.00    -0.047 A 
ATOM     14  C   UNL     1      -2.481   5.250  24.938  0.00  0.00    +0.004 A 
ATOM     16  C   UNL     1       0.032   4.040  25.032  0.00  0.00    +0.003 A 
ATOM     17  C   UNL     1      -0.866   2.111  26.323  0.00  0.00    +0.044 C 
ATOM     18  C   UNL     1      -1.385   5.870  24.336  0.00  0.00    +0.000 A 
ATOM     19  C   UNL     1      -0.129   5.264  24.382  0.00  0.00    +0.000 A 
ENDBRANCH   7  12
BRANCH   9   1
ATOM      1  O   UNL     1      -6.767   2.375  24.813  0.00  0.00    -0.387 OA
ATOM     32  H   UNL     1      -7.485   1.890  25.256  0.00  0.00    +0.210 HD
ENDBRANCH   9   1
BRANCH  11   2
ATOM      2  O   UNL     1      -5.979   4.990  25.106  0.00  0.00    -0.389 OA
ATOM     33  H   UNL     1      -6.344   5.833  25.424  0.00  0.00    +0.210 HD
ENDBRANCH  11   2
ENDBRANCH   5   8
TORSDOF 7
ENDMDL
MODEL 3
REMARK VINA RESULT:      -0.3      1.281      2.044
REMARK  Name = 75536060
REMARK  8 active torsions:
REMARK  status: ('A' for Active; 'I' for Inactive)
REMARK    1  A    between atoms: O_1  and  C_9
REMARK    2  A    between atoms: O_2  and  C_11
REMARK    3  A    between atoms: O_4  and  C_21
REMARK    4  A    between atoms: O_4  and  C_25
REMARK    5  A    between atoms: N_5  and  C_8
REMARK    6  A    between atoms: C_7  and  C_12
REMARK    7  A    between atoms: C_13  and  C_17
REMARK    8  A    between atoms: C_15  and  C_20
REMARK                            x       y       z     vdW  Elec       q    Type
REMARK                         _______ _______ _______ _____ _____    ______ ____
ROOT
ATOM      3  O   UNL     1       0.098  -1.434  25.016  0.00  0.00    -0.270 OA
ATOM      5  N   UNL     1      -1.297  -0.466  23.436  0.00  0.00    -0.305 N 
ATOM     15  C   UNL     1      -0.068  -0.720  24.031  0.00  0.00    +0.250 C 
ATOM     31  H   UNL     1      -1.341   0.063  22.571  0.00  0.00    +0.149 HD
ENDROOT
BRANCH  15  20
ATOM      6  N   UNL     1       2.770   1.707  23.482  0.00  0.00    -0.220 NA
ATOM     20  C   UNL     1       1.104  -0.043  23.419  0.00  0.00    +0.098 A 
ATOM     21  C   UNL     1       1.703   1.061  24.003  0.00  0.00    +0.233 A 
ATOM     22  C   UNL     1       1.632  -0.513  22.222  0.00  0.00    +0.020 A 
ATOM     23  C   UNL     1       2.729   0.125  21.654  0.00  0.00    +0.021 A 
ATOM     24  C   UNL     1       3.256   1.222  22.318  0.00  0.00    +0.114 A 
BRANCH  21   4
ATOM      4  O   UNL     1       1.215   1.556  25.185  0.00  0.00    -0.437 OA
BRANCH   4  25
ATOM     25  C   UNL     1       0.267   2.557  25.109  0.00  0.00    +0.130 A 
ATOM     26  C   UNL     1      -0.722   2.655  26.088  0.00  0.00    +0.046 A 
ATOM     27  C   UNL     1       0.299   3.469  24.055  0.00  0.00    +0.046 A 
ATOM     28  C   UNL     1      -1.679   3.666  26.012  0.00  0.00    +0.004 A 
ATOM     29  C   UNL     1      -0.658   4.480  23.980  0.00  0.00    +0.004 A 
ATOM     30  C   UNL     1      -1.648   4.579  24.958  0.00  0.00    +0.000 A 
ENDBRANCH   4  25
ENDBRANCH  21   4
ENDBRANCH  15  20
BRANCH   5   8
ATOM      7  C   UNL     1      -3.009  -0.330  25.221  0.00  0.00    +0.045 C 
ATOM      8  C   UNL     1      -2.529  -1.029  23.929  0.00  0.00    +0.112 C 
ATOM      9  C   UNL     1      -2.361  -2.487  24.356  0.00  0.00    +0.164 C 
ATOM     10  C   UNL     1      -3.642  -1.444  26.094  0.00  0.00    +0.044 C 
ATOM     11  C   UNL     1      -3.562  -2.722  25.263  0.00  0.00    +0.145 C 
BRANCH   7  12
ATOM     12  C   UNL     1      -3.923   0.848  24.953  0.00  0.00    -0.039 A 
ATOM     13  C   UNL     1      -3.665   1.733  23.907  0.00  0.00    -0.047 A 
ATOM     14  C   UNL     1      -5.038   1.038  25.769  0.00  0.00    +0.004 A 
ATOM     16  C   UNL     1      -4.519   2.811  23.678  0.00  0.00    +0.003 A 
ATOM     17  C   UNL     1      -2.478   1.549  23.020  0.00  0.00    +0.044 C 
ATOM     18  C   UNL     1      -5.893   2.117  25.541  0.00  0.00    +0.000 A 
ATOM     19  C   UNL     1      -5.634   3.003  24.495  0.00  0.00    +0.000 A 
ENDBRANCH   7  12
BRANCH   9   1
ATOM      1  O   UNL     1      -2.371  -3.373  23.252  0.00  0.00    -0.387 OA
ATOM     32  H   UNL     1      -2.158  -2.852  22.458  0.00  0.00    +0.210 HD
ENDBRANCH   9   1
BRANCH  11   2
ATOM      2  O   UNL     1      -4.759  -2.848  24.502  0.00  0.00    -0.389 OA
ATOM     33  H   UNL     1      -4.835  -2.054  23.944  0.00  0.00    +0.210 HD
ENDBRANCH  11   2
ENDBRANCH   5   8
TORSDOF 7
ENDMDL
MODEL 4
REMARK VINA RESULT:       0.9      2.135      5.016
REMARK  Name = 75536060
REMARK  8 active torsions:
REMARK  status: ('A' for Active; 'I' for Inactive)
REMARK    1  A    between atoms: O_1  and  C_9
REMARK    2  A    between atoms: O_2  and  C_11
REMARK    3  A    between atoms: O_4  and  C_21
REMARK    4  A    between atoms: O_4  and  C_25
REMARK    5  A    between atoms: N_5  and  C_8
REMARK    6  A    between atoms: C_7  and  C_12
REMARK    7  A    between atoms: C_13  and  C_17
REMARK    8  A    between atoms: C_15  and  C_20
REMARK                            x       y       z     vdW  Elec       q    Type
REMARK                         _______ _______ _______ _____ _____    ______ ____
ROOT
ATOM      3  O   UNL     1       0.422   2.323  25.913  0.00  0.00    -0.270 OA
ATOM      5  N   UNL     1      -1.073   2.496  24.150  0.00  0.00    -0.305 N 
ATOM     15  C   UNL     1       0.025   1.961  24.809  0.00  0.00    +0.250 C 
ATOM     31  H   UNL     1      -1.392   2.082  23.279  0.00  0.00    +0.149 HD
ENDROOT
BRANCH  15  20
ATOM      6  N   UNL     1       1.300  -1.448  23.807  0.00  0.00    -0.220 NA
ATOM     20  C   UNL     1       0.761   0.892  24.087  0.00  0.00    +0.098 A 
ATOM     21  C   UNL     1       0.649  -0.444  24.435  0.00  0.00    +0.233 A 
ATOM     22  C   UNL     1       1.597   1.219  23.025  0.00  0.00    +0.020 A 
ATOM     23  C   UNL     1       2.285   0.215  22.354  0.00  0.00    +0.021 A 
ATOM     24  C   UNL     1       2.104  -1.091  22.780  0.00  0.00    +0.114 A 
BRANCH  21   4
ATOM      4  O   UNL     1      -0.166  -0.810  25.475  0.00  0.00    -0.437 OA
BRANCH   4  25
ATOM     25  C   UNL     1      -1.348  -1.449  25.160  0.00  0.00    +0.130 A 
ATOM     26  C   UNL     1      -2.497  -1.200  25.912  0.00  0.00    +0.046 A 
ATOM     27  C   UNL     1      -1.395  -2.342  24.090  0.00  0.00    +0.046 A 
ATOM     28  C   UNL     1      -3.692  -1.844  25.593  0.00  0.00    +0.004 A 
ATOM     29  C   UNL     1      -2.590  -2.987  23.772  0.00  0.00    +0.004 A 
ATOM     30  C   UNL     1      -3.739  -2.738  24.523  0.00  0.00    +0.000 A 
ENDBRANCH   4  25
ENDBRANCH  21   4
ENDBRANCH  15  20
BRANCH   5   8
ATOM      7  C   UNL     1      -3.251   3.669  24.016  0.00  0.00    +0.045 C 
ATOM      8  C   UNL     1      -1.874   3.556  24.709  0.00  0.00    +0.112 C 
ATOM      9  C   UNL     1      -1.246   4.929  24.478  0.00  0.00    +0.164 C 
ATOM     10  C   UNL     1      -3.574   5.185  23.964  0.00  0.00    +0.044 C 
ATOM     11  C   UNL     1      -2.418   5.883  24.675  0.00  0.00    +0.145 C 
BRANCH   7  12
ATOM     12  C   UNL     1      -4.319   2.825  24.679  0.00  0.00    -0.039 A 
ATOM     13  C   UNL     1      -4.493   1.485  24.332  0.00  0.00    -0.047 A 
ATOM     14  C   UNL     1      -5.135   3.406  25.649  0.00  0.00    +0.004 A 
ATOM     16  C   UNL     1      -5.484   0.726  24.954  0.00  0.00    +0.003 A 
ATOM     17  C   UNL     1      -3.631   0.842  23.296  0.00  0.00    +0.044 C 
ATOM     18  C   UNL     1      -6.127   2.647  26.272  0.00  0.00    +0.000 A 
ATOM     19  C   UNL     1      -6.301   1.307  25.925  0.00  0.00    +0.000 A 
ENDBRANCH   7  12
BRANCH   9   1
ATOM      1  O   UNL     1      -0.203   5.203  25.396  0.00  0.00    -0.387 OA
ATOM     32  H   UNL     1       0.157   4.348  25.690  0.00  0.00    +0.210 HD
ENDBRANCH   9   1
BRANCH  11   2
ATOM      2  O   UNL     1      -2.742   6.014  26.056  0.00  0.00    -0.389 OA
ATOM     33  H   UNL     1      -2.575   6.938  26.309  0.00  0.00    +0.210 HD
ENDBRANCH  11   2
ENDBRANCH   5   8
TORSDOF 7
ENDMDL
MODEL 5
REMARK VINA RESULT:       2.3      2.477      5.960
REMARK  Name = 75536060
REMARK  8 active torsions:
REMARK  status: ('A' for Active; 'I' for Inactive)
REMARK    1  A    between atoms: O_1  and  C_9
REMARK    2  A    between atoms: O_2  and  C_11
REMARK    3  A    between atoms: O_4  and  C_21
REMARK    4  A    between atoms: O_4  and  C_25
REMARK    5  A    between atoms: N_5  and  C_8
REMARK    6  A    between atoms: C_7  and  C_12
REMARK    7  A    between atoms: C_13  and  C_17
REMARK    8  A    between atoms: C_15  and  C_20
REMARK                            x       y       z     vdW  Elec       q    Type
REMARK                         _______ _______ _______ _____ _____    ______ ____
ROOT
ATOM      3  O   UNL     1       0.568   2.623  26.374  0.00  0.00    -0.270 OA
ATOM      5  N   UNL     1      -0.844   1.608  24.841  0.00  0.00    -0.305 N 
ATOM     15  C   UNL     1      -0.372   2.680  25.586  0.00  0.00    +0.250 C 
ATOM     31  H   UNL     1      -1.569   1.756  24.145  0.00  0.00    +0.149 HD
ENDROOT
BRANCH  15  20
ATOM      6  N   UNL     1      -3.078   5.307  25.749  0.00  0.00    -0.220 NA
ATOM     20  C   UNL     1      -1.096   3.965  25.411  0.00  0.00    +0.098 A 
ATOM     21  C   UNL     1      -2.383   4.156  25.886  0.00  0.00    +0.233 A 
ATOM     22  C   UNL     1      -0.482   5.024  24.750  0.00  0.00    +0.020 A 
ATOM     23  C   UNL     1      -1.165   6.224  24.588  0.00  0.00    +0.021 A 
ATOM     24  C   UNL     1      -2.449   6.313  25.101  0.00  0.00    +0.114 A 
BRANCH  21   4
ATOM      4  O   UNL     1      -3.023   3.138  26.545  0.00  0.00    -0.437 OA
BRANCH   4  25
ATOM     25  C   UNL     1      -4.070   2.520  25.891  0.00  0.00    +0.130 A 
ATOM     26  C   UNL     1      -3.830   1.405  25.088  0.00  0.00    +0.046 A 
ATOM     27  C   UNL     1      -5.368   3.010  26.033  0.00  0.00    +0.046 A 
ATOM     28  C   UNL     1      -4.887   0.780  24.428  0.00  0.00    +0.004 A 
ATOM     29  C   UNL     1      -6.425   2.386  25.373  0.00  0.00    +0.004 A 
ATOM     30  C   UNL     1      -6.185   1.270  24.570  0.00  0.00    +0.000 A 
ENDBRANCH   4  25
ENDBRANCH  21   4
ENDBRANCH  15  20
BRANCH   5   8
ATOM      7  C   UNL     1       0.014  -0.305  23.522  0.00  0.00    +0.045 C 
ATOM      8  C   UNL     1      -0.264   0.291  24.920  0.00  0.00    +0.112 C 
ATOM      9  C   UNL     1      -1.222  -0.718  25.552  0.00  0.00    +0.164 C 
ATOM     10  C   UNL     1      -0.281  -1.822  23.642  0.00  0.00    +0.044 C 
ATOM     11  C   UNL     1      -0.657  -2.059  25.103  0.00  0.00    +0.145 C 
BRANCH   7  12
ATOM     12  C   UNL     1       1.399   0.022  23.003  0.00  0.00    -0.039 A 
ATOM     13  C   UNL     1       1.779  -0.319  21.706  0.00  0.00    -0.047 A 
ATOM     14  C   UNL     1       2.299   0.676  23.845  0.00  0.00    +0.004 A 
ATOM     16  C   UNL     1       3.060  -0.008  21.250  0.00  0.00    +0.003 A 
ATOM     17  C   UNL     1       0.832  -1.018  20.787  0.00  0.00    +0.044 C 
ATOM     18  C   UNL     1       3.581   0.986  23.389  0.00  0.00    +0.000 A 
ATOM     19  C   UNL     1       3.961   0.644  22.092  0.00  0.00    +0.000 A 
ENDBRANCH   7  12
BRANCH   9   1
ATOM      1  O   UNL     1      -1.249  -0.620  26.964  0.00  0.00    -0.387 OA
ATOM     32  H   UNL     1      -1.926  -1.240  27.286  0.00  0.00    +0.210 HD
ENDBRANCH   9   1
BRANCH  11   2
ATOM      2  O   UNL     1       0.524  -2.384  25.831  0.00  0.00    -0.389 OA
ATOM     33  H   UNL     1       0.592  -1.757  26.571  0.00  0.00    +0.210 HD
ENDBRANCH  11   2
ENDBRANCH   5   8
TORSDOF 7
ENDMDL
MODEL 6
REMARK VINA RESULT:       3.0      2.797      5.346
REMARK  Name = 75536060
REMARK  8 active torsions:
REMARK  status: ('A' for Active; 'I' for Inactive)
REMARK    1  A    between atoms: O_1  and  C_9
REMARK    2  A    between atoms: O_2  and  C_11
REMARK    3  A    between atoms: O_4  and  C_21
REMARK    4  A    between atoms: O_4  and  C_25
REMARK    5  A    between atoms: N_5  and  C_8
REMARK    6  A    between atoms: C_7  and  C_12
REMARK    7  A    between atoms: C_13  and  C_17
REMARK    8  A    between atoms: C_15  and  C_20
REMARK                            x       y       z     vdW  Elec       q    Type
REMARK                         _______ _______ _______ _____ _____    ______ ____
ROOT
ATOM      3  O   UNL     1      -3.333   4.021  26.923  0.00  0.00    -0.270 OA
ATOM      5  N   UNL     1      -3.395   2.618  25.078  0.00  0.00    -0.305 N 
ATOM     15  C   UNL     1      -2.864   3.639  25.854  0.00  0.00    +0.250 C 
ATOM     31  H   UNL     1      -2.899   2.301  24.251  0.00  0.00    +0.149 HD
ENDROOT
BRANCH  15  20
ATOM      6  N   UNL     1       0.717   4.282  24.849  0.00  0.00    -0.220 NA
ATOM     20  C   UNL     1      -1.655   4.310  25.310  0.00  0.00    +0.098 A 
ATOM     21  C   UNL     1      -0.408   3.709  25.332  0.00  0.00    +0.233 A 
ATOM     22  C   UNL     1      -1.755   5.583  24.760  0.00  0.00    +0.020 A 
ATOM     23  C   UNL     1      -0.620   6.206  24.253  0.00  0.00    +0.021 A 
ATOM     24  C   UNL     1       0.581   5.519  24.322  0.00  0.00    +0.114 A 
BRANCH  21   4
ATOM      4  O   UNL     1      -0.265   2.453  25.865  0.00  0.00    -0.437 OA
BRANCH   4  25
ATOM     25  C   UNL     1      -0.034   1.414  24.986  0.00  0.00    +0.130 A 
ATOM     26  C   UNL     1       0.863   1.581  23.930  0.00  0.00    +0.046 A 
ATOM     27  C   UNL     1      -0.695   0.198  25.154  0.00  0.00    +0.046 A 
ATOM     28  C   UNL     1       1.097   0.532  23.043  0.00  0.00    +0.004 A 
ATOM     29  C   UNL     1      -0.460  -0.852  24.267  0.00  0.00    +0.004 A 
ATOM     30  C   UNL     1       0.436  -0.685  23.211  0.00  0.00    +0.000 A 
ENDBRANCH   4  25
ENDBRANCH  21   4
ENDBRANCH  15  20
BRANCH   5   8
ATOM      7  C   UNL     1      -4.818   0.660  24.551  0.00  0.00    +0.045 C 
ATOM      8  C   UNL     1      -4.579   1.889  25.458  0.00  0.00    +0.112 C 
ATOM      9  C   UNL     1      -5.847   2.721  25.270  0.00  0.00    +0.164 C 
ATOM     10  C   UNL     1      -6.355   0.551  24.385  0.00  0.00    +0.044 C 
ATOM     11  C   UNL     1      -6.949   1.669  25.239  0.00  0.00    +0.145 C 
BRANCH   7  12
ATOM     12  C   UNL     1      -4.155  -0.598  25.073  0.00  0.00    -0.039 A 
ATOM     13  C   UNL     1      -3.985  -1.713  24.252  0.00  0.00    -0.047 A 
ATOM     14  C   UNL     1      -3.713  -0.631  26.396  0.00  0.00    +0.004 A 
ATOM     16  C   UNL     1      -3.373  -2.861  24.754  0.00  0.00    +0.003 A 
ATOM     17  C   UNL     1      -4.450  -1.701  22.834  0.00  0.00    +0.044 C 
ATOM     18  C   UNL     1      -3.101  -1.780  26.898  0.00  0.00    +0.000 A 
ATOM     19  C   UNL     1      -2.930  -2.894  26.077  0.00  0.00    +0.000 A 
ENDBRANCH   7  12
BRANCH   9   1
ATOM      1  O   UNL     1      -6.046   3.640  26.328  0.00  0.00    -0.387 OA
ATOM     32  H   UNL     1      -6.972   3.558  26.615  0.00  0.00    +0.210 HD
ENDBRANCH   9   1
BRANCH  11   2
ATOM      2  O   UNL     1      -7.205   1.160  26.544  0.00  0.00    -0.389 OA
ATOM     33  H   UNL     1      -8.092   1.462  26.806  0.00  0.00    +0.210 HD
ENDBRANCH  11   2
ENDBRANCH   5   8
TORSDOF 7
ENDMDL
