MODEL 1
REMARK VINA RESULT:      -5.2      0.000      0.000
REMARK  Name = 11865672
REMARK  8 active torsions:
REMARK  status: ('A' for Active; 'I' for Inactive)
REMARK    1  A    between atoms: O_3  and  C_12
REMARK    2  A    between atoms: O_4  and  C_14
REMARK    3  A    between atoms: N_8  and  C_13
REMARK    4  A    between atoms: N_9  and  C_20
REMARK    5  A    between atoms: N_10  and  C_22
REMARK    6  A    between atoms: C_16  and  C_18
REMARK    7  A    between atoms: C_20  and  C_21
REMARK    8  A    between atoms: C_21  and  C_23
REMARK                            x       y       z     vdW  Elec       q    Type
REMARK                         _______ _______ _______ _____ _____    ______ ____
ROOT
ATOM     12  C   UNL     1      -5.824  -8.913  10.017  0.00  0.00    +0.167 C 
ATOM     13  C   UNL     1      -6.153  -9.868  11.181  0.00  0.00    +0.129 C 
ATOM     14  C   UNL     1      -4.539  -9.333   9.292  0.00  0.00    +0.149 C 
ATOM     15  C   UNL     1      -3.341  -9.439  10.251  0.00  0.00    +0.074 C 
ATOM     16  C   UNL     1      -3.698 -10.019  11.590  0.00  0.00    +0.015 C 
ATOM     17  C   UNL     1      -4.954 -10.225  12.016  0.00  0.00    +0.006 C 
ENDROOT
BRANCH  13   8
ATOM      6  O   UNL     1      -6.840 -10.776  13.810  0.00  0.00    -0.252 OA
ATOM      8  N   UNL     1      -7.176  -9.325  12.042  0.00  0.00    -0.290 N 
ATOM     10  N   UNL     1      -8.486  -9.106  13.915  0.00  0.00    -0.267 N 
ATOM     19  C   UNL     1      -7.449  -9.828  13.319  0.00  0.00    +0.304 C 
ATOM     29  H   UNL     1      -7.762  -8.576  11.686  0.00  0.00    +0.151 HD
ATOM     33  H   UNL     1      -8.887  -8.346  13.371  0.00  0.00    +0.156 HD
BRANCH  10  22
ATOM      1  F   UNL     1     -10.100  -7.169  15.102  0.00  0.00    -0.203 F 
ATOM      2  F   UNL     1     -10.716  -9.878  18.931  0.00  0.00    -0.205 F 
ATOM     22  C   UNL     1      -9.055  -9.299  15.195  0.00  0.00    +0.070 A 
ATOM     24  C   UNL     1      -9.860  -8.311  15.761  0.00  0.00    +0.147 A 
ATOM     25  C   UNL     1      -8.812 -10.484  15.891  0.00  0.00    +0.029 A 
ATOM     26  C   UNL     1     -10.421  -8.506  17.024  0.00  0.00    +0.078 A 
ATOM     27  C   UNL     1      -9.373 -10.679  17.153  0.00  0.00    +0.040 A 
ATOM     28  C   UNL     1     -10.177  -9.690  17.720  0.00  0.00    +0.126 A 
ENDBRANCH  10  22
ENDBRANCH  13   8
BRANCH  16  18
ATOM      5  O   UNL     1      -1.491 -10.682  12.046  0.00  0.00    -0.271 OA
ATOM      9  N   UNL     1      -2.983 -10.426  13.819  0.00  0.00    -0.311 N 
ATOM     18  C   UNL     1      -2.607 -10.408  12.488  0.00  0.00    +0.240 C 
ATOM     32  H   UNL     1      -3.932 -10.171  14.077  0.00  0.00    +0.149 HD
BRANCH   9  20
ATOM     20  C   UNL     1      -2.080 -10.781  14.890  0.00  0.00    +0.113 C 
BRANCH  20  21
ATOM     21  C   UNL     1      -2.587 -10.318  16.249  0.00  0.00    +0.114 C 
BRANCH  21  23
ATOM      7  O   UNL     1      -4.849  -9.930  15.454  0.00  0.00    -0.276 OA
ATOM     11  N   UNL     1      -4.546 -10.750  17.579  0.00  0.00    -0.329 N 
ATOM     23  C   UNL     1      -4.102 -10.304  16.352  0.00  0.00    +0.212 C 
ATOM     34  H   UNL     1      -3.908 -11.051  18.310  0.00  0.00    +0.145 HD
ATOM     35  H   UNL     1      -5.536 -10.793  17.792  0.00  0.00    +0.145 HD
ENDBRANCH  21  23
ENDBRANCH  20  21
ENDBRANCH   9  20
ENDBRANCH  16  18
BRANCH  12   3
ATOM      3  O   UNL     1      -5.655  -7.586  10.521  0.00  0.00    -0.387 OA
ATOM     30  H   UNL     1      -4.867  -7.209  10.093  0.00  0.00    +0.210 HD
ENDBRANCH  12   3
BRANCH  14   4
ATOM      4  O   UNL     1      -4.739 -10.574   8.620  0.00  0.00    -0.389 OA
ATOM     31  H   UNL     1      -5.536 -10.987   8.996  0.00  0.00    +0.210 HD
ENDBRANCH  14   4
TORSDOF 8
ENDMDL
MODEL 2
REMARK VINA RESULT:      -3.3      3.071      4.100
REMARK  Name = 11865672
REMARK  8 active torsions:
REMARK  status: ('A' for Active; 'I' for Inactive)
REMARK    1  A    between atoms: O_3  and  C_12
REMARK    2  A    between atoms: O_4  and  C_14
REMARK    3  A    between atoms: N_8  and  C_13
REMARK    4  A    between atoms: N_9  and  C_20
REMARK    5  A    between atoms: N_10  and  C_22
REMARK    6  A    between atoms: C_16  and  C_18
REMARK    7  A    between atoms: C_20  and  C_21
REMARK    8  A    between atoms: C_21  and  C_23
REMARK                            x       y       z     vdW  Elec       q    Type
REMARK                         _______ _______ _______ _____ _____    ______ ____
ROOT
ATOM     12  C   UNL     1      -5.563  -9.698  10.412  0.00  0.00    +0.167 C 
ATOM     13  C   UNL     1      -5.154 -10.719  11.491  0.00  0.00    +0.129 C 
ATOM     14  C   UNL     1      -4.467  -9.531   9.352  0.00  0.00    +0.149 C 
ATOM     15  C   UNL     1      -3.116  -9.137   9.974  0.00  0.00    +0.074 C 
ATOM     16  C   UNL     1      -2.833  -9.832  11.276  0.00  0.00    +0.015 C 
ATOM     17  C   UNL     1      -3.735 -10.551  11.961  0.00  0.00    +0.006 C 
ENDROOT
BRANCH  13   8
ATOM      6  O   UNL     1      -4.380 -10.644  14.248  0.00  0.00    -0.252 OA
ATOM      8  N   UNL     1      -6.034 -10.667  12.633  0.00  0.00    -0.290 N 
ATOM     10  N   UNL     1      -6.649 -10.584  14.845  0.00  0.00    -0.267 N 
ATOM     19  C   UNL     1      -5.573 -10.632  13.954  0.00  0.00    +0.304 C 
ATOM     29  H   UNL     1      -7.037 -10.710  12.476  0.00  0.00    +0.151 HD
ATOM     33  H   UNL     1      -7.581 -10.580  14.437  0.00  0.00    +0.156 HD
BRANCH  10  22
ATOM      1  F   UNL     1      -8.949 -10.162  16.361  0.00  0.00    -0.203 F 
ATOM      2  F   UNL     1      -6.470 -10.413  20.382  0.00  0.00    -0.205 F 
ATOM     22  C   UNL     1      -6.606 -10.538  16.257  0.00  0.00    +0.070 A 
ATOM     24  C   UNL     1      -7.776 -10.326  16.987  0.00  0.00    +0.147 A 
ATOM     25  C   UNL     1      -5.391 -10.708  16.920  0.00  0.00    +0.029 A 
ATOM     26  C   UNL     1      -7.730 -10.283  18.381  0.00  0.00    +0.078 A 
ATOM     27  C   UNL     1      -5.345 -10.665  18.314  0.00  0.00    +0.040 A 
ATOM     28  C   UNL     1      -6.515 -10.453  19.044  0.00  0.00    +0.126 A 
ENDBRANCH  10  22
ENDBRANCH  13   8
BRANCH  16  18
ATOM      5  O   UNL     1      -0.816 -10.753  12.050  0.00  0.00    -0.271 OA
ATOM      9  N   UNL     1      -1.076  -8.436  12.054  0.00  0.00    -0.311 N 
ATOM     18  C   UNL     1      -1.479  -9.740  11.829  0.00  0.00    +0.240 C 
ATOM     32  H   UNL     1      -1.701  -7.669  11.825  0.00  0.00    +0.149 HD
BRANCH   9  20
ATOM     20  C   UNL     1       0.220  -8.093  12.596  0.00  0.00    +0.113 C 
BRANCH  20  21
ATOM     21  C   UNL     1       1.232  -7.767  11.508  0.00  0.00    +0.114 C 
BRANCH  21  23
ATOM      7  O   UNL     1       1.891  -5.571  12.311  0.00  0.00    -0.276 OA
ATOM     11  N   UNL     1       3.527  -7.088  11.757  0.00  0.00    -0.329 N 
ATOM     23  C   UNL     1       2.218  -6.684  11.908  0.00  0.00    +0.212 C 
ATOM     34  H   UNL     1       3.774  -8.012  11.418  0.00  0.00    +0.145 HD
ATOM     35  H   UNL     1       4.295  -6.465  11.984  0.00  0.00    +0.145 HD
ENDBRANCH  21  23
ENDBRANCH  20  21
ENDBRANCH   9  20
ENDBRANCH  16  18
BRANCH  12   3
ATOM      3  O   UNL     1      -5.810  -8.429  11.022  0.00  0.00    -0.387 OA
ATOM     30  H   UNL     1      -5.920  -8.581  11.977  0.00  0.00    +0.210 HD
ENDBRANCH  12   3
BRANCH  14   4
ATOM      4  O   UNL     1      -4.327 -10.732   8.597  0.00  0.00    -0.389 OA
ATOM     31  H   UNL     1      -4.627 -11.469   9.159  0.00  0.00    +0.210 HD
ENDBRANCH  14   4
TORSDOF 8
ENDMDL
MODEL 3
REMARK VINA RESULT:      -2.3     14.750     17.544
REMARK  Name = 11865672
REMARK  8 active torsions:
REMARK  status: ('A' for Active; 'I' for Inactive)
REMARK    1  A    between atoms: O_3  and  C_12
REMARK    2  A    between atoms: O_4  and  C_14
REMARK    3  A    between atoms: N_8  and  C_13
REMARK    4  A    between atoms: N_9  and  C_20
REMARK    5  A    between atoms: N_10  and  C_22
REMARK    6  A    between atoms: C_16  and  C_18
REMARK    7  A    between atoms: C_20  and  C_21
REMARK    8  A    between atoms: C_21  and  C_23
REMARK                            x       y       z     vdW  Elec       q    Type
REMARK                         _______ _______ _______ _____ _____    ______ ____
ROOT
ATOM     12  C   UNL     1      -1.789  -1.742  24.724  0.00  0.00    +0.167 C 
ATOM     13  C   UNL     1      -1.968  -0.743  23.564  0.00  0.00    +0.129 C 
ATOM     14  C   UNL     1      -3.138  -2.143  25.333  0.00  0.00    +0.149 C 
ATOM     15  C   UNL     1      -3.948  -0.921  25.801  0.00  0.00    +0.074 C 
ATOM     16  C   UNL     1      -3.836   0.259  24.878  0.00  0.00    +0.015 C 
ATOM     17  C   UNL     1      -2.960   0.347  23.866  0.00  0.00    +0.006 C 
ENDROOT
BRANCH  13   8
ATOM      6  O   UNL     1       0.653  -1.635  24.296  0.00  0.00    -0.252 OA
ATOM      8  N   UNL     1      -0.714  -0.140  23.183  0.00  0.00    -0.290 N 
ATOM     10  N   UNL     1       1.562   0.144  23.064  0.00  0.00    -0.267 N 
ATOM     19  C   UNL     1       0.530  -0.642  23.584  0.00  0.00    +0.304 C 
ATOM     29  H   UNL     1      -0.732   0.718  22.640  0.00  0.00    +0.151 HD
ATOM     33  H   UNL     1       1.290   0.937  22.490  0.00  0.00    +0.156 HD
BRANCH  10  22
ATOM      1  F   UNL     1       3.354   2.234  22.632  0.00  0.00    -0.203 F 
ATOM      2  F   UNL     1       7.020  -0.538  23.751  0.00  0.00    -0.205 F 
ATOM     22  C   UNL     1       2.955  -0.027  23.237  0.00  0.00    +0.070 A 
ATOM     24  C   UNL     1       3.825   1.039  23.014  0.00  0.00    +0.147 A 
ATOM     25  C   UNL     1       3.458  -1.266  23.634  0.00  0.00    +0.029 A 
ATOM     26  C   UNL     1       5.199   0.867  23.187  0.00  0.00    +0.078 A 
ATOM     27  C   UNL     1       4.831  -1.439  23.808  0.00  0.00    +0.040 A 
ATOM     28  C   UNL     1       5.702  -0.372  23.583  0.00  0.00    +0.126 A 
ENDBRANCH  10  22
ENDBRANCH  13   8
BRANCH  16  18
ATOM      5  O   UNL     1      -5.976   1.205  25.087  0.00  0.00    -0.271 OA
ATOM      9  N   UNL     1      -4.107   2.591  25.238  0.00  0.00    -0.311 N 
ATOM     18  C   UNL     1      -4.758   1.381  25.076  0.00  0.00    +0.240 C 
ATOM     32  H   UNL     1      -3.092   2.623  25.222  0.00  0.00    +0.149 HD
BRANCH   9  20
ATOM     20  C   UNL     1      -4.804   3.840  25.446  0.00  0.00    +0.113 C 
BRANCH  20  21
ATOM     21  C   UNL     1      -3.856   4.975  25.806  0.00  0.00    +0.114 C 
BRANCH  21  23
ATOM      7  O   UNL     1      -1.967   3.618  26.504  0.00  0.00    -0.276 OA
ATOM     11  N   UNL     1      -1.606   5.351  25.039  0.00  0.00    -0.329 N 
ATOM     23  C   UNL     1      -2.397   4.554  25.838  0.00  0.00    +0.212 C 
ATOM     34  H   UNL     1      -1.985   6.124  24.499  0.00  0.00    +0.145 HD
ATOM     35  H   UNL     1      -0.608   5.189  24.964  0.00  0.00    +0.145 HD
ENDBRANCH  21  23
ENDBRANCH  20  21
ENDBRANCH   9  20
ENDBRANCH  16  18
BRANCH  12   3
ATOM      3  O   UNL     1      -0.981  -1.152  25.744  0.00  0.00    -0.387 OA
ATOM     30  H   UNL     1      -1.179  -1.613  26.577  0.00  0.00    +0.210 HD
ENDBRANCH  12   3
BRANCH  14   4
ATOM      4  O   UNL     1      -3.896  -2.900  24.392  0.00  0.00    -0.389 OA
ATOM     31  H   UNL     1      -4.302  -3.644  24.872  0.00  0.00    +0.210 HD
ENDBRANCH  14   4
TORSDOF 8
ENDMDL
MODEL 4
REMARK VINA RESULT:      -2.2      3.293      4.282
REMARK  Name = 11865672
REMARK  8 active torsions:
REMARK  status: ('A' for Active; 'I' for Inactive)
REMARK    1  A    between atoms: O_3  and  C_12
REMARK    2  A    between atoms: O_4  and  C_14
REMARK    3  A    between atoms: N_8  and  C_13
REMARK    4  A    between atoms: N_9  and  C_20
REMARK    5  A    between atoms: N_10  and  C_22
REMARK    6  A    between atoms: C_16  and  C_18
REMARK    7  A    between atoms: C_20  and  C_21
REMARK    8  A    between atoms: C_21  and  C_23
REMARK                            x       y       z     vdW  Elec       q    Type
REMARK                         _______ _______ _______ _____ _____    ______ ____
ROOT
ATOM     12  C   UNL     1      -4.879  -9.619  11.321  0.00  0.00    +0.167 C 
ATOM     13  C   UNL     1      -4.012 -10.413  12.319  0.00  0.00    +0.129 C 
ATOM     14  C   UNL     1      -4.194  -9.499   9.954  0.00  0.00    +0.149 C 
ATOM     15  C   UNL     1      -2.794  -8.872  10.061  0.00  0.00    +0.074 C 
ATOM     16  C   UNL     1      -2.028  -9.324  11.272  0.00  0.00    +0.015 C 
ATOM     17  C   UNL     1      -2.560 -10.023  12.286  0.00  0.00    +0.006 C 
ENDROOT
BRANCH  13   8
ATOM      6  O   UNL     1      -6.710 -10.781  13.208  0.00  0.00    -0.252 OA
ATOM      8  N   UNL     1      -4.501 -10.281  13.670  0.00  0.00    -0.290 N 
ATOM     10  N   UNL     1      -6.017 -10.284  15.395  0.00  0.00    -0.267 N 
ATOM     19  C   UNL     1      -5.840 -10.479  14.022  0.00  0.00    +0.304 C 
ATOM     29  H   UNL     1      -3.854  -9.979  14.393  0.00  0.00    +0.151 HD
ATOM     33  H   UNL     1      -5.190 -10.036  15.933  0.00  0.00    +0.156 HD
BRANCH  10  22
ATOM      1  F   UNL     1      -6.003 -10.298  18.182  0.00  0.00    -0.203 F 
ATOM      2  F   UNL     1     -10.716 -10.692  18.307  0.00  0.00    -0.205 F 
ATOM     22  C   UNL     1      -7.214 -10.389  16.141  0.00  0.00    +0.070 A 
ATOM     24  C   UNL     1      -7.173 -10.392  17.535  0.00  0.00    +0.147 A 
ATOM     25  C   UNL     1      -8.437 -10.489  15.478  0.00  0.00    +0.029 A 
ATOM     26  C   UNL     1      -8.356 -10.495  18.267  0.00  0.00    +0.078 A 
ATOM     27  C   UNL     1      -9.620 -10.591  16.210  0.00  0.00    +0.040 A 
ATOM     28  C   UNL     1      -9.580 -10.595  17.605  0.00  0.00    +0.126 A 
ENDBRANCH  10  22
ENDBRANCH  13   8
BRANCH  16  18
ATOM      5  O   UNL     1       0.191  -9.439  10.509  0.00  0.00    -0.271 OA
ATOM      9  N   UNL     1      -0.284  -8.194  12.422  0.00  0.00    -0.311 N 
ATOM     18  C   UNL     1      -0.600  -9.004  11.346  0.00  0.00    +0.240 C 
ATOM     32  H   UNL     1      -1.019  -7.881  13.050  0.00  0.00    +0.149 HD
BRANCH   9  20
ATOM     20  C   UNL     1       1.061  -7.746  12.705  0.00  0.00    +0.113 C 
BRANCH  20  21
ATOM     21  C   UNL     1       1.307  -6.322  12.227  0.00  0.00    +0.114 C 
BRANCH  21  23
ATOM      7  O   UNL     1       3.206  -4.839  12.525  0.00  0.00    -0.276 OA
ATOM     11  N   UNL     1       3.575  -6.973  11.757  0.00  0.00    -0.329 N 
ATOM     23  C   UNL     1       2.776  -5.941  12.200  0.00  0.00    +0.212 C 
ATOM     34  H   UNL     1       3.197  -7.876  11.489  0.00  0.00    +0.145 HD
ATOM     35  H   UNL     1       4.581  -6.860  11.683  0.00  0.00    +0.145 HD
ENDBRANCH  21  23
ENDBRANCH  20  21
ENDBRANCH   9  20
ENDBRANCH  16  18
BRANCH  12   3
ATOM      3  O   UNL     1      -5.116  -8.306  11.833  0.00  0.00    -0.387 OA
ATOM     30  H   UNL     1      -4.307  -8.020  12.291  0.00  0.00    +0.210 HD
ENDBRANCH  12   3
BRANCH  14   4
ATOM      4  O   UNL     1      -4.111 -10.780   9.333  0.00  0.00    -0.389 OA
ATOM     31  H   UNL     1      -4.357 -10.670   8.398  0.00  0.00    +0.210 HD
ENDBRANCH  14   4
TORSDOF 8
ENDMDL
MODEL 5
REMARK VINA RESULT:      -1.6     14.777     17.488
REMARK  Name = 11865672
REMARK  8 active torsions:
REMARK  status: ('A' for Active; 'I' for Inactive)
REMARK    1  A    between atoms: O_3  and  C_12
REMARK    2  A    between atoms: O_4  and  C_14
REMARK    3  A    between atoms: N_8  and  C_13
REMARK    4  A    between atoms: N_9  and  C_20
REMARK    5  A    between atoms: N_10  and  C_22
REMARK    6  A    between atoms: C_16  and  C_18
REMARK    7  A    between atoms: C_20  and  C_21
REMARK    8  A    between atoms: C_21  and  C_23
REMARK                            x       y       z     vdW  Elec       q    Type
REMARK                         _______ _______ _______ _____ _____    ______ ____
ROOT
ATOM     12  C   UNL     1      -2.363   4.384  24.925  0.00  0.00    +0.167 C 
ATOM     13  C   UNL     1      -1.702   3.010  25.154  0.00  0.00    +0.129 C 
ATOM     14  C   UNL     1      -3.742   4.462  25.592  0.00  0.00    +0.149 C 
ATOM     15  C   UNL     1      -4.677   3.335  25.121  0.00  0.00    +0.074 C 
ATOM     16  C   UNL     1      -3.980   2.017  24.941  0.00  0.00    +0.015 C 
ATOM     17  C   UNL     1      -2.648   1.856  24.962  0.00  0.00    +0.006 C 
ENDROOT
BRANCH  13   8
ATOM      6  O   UNL     1       0.346   1.029  25.445  0.00  0.00    -0.252 OA
ATOM      8  N   UNL     1      -0.556   2.822  24.298  0.00  0.00    -0.290 N 
ATOM     10  N   UNL     1       1.392   1.883  23.525  0.00  0.00    -0.267 N 
ATOM     19  C   UNL     1       0.402   1.825  24.510  0.00  0.00    +0.304 C 
ATOM     29  H   UNL     1      -0.408   3.475  23.535  0.00  0.00    +0.151 HD
ATOM     33  H   UNL     1       1.292   2.606  22.818  0.00  0.00    +0.156 HD
BRANCH  10  22
ATOM      1  F   UNL     1       1.166  -0.891  23.378  0.00  0.00    -0.203 F 
ATOM      2  F   UNL     1       5.856  -1.357  22.975  0.00  0.00    -0.205 F 
ATOM     22  C   UNL     1       2.529   1.054  23.386  0.00  0.00    +0.070 A 
ATOM     24  C   UNL     1       2.382  -0.331  23.314  0.00  0.00    +0.147 A 
ATOM     25  C   UNL     1       3.800   1.625  23.319  0.00  0.00    +0.029 A 
ATOM     26  C   UNL     1       3.506  -1.146  23.176  0.00  0.00    +0.078 A 
ATOM     27  C   UNL     1       4.924   0.811  23.180  0.00  0.00    +0.040 A 
ATOM     28  C   UNL     1       4.777  -0.575  23.109  0.00  0.00    +0.126 A 
ENDBRANCH  10  22
ENDBRANCH  13   8
BRANCH  16  18
ATOM      5  O   UNL     1      -5.995   0.815  25.058  0.00  0.00    -0.271 OA
ATOM      9  N   UNL     1      -4.098  -0.240  24.209  0.00  0.00    -0.311 N 
ATOM     18  C   UNL     1      -4.804   0.820  24.750  0.00  0.00    +0.240 C 
ATOM     32  H   UNL     1      -3.115  -0.126  23.981  0.00  0.00    +0.149 HD
BRANCH   9  20
ATOM     20  C   UNL     1      -4.695  -1.527  23.932  0.00  0.00    +0.113 C 
BRANCH  20  21
ATOM     21  C   UNL     1      -3.766  -2.680  24.285  0.00  0.00    +0.114 C 
BRANCH  21  23
ATOM      7  O   UNL     1      -2.363  -1.561  25.920  0.00  0.00    -0.276 OA
ATOM     11  N   UNL     1      -1.363  -2.649  24.160  0.00  0.00    -0.329 N 
ATOM     23  C   UNL     1      -2.451  -2.230  24.895  0.00  0.00    +0.212 C 
ATOM     34  H   UNL     1      -1.461  -3.199  23.312  0.00  0.00    +0.145 HD
ATOM     35  H   UNL     1      -0.419  -2.417  24.448  0.00  0.00    +0.145 HD
ENDBRANCH  21  23
ENDBRANCH  20  21
ENDBRANCH   9  20
ENDBRANCH  16  18
BRANCH  12   3
ATOM      3  O   UNL     1      -2.517   4.613  23.522  0.00  0.00    -0.387 OA
ATOM     30  H   UNL     1      -2.755   3.764  23.112  0.00  0.00    +0.210 HD
ENDBRANCH  12   3
BRANCH  14   4
ATOM      4  O   UNL     1      -3.604   4.423  27.010  0.00  0.00    -0.389 OA
ATOM     31  H   UNL     1      -3.810   5.312  27.350  0.00  0.00    +0.210 HD
ENDBRANCH  14   4
TORSDOF 8
ENDMDL
