MODEL 1
REMARK VINA RESULT:      12.2      0.000      0.000
REMARK  Name = 7113955
REMARK  8 active torsions:
REMARK  status: ('A' for Active; 'I' for Inactive)
REMARK    1  A    between atoms: S_1  and  N_11
REMARK    2  A    between atoms: S_1  and  C_25
REMARK    3  A    between atoms: O_6  and  C_35
REMARK    4  A    between atoms: O_6  and  C_38
REMARK    5  A    between atoms: N_10  and  C_24
REMARK    6  A    between atoms: N_11  and  C_22
REMARK    7  A    between atoms: C_32  and  C_36
REMARK    8  A    between atoms: C_36  and  C_37
REMARK                            x       y       z     vdW  Elec       q    Type
REMARK                         _______ _______ _______ _____ _____    ______ ____
ROOT
ATOM      2  O   UNL     1      -1.470   2.416  26.348  0.00  0.00    -0.266 OA
ATOM      3  O   UNL     1       0.256  -2.354  26.016  0.00  0.00    -0.252 OA
ATOM      8  N   UNL     1      -1.625  -2.262  24.676  0.00  0.00    -0.284 N 
ATOM      9  N   UNL     1      -2.394   0.777  24.953  0.00  0.00    -0.310 N 
ATOM     10  N   UNL     1       0.525  -2.057  23.731  0.00  0.00    -0.269 N 
ATOM     12  C   UNL     1      -3.595  -1.302  25.847  0.00  0.00    +0.027 C 
ATOM     13  C   UNL     1      -3.334  -0.987  23.416  0.00  0.00    +0.054 C 
ATOM     14  C   UNL     1      -4.354  -1.254  24.524  0.00  0.00    +0.018 C 
ATOM     15  C   UNL     1      -2.526  -2.412  25.820  0.00  0.00    +0.114 C 
ATOM     16  C   UNL     1      -2.983   0.082  26.107  0.00  0.00    +0.130 C 
ATOM     17  C   UNL     1      -2.315  -2.141  23.380  0.00  0.00    +0.119 C 
ATOM     18  C   UNL     1      -2.615   0.330  23.642  0.00  0.00    +0.027 A 
ATOM     19  C   UNL     1      -2.160   1.039  22.594  0.00  0.00    +0.024 A 
ATOM     20  C   UNL     1      -1.682   1.964  25.224  0.00  0.00    +0.274 A 
ATOM     21  C   UNL     1      -0.230  -2.245  24.887  0.00  0.00    +0.306 C 
ATOM     22  C   UNL     1      -1.184   2.689  24.029  0.00  0.00    +0.112 A 
ATOM     23  C   UNL     1      -1.420   2.257  22.789  0.00  0.00    +0.031 A 
ATOM     39  H   UNL     1       0.148  -2.387  22.849  0.00  0.00    +0.156 HD
ENDROOT
BRANCH  10  24
ATOM     24  C   UNL     1       1.792  -1.431  23.623  0.00  0.00    +0.035 A 
ATOM     26  C   UNL     1       1.893  -0.150  23.080  0.00  0.00    +0.024 A 
ATOM     27  C   UNL     1       2.937  -2.096  24.062  0.00  0.00    +0.024 A 
ATOM     28  C   UNL     1       3.140   0.466  22.977  0.00  0.00    +0.013 A 
ATOM     29  C   UNL     1       4.183  -1.480  23.958  0.00  0.00    +0.013 A 
ATOM     32  C   UNL     1       4.286  -0.199  23.415  0.00  0.00    +0.017 A 
BRANCH  32  36
ATOM      7  O   UNL     1       5.745   1.645  23.596  0.00  0.00    -0.292 OA
ATOM     36  C   UNL     1       5.586   0.442  23.305  0.00  0.00    +0.160 C 
ATOM     37  C   UNL     1       6.798  -0.352  22.828  0.00  0.00    +0.091 C 
ENDBRANCH  32  36
ENDBRANCH  10  24
BRANCH  22  11
ATOM     11  N   UNL     1      -0.450   3.878  24.177  0.00  0.00    -0.211 N 
ATOM     40  H   UNL     1       0.401   3.755  24.745  0.00  0.00    +0.174 HD
BRANCH  11   1
ATOM      1  S   UNL     1      -1.325   5.287  24.517  0.00  0.00    +0.073 S 
ATOM      4  O   UNL     1      -0.755   5.949  25.675  0.00  0.00    -0.150 OA
ATOM      5  O   UNL     1      -1.553   6.028  23.291  0.00  0.00    -0.150 OA
BRANCH   1  25
ATOM     25  C   UNL     1      -2.877   4.598  25.013  0.00  0.00    +0.109 A 
ATOM     30  C   UNL     1      -3.766   4.120  24.051  0.00  0.00    +0.032 A 
ATOM     31  C   UNL     1      -3.211   4.533  26.365  0.00  0.00    +0.032 A 
ATOM     33  C   UNL     1      -4.990   3.576  24.442  0.00  0.00    +0.047 A 
ATOM     34  C   UNL     1      -4.434   3.988  26.757  0.00  0.00    +0.047 A 
ATOM     35  C   UNL     1      -5.323   3.510  25.795  0.00  0.00    +0.120 A 
BRANCH  35   6
ATOM      6  O   UNL     1      -6.518   2.980  26.176  0.00  0.00    -0.495 OA
ATOM     38  C   UNL     1      -6.521   1.614  26.587  0.00  0.00    +0.277 C 
ENDBRANCH  35   6
ENDBRANCH   1  25
ENDBRANCH  11   1
ENDBRANCH  22  11
TORSDOF 6
ENDMDL
MODEL 2
REMARK VINA RESULT:      14.5      2.204      7.445
REMARK  Name = 7113955
REMARK  8 active torsions:
REMARK  status: ('A' for Active; 'I' for Inactive)
REMARK    1  A    between atoms: S_1  and  N_11
REMARK    2  A    between atoms: S_1  and  C_25
REMARK    3  A    between atoms: O_6  and  C_35
REMARK    4  A    between atoms: O_6  and  C_38
REMARK    5  A    between atoms: N_10  and  C_24
REMARK    6  A    between atoms: N_11  and  C_22
REMARK    7  A    between atoms: C_32  and  C_36
REMARK    8  A    between atoms: C_36  and  C_37
REMARK                            x       y       z     vdW  Elec       q    Type
REMARK                         _______ _______ _______ _____ _____    ______ ____
ROOT
ATOM      2  O   UNL     1      -0.276   2.373  26.777  0.00  0.00    -0.266 OA
ATOM      3  O   UNL     1      -5.038   0.601  26.628  0.00  0.00    -0.252 OA
ATOM      8  N   UNL     1      -5.061   2.590  25.451  0.00  0.00    -0.284 N 
ATOM      9  N   UNL     1      -2.019   3.384  25.582  0.00  0.00    -0.310 N 
ATOM     10  N   UNL     1      -4.899   0.532  24.313  0.00  0.00    -0.269 N 
ATOM     12  C   UNL     1      -4.043   4.470  26.717  0.00  0.00    +0.027 C 
ATOM     13  C   UNL     1      -3.897   4.422  24.257  0.00  0.00    +0.054 C 
ATOM     14  C   UNL     1      -4.097   5.339  25.464  0.00  0.00    +0.018 C 
ATOM     15  C   UNL     1      -5.141   3.388  26.676  0.00  0.00    +0.114 C 
ATOM     16  C   UNL     1      -2.638   3.861  26.828  0.00  0.00    +0.130 C 
ATOM     17  C   UNL     1      -5.039   3.390  24.213  0.00  0.00    +0.119 C 
ATOM     18  C   UNL     1      -2.559   3.708  24.330  0.00  0.00    +0.027 A 
ATOM     19  C   UNL     1      -1.920   3.355  23.199  0.00  0.00    +0.024 A 
ATOM     20  C   UNL     1      -0.808   2.672  25.709  0.00  0.00    +0.274 A 
ATOM     21  C   UNL     1      -5.014   1.183  25.540  0.00  0.00    +0.306 C 
ATOM     22  C   UNL     1      -0.164   2.290  24.428  0.00  0.00    +0.112 A 
ATOM     23  C   UNL     1      -0.684   2.622  23.246  0.00  0.00    +0.031 A 
ATOM     39  H   UNL     1      -5.295   0.977  23.492  0.00  0.00    +0.156 HD
ENDROOT
BRANCH  10  24
ATOM     24  C   UNL     1      -4.268  -0.710  24.054  0.00  0.00    +0.035 A 
ATOM     26  C   UNL     1      -5.006  -1.773  23.532  0.00  0.00    +0.024 A 
ATOM     27  C   UNL     1      -2.908  -0.870  24.320  0.00  0.00    +0.024 A 
ATOM     28  C   UNL     1      -4.384  -2.994  23.276  0.00  0.00    +0.013 A 
ATOM     29  C   UNL     1      -2.286  -2.091  24.065  0.00  0.00    +0.013 A 
ATOM     32  C   UNL     1      -3.024  -3.154  23.543  0.00  0.00    +0.017 A 
BRANCH  32  36
ATOM      7  O   UNL     1      -3.035  -5.478  23.140  0.00  0.00    -0.292 OA
ATOM     36  C   UNL     1      -2.375  -4.428  23.278  0.00  0.00    +0.160 C 
ATOM     37  C   UNL     1      -0.857  -4.508  23.160  0.00  0.00    +0.091 C 
ENDBRANCH  32  36
ENDBRANCH  10  24
BRANCH  22  11
ATOM     11  N   UNL     1       1.042   1.566  24.431  0.00  0.00    -0.211 N 
ATOM     40  H   UNL     1       1.868   2.167  24.295  0.00  0.00    +0.174 HD
BRANCH  11   1
ATOM      1  S   UNL     1       1.073   0.117  23.558  0.00  0.00    +0.073 S 
ATOM      4  O   UNL     1       0.564  -0.962  24.384  0.00  0.00    -0.150 OA
ATOM      5  O   UNL     1       0.536   0.335  22.229  0.00  0.00    -0.150 OA
BRANCH   1  25
ATOM     25  C   UNL     1       2.817  -0.128  23.389  0.00  0.00    +0.109 A 
ATOM     30  C   UNL     1       3.395  -1.328  23.799  0.00  0.00    +0.032 A 
ATOM     31  C   UNL     1       3.613   0.879  22.844  0.00  0.00    +0.032 A 
ATOM     33  C   UNL     1       4.771  -1.522  23.665  0.00  0.00    +0.047 A 
ATOM     34  C   UNL     1       4.988   0.686  22.709  0.00  0.00    +0.047 A 
ATOM     35  C   UNL     1       5.566  -0.514  23.120  0.00  0.00    +0.120 A 
BRANCH  35   6
ATOM      6  O   UNL     1       6.908  -0.703  22.990  0.00  0.00    -0.495 OA
ATOM     38  C   UNL     1       7.760   0.298  23.544  0.00  0.00    +0.277 C 
ENDBRANCH  35   6
ENDBRANCH   1  25
ENDBRANCH  11   1
ENDBRANCH  22  11
TORSDOF 6
ENDMDL
MODEL 3
REMARK VINA RESULT:      15.5      2.381      4.283
REMARK  Name = 7113955
REMARK  8 active torsions:
REMARK  status: ('A' for Active; 'I' for Inactive)
REMARK    1  A    between atoms: S_1  and  N_11
REMARK    2  A    between atoms: S_1  and  C_25
REMARK    3  A    between atoms: O_6  and  C_35
REMARK    4  A    between atoms: O_6  and  C_38
REMARK    5  A    between atoms: N_10  and  C_24
REMARK    6  A    between atoms: N_11  and  C_22
REMARK    7  A    between atoms: C_32  and  C_36
REMARK    8  A    between atoms: C_36  and  C_37
REMARK                            x       y       z     vdW  Elec       q    Type
REMARK                         _______ _______ _______ _____ _____    ______ ____
ROOT
ATOM      2  O   UNL     1      -2.897   4.223  26.941  0.00  0.00    -0.266 OA
ATOM      3  O   UNL     1      -3.126  -0.844  26.607  0.00  0.00    -0.252 OA
ATOM      8  N   UNL     1      -4.962  -0.046  25.452  0.00  0.00    -0.284 N 
ATOM      9  N   UNL     1      -4.505   3.057  25.697  0.00  0.00    -0.310 N 
ATOM     10  N   UNL     1      -3.000  -0.660  24.298  0.00  0.00    -0.269 N 
ATOM     12  C   UNL     1      -6.299   1.579  26.773  0.00  0.00    +0.027 C 
ATOM     13  C   UNL     1      -6.188   1.783  24.319  0.00  0.00    +0.054 C 
ATOM     14  C   UNL     1      -7.115   1.914  25.529  0.00  0.00    +0.018 C 
ATOM     15  C   UNL     1      -5.732   0.148  26.682  0.00  0.00    +0.114 C 
ATOM     16  C   UNL     1      -5.190   2.629  26.926  0.00  0.00    +0.130 C 
ATOM     17  C   UNL     1      -5.685   0.331  24.225  0.00  0.00    +0.119 C 
ATOM     18  C   UNL     1      -5.009   2.732  24.430  0.00  0.00    +0.027 A 
ATOM     19  C   UNL     1      -4.431   3.223  23.319  0.00  0.00    +0.024 A 
ATOM     20  C   UNL     1      -3.377   3.889  25.859  0.00  0.00    +0.274 A 
ATOM     21  C   UNL     1      -3.649  -0.556  25.527  0.00  0.00    +0.306 C 
ATOM     22  C   UNL     1      -2.768   4.378  24.597  0.00  0.00    +0.112 A 
ATOM     23  C   UNL     1      -3.274   4.073  23.401  0.00  0.00    +0.031 A 
ATOM     39  H   UNL     1      -3.561  -0.820  23.469  0.00  0.00    +0.156 HD
ENDROOT
BRANCH  10  24
ATOM     24  C   UNL     1      -1.609  -0.555  24.048  0.00  0.00    +0.035 A 
ATOM     26  C   UNL     1      -0.725  -1.463  24.631  0.00  0.00    +0.024 A 
ATOM     27  C   UNL     1      -1.125   0.455  23.217  0.00  0.00    +0.024 A 
ATOM     28  C   UNL     1       0.643  -1.360  24.383  0.00  0.00    +0.013 A 
ATOM     29  C   UNL     1       0.244   0.558  22.969  0.00  0.00    +0.013 A 
ATOM     32  C   UNL     1       1.129  -0.350  23.552  0.00  0.00    +0.017 A 
BRANCH  32  36
ATOM      7  O   UNL     1       3.323  -1.210  23.467  0.00  0.00    -0.292 OA
ATOM     36  C   UNL     1       2.555  -0.242  23.294  0.00  0.00    +0.160 C 
ATOM     37  C   UNL     1       3.150   1.074  22.802  0.00  0.00    +0.091 C 
ENDBRANCH  32  36
ENDBRANCH  10  24
BRANCH  22  11
ATOM     11  N   UNL     1      -1.631   5.205  24.633  0.00  0.00    -0.211 N 
ATOM     40  H   UNL     1      -1.797   6.130  24.211  0.00  0.00    +0.174 HD
BRANCH  11   1
ATOM      1  S   UNL     1      -0.150   4.497  24.221  0.00  0.00    +0.073 S 
ATOM      4  O   UNL     1      -0.350   3.530  23.158  0.00  0.00    -0.150 OA
ATOM      5  O   UNL     1       0.863   5.527  24.091  0.00  0.00    -0.150 OA
BRANCH   1  25
ATOM     25  C   UNL     1       0.204   3.592  25.699  0.00  0.00    +0.109 A 
ATOM     30  C   UNL     1       1.170   4.061  26.588  0.00  0.00    +0.032 A 
ATOM     31  C   UNL     1      -0.483   2.410  25.975  0.00  0.00    +0.032 A 
ATOM     33  C   UNL     1       1.449   3.348  27.755  0.00  0.00    +0.047 A 
ATOM     34  C   UNL     1      -0.204   1.697  27.140  0.00  0.00    +0.047 A 
ATOM     35  C   UNL     1       0.762   2.166  28.030  0.00  0.00    +0.120 A 
BRANCH  35   6
ATOM      6  O   UNL     1       1.035   1.469  29.168  0.00  0.00    -0.495 OA
ATOM     38  C   UNL     1       1.959   2.056  30.082  0.00  0.00    +0.277 C 
ENDBRANCH  35   6
ENDBRANCH   1  25
ENDBRANCH  11   1
ENDBRANCH  22  11
TORSDOF 6
ENDMDL
MODEL 4
REMARK VINA RESULT:      15.7      3.183      7.132
REMARK  Name = 7113955
REMARK  8 active torsions:
REMARK  status: ('A' for Active; 'I' for Inactive)
REMARK    1  A    between atoms: S_1  and  N_11
REMARK    2  A    between atoms: S_1  and  C_25
REMARK    3  A    between atoms: O_6  and  C_35
REMARK    4  A    between atoms: O_6  and  C_38
REMARK    5  A    between atoms: N_10  and  C_24
REMARK    6  A    between atoms: N_11  and  C_22
REMARK    7  A    between atoms: C_32  and  C_36
REMARK    8  A    between atoms: C_36  and  C_37
REMARK                            x       y       z     vdW  Elec       q    Type
REMARK                         _______ _______ _______ _____ _____    ______ ____
ROOT
ATOM      2  O   UNL     1      -1.088   1.262  22.377  0.00  0.00    -0.266 OA
ATOM      3  O   UNL     1      -2.348   4.746  25.858  0.00  0.00    -0.252 OA
ATOM      8  N   UNL     1      -4.016   3.149  25.923  0.00  0.00    -0.284 N 
ATOM      9  N   UNL     1      -2.934   1.084  23.809  0.00  0.00    -0.310 N 
ATOM     10  N   UNL     1      -2.254   3.096  27.487  0.00  0.00    -0.269 N 
ATOM     12  C   UNL     1      -4.958   2.649  23.678  0.00  0.00    +0.027 C 
ATOM     13  C   UNL     1      -4.880   0.887  25.399  0.00  0.00    +0.054 C 
ATOM     14  C   UNL     1      -5.726   1.469  24.266  0.00  0.00    +0.018 C 
ATOM     15  C   UNL     1      -4.695   3.718  24.757  0.00  0.00    +0.114 C 
ATOM     16  C   UNL     1      -3.655   2.123  23.059  0.00  0.00    +0.130 C 
ATOM     17  C   UNL     1      -4.684   1.961  26.485  0.00  0.00    +0.119 C 
ATOM     18  C   UNL     1      -3.531   0.417  24.888  0.00  0.00    +0.027 A 
ATOM     19  C   UNL     1      -2.897  -0.604  25.493  0.00  0.00    +0.024 A 
ATOM     20  C   UNL     1      -1.656   0.728  23.328  0.00  0.00    +0.274 A 
ATOM     21  C   UNL     1      -2.832   3.748  26.399  0.00  0.00    +0.306 C 
ATOM     22  C   UNL     1      -0.999  -0.389  24.051  0.00  0.00    +0.112 A 
ATOM     23  C   UNL     1      -1.590  -1.023  25.064  0.00  0.00    +0.031 A 
ATOM     39  H   UNL     1      -2.860   2.591  28.124  0.00  0.00    +0.156 HD
ENDROOT
BRANCH  10  24
ATOM     24  C   UNL     1      -0.879   3.038  27.824  0.00  0.00    +0.035 A 
ATOM     26  C   UNL     1      -0.483   3.113  29.159  0.00  0.00    +0.024 A 
ATOM     27  C   UNL     1       0.079   2.904  26.818  0.00  0.00    +0.024 A 
ATOM     28  C   UNL     1       0.870   3.054  29.489  0.00  0.00    +0.013 A 
ATOM     29  C   UNL     1       1.433   2.846  27.148  0.00  0.00    +0.013 A 
ATOM     32  C   UNL     1       1.829   2.920  28.484  0.00  0.00    +0.017 A 
BRANCH  32  36
ATOM      7  O   UNL     1       3.971   1.936  28.417  0.00  0.00    -0.292 OA
ATOM     36  C   UNL     1       3.240   2.860  28.827  0.00  0.00    +0.160 C 
ATOM     37  C   UNL     1       3.865   3.938  29.707  0.00  0.00    +0.091 C 
ENDBRANCH  32  36
ENDBRANCH  10  24
BRANCH  22  11
ATOM     11  N   UNL     1       0.283  -0.823  23.668  0.00  0.00    -0.211 N 
ATOM     40  H   UNL     1       0.858  -1.123  24.468  0.00  0.00    +0.174 HD
BRANCH  11   1
ATOM      1  S   UNL     1       1.103   0.114  22.522  0.00  0.00    +0.073 S 
ATOM      4  O   UNL     1       0.947  -0.477  21.206  0.00  0.00    -0.150 OA
ATOM      5  O   UNL     1       0.804   1.517  22.733  0.00  0.00    -0.150 OA
BRANCH   1  25
ATOM     25  C   UNL     1       2.779  -0.149  23.022  0.00  0.00    +0.109 A 
ATOM     30  C   UNL     1       3.170  -1.390  23.525  0.00  0.00    +0.032 A 
ATOM     31  C   UNL     1       3.710   0.884  22.914  0.00  0.00    +0.032 A 
ATOM     33  C   UNL     1       4.493  -1.598  23.919  0.00  0.00    +0.047 A 
ATOM     34  C   UNL     1       5.032   0.676  23.307  0.00  0.00    +0.047 A 
ATOM     35  C   UNL     1       5.423  -0.565  23.809  0.00  0.00    +0.120 A 
BRANCH  35   6
ATOM      6  O   UNL     1       6.713  -0.767  24.195  0.00  0.00    -0.495 OA
ATOM     38  C   UNL     1       7.727  -0.532  23.219  0.00  0.00    +0.277 C 
ENDBRANCH  35   6
ENDBRANCH   1  25
ENDBRANCH  11   1
ENDBRANCH  22  11
TORSDOF 6
ENDMDL
