MODEL 1
REMARK VINA RESULT:      -4.0      0.000      0.000
REMARK  Name = 45784210
REMARK  4 active torsions:
REMARK  status: ('A' for Active; 'I' for Inactive)
REMARK    1  A    between atoms: N_1  and  C_9
REMARK    2  A    between atoms: C_4  and  C_8
REMARK    3  A    between atoms: C_9  and  C_10
REMARK    4  A    between atoms: C_17  and  C_21
REMARK                            x       y       z     vdW  Elec       q    Type
REMARK                         _______ _______ _______ _____ _____    ______ ____
ROOT
ATOM      1  N   UNL     1       0.697  -0.619  23.698  0.00  0.00    -0.297 NA
ATOM      4  C   UNL     1      -1.130  -0.131  25.087  0.00  0.00    +0.070 C 
ATOM      5  C   UNL     1      -1.304  -1.535  24.481  0.00  0.00    +0.028 C 
ATOM      6  C   UNL     1      -0.041   0.530  24.230  0.00  0.00    +0.096 C 
ATOM      7  C   UNL     1      -0.334  -1.581  23.307  0.00  0.00    +0.085 C 
ENDROOT
BRANCH   4   8
ATOM      2  N   UNL     1      -2.357   2.053  25.239  0.00  0.00    -0.342 N 
ATOM      3  N   UNL     1      -3.629   0.232  25.172  0.00  0.00    -0.232 NA
ATOM      8  C   UNL     1      -2.396   0.689  25.165  0.00  0.00    +0.113 A 
ATOM     11  C   UNL     1      -3.650   2.507  25.298  0.00  0.00    +0.066 A 
ATOM     12  C   UNL     1      -4.425   1.352  25.254  0.00  0.00    +0.089 A 
ATOM     13  C   UNL     1      -4.191   3.791  25.382  0.00  0.00    +0.031 A 
ATOM     14  C   UNL     1      -5.825   1.464  25.296  0.00  0.00    +0.030 A 
ATOM     17  C   UNL     1      -5.586   3.884  25.423  0.00  0.00    -0.048 A 
ATOM     18  C   UNL     1      -6.391   2.742  25.381  0.00  0.00    +0.005 A 
ATOM     21  C   UNL     1      -6.226   5.231  25.513  0.00  0.00    +0.044 C 
ATOM     23  H   UNL     1      -1.525   2.629  25.249  0.00  0.00    +0.167 HD
ENDBRANCH   4   8
BRANCH   1   9
ATOM      9  C   UNL     1       1.565  -0.255  22.589  0.00  0.00    +0.119 C 
BRANCH   9  10
ATOM     10  C   UNL     1       3.012  -0.214  23.001  0.00  0.00    -0.033 A 
ATOM     15  C   UNL     1       3.604  -1.336  23.582  0.00  0.00    +0.005 A 
ATOM     16  C   UNL     1       3.761   0.945  22.802  0.00  0.00    +0.005 A 
ATOM     19  C   UNL     1       4.946  -1.298  23.964  0.00  0.00    +0.000 A 
ATOM     20  C   UNL     1       5.103   0.984  23.183  0.00  0.00    +0.000 A 
ATOM     22  C   UNL     1       5.695  -0.138  23.765  0.00  0.00    +0.000 A 
ENDBRANCH   9  10
ENDBRANCH   1   9
TORSDOF 3
ENDMDL
MODEL 2
REMARK VINA RESULT:      -3.6     16.951     18.464
REMARK  Name = 45784210
REMARK  4 active torsions:
REMARK  status: ('A' for Active; 'I' for Inactive)
REMARK    1  A    between atoms: N_1  and  C_9
REMARK    2  A    between atoms: C_4  and  C_8
REMARK    3  A    between atoms: C_9  and  C_10
REMARK    4  A    between atoms: C_17  and  C_21
REMARK                            x       y       z     vdW  Elec       q    Type
REMARK                         _______ _______ _______ _____ _____    ______ ____
ROOT
ATOM      1  N   UNL     1      17.072  -5.557  26.899  0.00  0.00    -0.297 NA
ATOM      4  C   UNL     1      16.072  -7.347  28.039  0.00  0.00    +0.070 C 
ATOM      5  C   UNL     1      15.534  -7.289  26.599  0.00  0.00    +0.028 C 
ATOM      6  C   UNL     1      16.738  -5.982  28.261  0.00  0.00    +0.096 C 
ATOM      7  C   UNL     1      15.895  -5.895  26.099  0.00  0.00    +0.085 C 
ENDROOT
BRANCH   4   8
ATOM      2  N   UNL     1      14.071  -6.779  29.443  0.00  0.00    -0.342 N 
ATOM      3  N   UNL     1      14.937  -8.800  29.766  0.00  0.00    -0.232 NA
ATOM      8  C   UNL     1      15.039  -7.677  29.091  0.00  0.00    +0.113 A 
ATOM     11  C   UNL     1      13.292  -7.360  30.410  0.00  0.00    +0.066 A 
ATOM     12  C   UNL     1      13.852  -8.621  30.594  0.00  0.00    +0.089 A 
ATOM     13  C   UNL     1      12.178  -6.905  31.118  0.00  0.00    +0.031 A 
ATOM     14  C   UNL     1      13.281  -9.494  31.537  0.00  0.00    +0.030 A 
ATOM     17  C   UNL     1      11.622  -7.787  32.051  0.00  0.00    -0.048 A 
ATOM     18  C   UNL     1      12.163  -9.059  32.259  0.00  0.00    +0.005 A 
ATOM     21  C   UNL     1      10.429  -7.358  32.840  0.00  0.00    +0.044 C 
ATOM     23  H   UNL     1      13.948  -5.850  29.061  0.00  0.00    +0.167 HD
ENDBRANCH   4   8
BRANCH   1   9
ATOM      9  C   UNL     1      17.405  -4.143  26.825  0.00  0.00    +0.119 C 
BRANCH   9  10
ATOM     10  C   UNL     1      17.342  -3.626  25.413  0.00  0.00    -0.033 A 
ATOM     15  C   UNL     1      17.222  -2.257  25.175  0.00  0.00    +0.005 A 
ATOM     16  C   UNL     1      17.403  -4.516  24.341  0.00  0.00    +0.005 A 
ATOM     19  C   UNL     1      17.164  -1.777  23.867  0.00  0.00    +0.000 A 
ATOM     20  C   UNL     1      17.345  -4.038  23.032  0.00  0.00    +0.000 A 
ATOM     22  C   UNL     1      17.225  -2.667  22.795  0.00  0.00    +0.000 A 
ENDBRANCH   9  10
ENDBRANCH   1   9
TORSDOF 3
ENDMDL
MODEL 3
REMARK VINA RESULT:      -2.7      1.913      7.518
REMARK  Name = 45784210
REMARK  4 active torsions:
REMARK  status: ('A' for Active; 'I' for Inactive)
REMARK    1  A    between atoms: N_1  and  C_9
REMARK    2  A    between atoms: C_4  and  C_8
REMARK    3  A    between atoms: C_9  and  C_10
REMARK    4  A    between atoms: C_17  and  C_21
REMARK                            x       y       z     vdW  Elec       q    Type
REMARK                         _______ _______ _______ _____ _____    ______ ____
ROOT
ATOM      1  N   UNL     1      -3.673   1.895  25.016  0.00  0.00    -0.297 NA
ATOM      4  C   UNL     1      -1.418   2.306  24.517  0.00  0.00    +0.070 C 
ATOM      5  C   UNL     1      -2.311   3.021  23.488  0.00  0.00    +0.028 C 
ATOM      6  C   UNL     1      -2.349   1.299  25.206  0.00  0.00    +0.096 C 
ATOM      7  C   UNL     1      -3.679   2.365  23.630  0.00  0.00    +0.085 C 
ENDROOT
BRANCH   4   8
ATOM      2  N   UNL     1       1.069   1.997  24.393  0.00  0.00    -0.342 N 
ATOM      3  N   UNL     1      -0.129   0.756  22.993  0.00  0.00    -0.232 NA
ATOM      8  C   UNL     1      -0.176   1.664  23.943  0.00  0.00    +0.113 A 
ATOM     11  C   UNL     1       1.983   1.255  23.688  0.00  0.00    +0.066 A 
ATOM     12  C   UNL     1       1.210   0.489  22.821  0.00  0.00    +0.089 A 
ATOM     13  C   UNL     1       3.376   1.191  23.734  0.00  0.00    +0.031 A 
ATOM     14  C   UNL     1       1.848  -0.400  21.938  0.00  0.00    +0.030 A 
ATOM     17  C   UNL     1       3.994   0.301  22.850  0.00  0.00    -0.048 A 
ATOM     18  C   UNL     1       3.245  -0.481  21.966  0.00  0.00    +0.005 A 
ATOM     21  C   UNL     1       5.484   0.186  22.850  0.00  0.00    +0.044 C 
ATOM     23  H   UNL     1       1.285   2.670  25.118  0.00  0.00    +0.167 HD
ENDBRANCH   4   8
BRANCH   1   9
ATOM      9  C   UNL     1      -4.749   0.955  25.287  0.00  0.00    +0.119 C 
BRANCH   9  10
ATOM     10  C   UNL     1      -4.324  -0.469  25.045  0.00  0.00    -0.033 A 
ATOM     15  C   UNL     1      -3.622  -1.164  26.030  0.00  0.00    +0.005 A 
ATOM     16  C   UNL     1      -4.631  -1.092  23.836  0.00  0.00    +0.005 A 
ATOM     19  C   UNL     1      -3.227  -2.483  25.807  0.00  0.00    +0.000 A 
ATOM     20  C   UNL     1      -4.237  -2.411  23.611  0.00  0.00    +0.000 A 
ATOM     22  C   UNL     1      -3.535  -3.107  24.597  0.00  0.00    +0.000 A 
ENDBRANCH   9  10
ENDBRANCH   1   9
TORSDOF 3
ENDMDL
MODEL 4
REMARK VINA RESULT:      -2.0      1.500      7.595
REMARK  Name = 45784210
REMARK  4 active torsions:
REMARK  status: ('A' for Active; 'I' for Inactive)
REMARK    1  A    between atoms: N_1  and  C_9
REMARK    2  A    between atoms: C_4  and  C_8
REMARK    3  A    between atoms: C_9  and  C_10
REMARK    4  A    between atoms: C_17  and  C_21
REMARK                            x       y       z     vdW  Elec       q    Type
REMARK                         _______ _______ _______ _____ _____    ______ ____
ROOT
ATOM      1  N   UNL     1      -3.063  -0.167  24.530  0.00  0.00    -0.297 NA
ATOM      4  C   UNL     1      -1.024  -0.891  23.625  0.00  0.00    +0.070 C 
ATOM      5  C   UNL     1      -1.347  -1.712  24.885  0.00  0.00    +0.028 C 
ATOM      6  C   UNL     1      -1.959   0.323  23.700  0.00  0.00    +0.096 C 
ATOM      7  C   UNL     1      -2.419  -0.910  25.614  0.00  0.00    +0.085 C 
ENDROOT
BRANCH   4   8
ATOM      2  N   UNL     1       1.433  -1.362  23.831  0.00  0.00    -0.342 N 
ATOM      3  N   UNL     1       0.897   0.631  23.007  0.00  0.00    -0.232 NA
ATOM      8  C   UNL     1       0.430  -0.506  23.473  0.00  0.00    +0.113 A 
ATOM     11  C   UNL     1       2.627  -0.738  23.579  0.00  0.00    +0.066 A 
ATOM     12  C   UNL     1       2.266   0.504  23.065  0.00  0.00    +0.089 A 
ATOM     13  C   UNL     1       3.952  -1.141  23.751  0.00  0.00    +0.031 A 
ATOM     14  C   UNL     1       3.274   1.412  22.695  0.00  0.00    +0.030 A 
ATOM     17  C   UNL     1       4.942  -0.226  23.377  0.00  0.00    -0.048 A 
ATOM     18  C   UNL     1       4.611   1.030  22.859  0.00  0.00    +0.005 A 
ATOM     21  C   UNL     1       6.380  -0.598  23.537  0.00  0.00    +0.044 C 
ATOM     23  H   UNL     1       1.319  -2.293  24.214  0.00  0.00    +0.167 HD
ENDBRANCH   4   8
BRANCH   1   9
ATOM      9  C   UNL     1      -3.908   0.910  25.022  0.00  0.00    +0.119 C 
BRANCH   9  10
ATOM     10  C   UNL     1      -3.174   2.224  25.063  0.00  0.00    -0.033 A 
ATOM     15  C   UNL     1      -1.899   2.293  25.623  0.00  0.00    +0.005 A 
ATOM     16  C   UNL     1      -3.771   3.372  24.543  0.00  0.00    +0.005 A 
ATOM     19  C   UNL     1      -1.219   3.511  25.662  0.00  0.00    +0.000 A 
ATOM     20  C   UNL     1      -3.092   4.590  24.581  0.00  0.00    +0.000 A 
ATOM     22  C   UNL     1      -1.815   4.659  25.141  0.00  0.00    +0.000 A 
ENDBRANCH   9  10
ENDBRANCH   1   9
TORSDOF 3
ENDMDL
MODEL 5
REMARK VINA RESULT:      -0.8     16.914     19.583
REMARK  Name = 45784210
REMARK  4 active torsions:
REMARK  status: ('A' for Active; 'I' for Inactive)
REMARK    1  A    between atoms: N_1  and  C_9
REMARK    2  A    between atoms: C_4  and  C_8
REMARK    3  A    between atoms: C_9  and  C_10
REMARK    4  A    between atoms: C_17  and  C_21
REMARK                            x       y       z     vdW  Elec       q    Type
REMARK                         _______ _______ _______ _____ _____    ______ ____
ROOT
ATOM      1  N   UNL     1      17.392  -4.891  25.290  0.00  0.00    -0.297 NA
ATOM      4  C   UNL     1      17.330  -7.086  26.115  0.00  0.00    +0.070 C 
ATOM      5  C   UNL     1      16.689  -7.043  24.716  0.00  0.00    +0.028 C 
ATOM      6  C   UNL     1      17.387  -5.619  26.561  0.00  0.00    +0.096 C 
ATOM      7  C   UNL     1      16.394  -5.570  24.463  0.00  0.00    +0.085 C 
ENDROOT
BRANCH   4   8
ATOM      2  N   UNL     1      16.961  -7.972  28.434  0.00  0.00    -0.342 N 
ATOM      3  N   UNL     1      15.653  -8.826  26.853  0.00  0.00    -0.232 NA
ATOM      8  C   UNL     1      16.624  -7.978  27.110  0.00  0.00    +0.113 A 
ATOM     11  C   UNL     1      16.154  -8.876  29.076  0.00  0.00    +0.066 A 
ATOM     12  C   UNL     1      15.347  -9.395  28.068  0.00  0.00    +0.089 A 
ATOM     13  C   UNL     1      16.064  -9.271  30.411  0.00  0.00    +0.031 A 
ATOM     14  C   UNL     1      14.386 -10.369  28.393  0.00  0.00    +0.030 A 
ATOM     17  C   UNL     1      15.102 -10.240  30.717  0.00  0.00    -0.048 A 
ATOM     18  C   UNL     1      14.278 -10.781  29.727  0.00  0.00    +0.005 A 
ATOM     21  C   UNL     1      14.957 -10.705  32.129  0.00  0.00    +0.044 C 
ATOM     23  H   UNL     1      17.677  -7.403  28.867  0.00  0.00    +0.167 HD
ENDBRANCH   4   8
BRANCH   1   9
ATOM      9  C   UNL     1      17.101  -3.476  25.460  0.00  0.00    +0.119 C 
BRANCH   9  10
ATOM     10  C   UNL     1      16.466  -2.883  24.230  0.00  0.00    -0.033 A 
ATOM     15  C   UNL     1      17.229  -2.110  23.354  0.00  0.00    +0.005 A 
ATOM     16  C   UNL     1      15.115  -3.105  23.968  0.00  0.00    +0.005 A 
ATOM     19  C   UNL     1      16.641  -1.560  22.215  0.00  0.00    +0.000 A 
ATOM     20  C   UNL     1      14.525  -2.556  22.828  0.00  0.00    +0.000 A 
ATOM     22  C   UNL     1      15.289  -1.783  21.952  0.00  0.00    +0.000 A 
ENDBRANCH   9  10
ENDBRANCH   1   9
TORSDOF 3
ENDMDL
MODEL 6
REMARK VINA RESULT:      -0.7      2.850      6.775
REMARK  Name = 45784210
REMARK  4 active torsions:
REMARK  status: ('A' for Active; 'I' for Inactive)
REMARK    1  A    between atoms: N_1  and  C_9
REMARK    2  A    between atoms: C_4  and  C_8
REMARK    3  A    between atoms: C_9  and  C_10
REMARK    4  A    between atoms: C_17  and  C_21
REMARK                            x       y       z     vdW  Elec       q    Type
REMARK                         _______ _______ _______ _____ _____    ______ ____
ROOT
ATOM      1  N   UNL     1      -0.267   3.719  25.244  0.00  0.00    -0.297 NA
ATOM      4  C   UNL     1      -0.155   1.377  25.182  0.00  0.00    +0.070 C 
ATOM      5  C   UNL     1       0.595   1.960  23.971  0.00  0.00    +0.028 C 
ATOM      6  C   UNL     1      -1.002   2.541  25.713  0.00  0.00    +0.096 C 
ATOM      7  C   UNL     1       0.113   3.402  23.867  0.00  0.00    +0.085 C 
ENDROOT
BRANCH   4   8
ATOM      2  N   UNL     1      -2.275   0.228  24.488  0.00  0.00    -0.342 N 
ATOM      3  N   UNL     1      -0.565  -1.107  24.969  0.00  0.00    -0.232 NA
ATOM      8  C   UNL     1      -0.972   0.140  24.887  0.00  0.00    +0.113 A 
ATOM     11  C   UNL     1      -2.743  -1.048  24.299  0.00  0.00    +0.066 A 
ATOM     12  C   UNL     1      -1.657  -1.863  24.606  0.00  0.00    +0.089 A 
ATOM     13  C   UNL     1      -3.984  -1.543  23.899  0.00  0.00    +0.031 A 
ATOM     14  C   UNL     1      -1.799  -3.258  24.513  0.00  0.00    +0.030 A 
ATOM     17  C   UNL     1      -4.108  -2.934  23.811  0.00  0.00    -0.048 A 
ATOM     18  C   UNL     1      -3.036  -3.778  24.113  0.00  0.00    +0.005 A 
ATOM     21  C   UNL     1      -5.413  -3.526  23.388  0.00  0.00    +0.044 C 
ATOM     23  H   UNL     1      -2.805   1.079  24.354  0.00  0.00    +0.167 HD
ENDBRANCH   4   8
BRANCH   1   9
ATOM      9  C   UNL     1      -1.057   4.937  25.334  0.00  0.00    +0.119 C 
BRANCH   9  10
ATOM     10  C   UNL     1      -2.534   4.651  25.314  0.00  0.00    -0.033 A 
ATOM     15  C   UNL     1      -3.222   4.447  26.511  0.00  0.00    +0.005 A 
ATOM     16  C   UNL     1      -3.216   4.587  24.099  0.00  0.00    +0.005 A 
ATOM     19  C   UNL     1      -4.591   4.181  26.493  0.00  0.00    +0.000 A 
ATOM     20  C   UNL     1      -4.585   4.321  24.080  0.00  0.00    +0.000 A 
ATOM     22  C   UNL     1      -5.273   4.118  25.278  0.00  0.00    +0.000 A 
ENDBRANCH   9  10
ENDBRANCH   1   9
TORSDOF 3
ENDMDL
MODEL 7
REMARK VINA RESULT:      -0.7      3.356      6.814
REMARK  Name = 45784210
REMARK  4 active torsions:
REMARK  status: ('A' for Active; 'I' for Inactive)
REMARK    1  A    between atoms: N_1  and  C_9
REMARK    2  A    between atoms: C_4  and  C_8
REMARK    3  A    between atoms: C_9  and  C_10
REMARK    4  A    between atoms: C_17  and  C_21
REMARK                            x       y       z     vdW  Elec       q    Type
REMARK                         _______ _______ _______ _____ _____    ______ ____
ROOT
ATOM      1  N   UNL     1      -5.307   3.773  25.081  0.00  0.00    -0.297 NA
ATOM      4  C   UNL     1      -5.217   1.484  24.577  0.00  0.00    +0.070 C 
ATOM      5  C   UNL     1      -6.036   1.696  25.863  0.00  0.00    +0.028 C 
ATOM      6  C   UNL     1      -4.466   2.806  24.372  0.00  0.00    +0.096 C 
ATOM      7  C   UNL     1      -5.682   3.104  26.326  0.00  0.00    +0.085 C 
ENDROOT
BRANCH   4   8
ATOM      2  N   UNL     1      -3.021   0.373  25.063  0.00  0.00    -0.342 N 
ATOM      3  N   UNL     1      -4.595  -0.936  24.199  0.00  0.00    -0.232 NA
ATOM      8  C   UNL     1      -4.302   0.282  24.598  0.00  0.00    +0.113 A 
ATOM     11  C   UNL     1      -2.447  -0.869  24.957  0.00  0.00    +0.066 A 
ATOM     12  C   UNL     1      -3.450  -1.668  24.415  0.00  0.00    +0.089 A 
ATOM     13  C   UNL     1      -1.176  -1.347  25.279  0.00  0.00    +0.031 A 
ATOM     14  C   UNL     1      -3.188  -3.027  24.173  0.00  0.00    +0.030 A 
ATOM     17  C   UNL     1      -0.932  -2.702  25.032  0.00  0.00    -0.048 A 
ATOM     18  C   UNL     1      -1.919  -3.529  24.489  0.00  0.00    +0.005 A 
ATOM     21  C   UNL     1       0.409  -3.274  25.356  0.00  0.00    +0.044 C 
ATOM     23  H   UNL     1      -2.571   1.205  25.422  0.00  0.00    +0.167 HD
ENDBRANCH   4   8
BRANCH   1   9
ATOM      9  C   UNL     1      -4.624   5.036  25.314  0.00  0.00    +0.119 C 
BRANCH   9  10
ATOM     10  C   UNL     1      -3.128   4.880  25.275  0.00  0.00    -0.033 A 
ATOM     15  C   UNL     1      -2.343   5.835  24.628  0.00  0.00    +0.005 A 
ATOM     16  C   UNL     1      -2.526   3.780  25.885  0.00  0.00    +0.005 A 
ATOM     19  C   UNL     1      -0.956   5.691  24.591  0.00  0.00    +0.000 A 
ATOM     20  C   UNL     1      -1.139   3.635  25.849  0.00  0.00    +0.000 A 
ATOM     22  C   UNL     1      -0.354   4.590  25.202  0.00  0.00    +0.000 A 
ENDBRANCH   9  10
ENDBRANCH   1   9
TORSDOF 3
ENDMDL
