MODEL 1
REMARK VINA RESULT:       7.6      0.000      0.000
REMARK  Name = 25389601
REMARK  12 active torsions:
REMARK  status: ('A' for Active; 'I' for Inactive)
REMARK    1  A    between atoms: O_1  and  C_16
REMARK    2  A    between atoms: O_1  and  C_21
REMARK    3  A    between atoms: O_3  and  C_22
REMARK    4  A    between atoms: O_3  and  C_30
REMARK    5  A    between atoms: N_5  and  C_19
REMARK    6  A    between atoms: N_7  and  C_26
REMARK    7  A    between atoms: C_9  and  C_15
REMARK    8  A    between atoms: C_10  and  C_16
REMARK    9  A    between atoms: C_18  and  C_20
REMARK   10  A    between atoms: C_31  and  C_34
REMARK   11  A    between atoms: C_34  and  C_35
REMARK   12  A    between atoms: C_34  and  C_36
REMARK                            x       y       z     vdW  Elec       q    Type
REMARK                         _______ _______ _______ _____ _____    ______ ____
ROOT
ATOM      4  N   UNL     1      -3.064  -2.655  23.646  0.00  0.00    -0.296 NA
ATOM      8  C   UNL     1      -3.021  -1.548  26.003  0.00  0.00    +0.002 C 
ATOM      9  C   UNL     1      -3.927  -0.734  25.037  0.00  0.00    +0.055 C 
ATOM     10  C   UNL     1      -1.659  -2.495  24.108  0.00  0.00    +0.095 C 
ATOM     11  C   UNL     1      -1.604  -1.657  25.404  0.00  0.00    +0.026 C 
ATOM     12  C   UNL     1      -3.602  -2.977  26.061  0.00  0.00    +0.019 C 
ATOM     13  C   UNL     1      -3.741  -1.335  23.614  0.00  0.00    +0.094 C 
ATOM     14  C   UNL     1      -3.770  -3.513  24.627  0.00  0.00    +0.085 C 
ENDROOT
BRANCH   9  15
ATOM      5  N   UNL     1      -4.876   1.613  25.195  0.00  0.00    -0.270 N 
ATOM      6  N   UNL     1      -4.559   2.918  25.172  0.00  0.00    -0.171 NA
ATOM     15  C   UNL     1      -3.805   0.782  25.044  0.00  0.00    +0.044 A 
ATOM     17  C   UNL     1      -2.711   1.602  24.912  0.00  0.00    +0.053 A 
ATOM     18  C   UNL     1      -3.234   2.905  24.999  0.00  0.00    +0.096 A 
ATOM     19  C   UNL     1      -6.258   1.226  25.367  0.00  0.00    +0.172 C 
BRANCH  18  20
ATOM     20  C   UNL     1      -2.495   4.138  24.919  0.00  0.00    +0.044 A 
ATOM     22  C   UNL     1      -1.109   4.153  25.082  0.00  0.00    +0.129 A 
ATOM     23  C   UNL     1      -3.181   5.326  24.676  0.00  0.00    +0.014 A 
ATOM     24  C   UNL     1      -0.411   5.358  25.001  0.00  0.00    +0.046 A 
ATOM     25  C   UNL     1      -2.482   6.532  24.595  0.00  0.00    +0.001 A 
ATOM     27  C   UNL     1      -1.098   6.547  24.757  0.00  0.00    +0.004 A 
BRANCH  22   3
ATOM      3  O   UNL     1      -0.412   3.006  25.320  0.00  0.00    -0.494 OA
ATOM     30  C   UNL     1       0.099   2.820  26.638  0.00  0.00    +0.277 C 
ENDBRANCH  22   3
ENDBRANCH  18  20
ENDBRANCH   9  15
BRANCH  10  16
ATOM     16  C   UNL     1      -0.749  -1.923  23.019  0.00  0.00    +0.252 C 
BRANCH  16   1
ATOM      1  O   UNL     1      -0.743  -0.513  23.138  0.00  0.00    -0.449 OA
BRANCH   1  21
ATOM      2  O   UNL     1       0.553   1.207  23.906  0.00  0.00    -0.226 OA
ATOM      7  N   UNL     1       1.489  -0.798  23.142  0.00  0.00    -0.251 N 
ATOM     21  C   UNL     1       0.463   0.077  23.442  0.00  0.00    +0.405 C 
ATOM     37  H   UNL     1       1.214  -1.701  22.761  0.00  0.00    +0.158 HD
BRANCH   7  26
ATOM     26  C   UNL     1       2.879  -0.597  23.300  0.00  0.00    +0.036 A 
ATOM     28  C   UNL     1       3.456   0.616  22.922  0.00  0.00    +0.024 A 
ATOM     29  C   UNL     1       3.675  -1.611  23.833  0.00  0.00    +0.024 A 
ATOM     31  C   UNL     1       5.623  -0.199  23.610  0.00  0.00    -0.045 A 
ATOM     32  C   UNL     1       4.828   0.815  23.077  0.00  0.00    +0.006 A 
ATOM     33  C   UNL     1       5.047  -1.412  23.988  0.00  0.00    +0.006 A 
BRANCH  31  34
ATOM     34  C   UNL     1       7.090   0.013  23.776  0.00  0.00    +0.013 C 
ATOM     35  C   UNL     1       7.460   1.504  23.896  0.00  0.00    +0.012 C 
ATOM     36  C   UNL     1       7.912  -0.640  22.650  0.00  0.00    +0.012 C 
ENDBRANCH  31  34
ENDBRANCH   7  26
ENDBRANCH   1  21
ENDBRANCH  16   1
ENDBRANCH  10  16
TORSDOF 8
ENDMDL
MODEL 2
REMARK VINA RESULT:       8.0      1.519      5.383
REMARK  Name = 25389601
REMARK  12 active torsions:
REMARK  status: ('A' for Active; 'I' for Inactive)
REMARK    1  A    between atoms: O_1  and  C_16
REMARK    2  A    between atoms: O_1  and  C_21
REMARK    3  A    between atoms: O_3  and  C_22
REMARK    4  A    between atoms: O_3  and  C_30
REMARK    5  A    between atoms: N_5  and  C_19
REMARK    6  A    between atoms: N_7  and  C_26
REMARK    7  A    between atoms: C_9  and  C_15
REMARK    8  A    between atoms: C_10  and  C_16
REMARK    9  A    between atoms: C_18  and  C_20
REMARK   10  A    between atoms: C_31  and  C_34
REMARK   11  A    between atoms: C_34  and  C_35
REMARK   12  A    between atoms: C_34  and  C_36
REMARK                            x       y       z     vdW  Elec       q    Type
REMARK                         _______ _______ _______ _____ _____    ______ ____
ROOT
ATOM      4  N   UNL     1      -2.855   4.890  26.384  0.00  0.00    -0.296 NA
ATOM      8  C   UNL     1      -4.883   4.224  24.892  0.00  0.00    +0.002 C 
ATOM      9  C   UNL     1      -4.513   3.062  25.855  0.00  0.00    +0.055 C 
ATOM     10  C   UNL     1      -2.550   5.170  24.956  0.00  0.00    +0.095 C 
ATOM     11  C   UNL     1      -3.651   4.594  24.040  0.00  0.00    +0.026 C 
ATOM     12  C   UNL     1      -5.209   5.448  25.775  0.00  0.00    +0.019 C 
ATOM     13  C   UNL     1      -3.183   3.453  26.561  0.00  0.00    +0.094 C 
ATOM     14  C   UNL     1      -4.049   5.686  26.758  0.00  0.00    +0.085 C 
ENDROOT
BRANCH   9  15
ATOM      5  N   UNL     1      -5.572   1.025  24.773  0.00  0.00    -0.270 N 
ATOM      6  N   UNL     1      -5.330  -0.220  24.332  0.00  0.00    -0.171 NA
ATOM     15  C   UNL     1      -4.475   1.649  25.294  0.00  0.00    +0.044 A 
ATOM     17  C   UNL     1      -3.445   0.747  25.187  0.00  0.00    +0.053 A 
ATOM     18  C   UNL     1      -4.029  -0.385  24.587  0.00  0.00    +0.096 A 
ATOM     19  C   UNL     1      -6.907   1.566  24.664  0.00  0.00    +0.172 C 
BRANCH  18  20
ATOM     20  C   UNL     1      -3.369  -1.620  24.254  0.00  0.00    +0.044 A 
ATOM     22  C   UNL     1      -1.992  -1.766  24.427  0.00  0.00    +0.129 A 
ATOM     23  C   UNL     1      -4.124  -2.679  23.752  0.00  0.00    +0.014 A 
ATOM     24  C   UNL     1      -1.372  -2.971  24.099  0.00  0.00    +0.046 A 
ATOM     25  C   UNL     1      -3.503  -3.885  23.423  0.00  0.00    +0.001 A 
ATOM     27  C   UNL     1      -2.128  -4.031  23.596  0.00  0.00    +0.004 A 
BRANCH  22   3
ATOM      3  O   UNL     1      -1.229  -0.748  24.917  0.00  0.00    -0.494 OA
ATOM     30  C   UNL     1      -0.748  -0.883  26.252  0.00  0.00    +0.277 C 
ENDBRANCH  22   3
ENDBRANCH  18  20
ENDBRANCH   9  15
BRANCH  10  16
ATOM     16  C   UNL     1      -1.158   4.681  24.551  0.00  0.00    +0.252 C 
BRANCH  16   1
ATOM      1  O   UNL     1      -1.219   3.283  24.340  0.00  0.00    -0.449 OA
BRANCH   1  21
ATOM      2  O   UNL     1       0.283   2.384  25.811  0.00  0.00    -0.226 OA
ATOM      7  N   UNL     1       0.498   2.097  23.498  0.00  0.00    -0.251 N 
ATOM     21  C   UNL     1      -0.091   2.559  24.658  0.00  0.00    +0.405 C 
ATOM     37  H   UNL     1       0.036   2.347  22.627  0.00  0.00    +0.158 HD
BRANCH   7  26
ATOM     26  C   UNL     1       1.669   1.316  23.368  0.00  0.00    +0.036 A 
ATOM     28  C   UNL     1       2.900   1.934  23.151  0.00  0.00    +0.024 A 
ATOM     29  C   UNL     1       1.593  -0.075  23.456  0.00  0.00    +0.024 A 
ATOM     31  C   UNL     1       3.980  -0.226  23.111  0.00  0.00    -0.045 A 
ATOM     32  C   UNL     1       4.056   1.163  23.022  0.00  0.00    +0.006 A 
ATOM     33  C   UNL     1       2.748  -0.845  23.327  0.00  0.00    +0.006 A 
BRANCH  31  34
ATOM     34  C   UNL     1       5.214  -1.051  22.973  0.00  0.00    +0.013 C 
ATOM     35  C   UNL     1       5.227  -2.256  23.933  0.00  0.00    +0.012 C 
ATOM     36  C   UNL     1       6.500  -0.224  23.156  0.00  0.00    +0.012 C 
ENDBRANCH  31  34
ENDBRANCH   7  26
ENDBRANCH   1  21
ENDBRANCH  16   1
ENDBRANCH  10  16
TORSDOF 8
ENDMDL
MODEL 3
REMARK VINA RESULT:       9.6      1.564      5.288
REMARK  Name = 25389601
REMARK  12 active torsions:
REMARK  status: ('A' for Active; 'I' for Inactive)
REMARK    1  A    between atoms: O_1  and  C_16
REMARK    2  A    between atoms: O_1  and  C_21
REMARK    3  A    between atoms: O_3  and  C_22
REMARK    4  A    between atoms: O_3  and  C_30
REMARK    5  A    between atoms: N_5  and  C_19
REMARK    6  A    between atoms: N_7  and  C_26
REMARK    7  A    between atoms: C_9  and  C_15
REMARK    8  A    between atoms: C_10  and  C_16
REMARK    9  A    between atoms: C_18  and  C_20
REMARK   10  A    between atoms: C_31  and  C_34
REMARK   11  A    between atoms: C_34  and  C_35
REMARK   12  A    between atoms: C_34  and  C_36
REMARK                            x       y       z     vdW  Elec       q    Type
REMARK                         _______ _______ _______ _____ _____    ______ ____
ROOT
ATOM      4  N   UNL     1      -1.048   4.619  25.506  0.00  0.00    -0.296 NA
ATOM      8  C   UNL     1      -2.925   4.242  23.740  0.00  0.00    +0.002 C 
ATOM      9  C   UNL     1      -3.270   3.507  25.064  0.00  0.00    +0.055 C 
ATOM     10  C   UNL     1      -0.452   4.176  24.217  0.00  0.00    +0.095 C 
ATOM     11  C   UNL     1      -1.556   3.750  23.225  0.00  0.00    +0.026 C 
ATOM     12  C   UNL     1      -2.769   5.738  24.087  0.00  0.00    +0.019 C 
ATOM     13  C   UNL     1      -2.023   3.609  25.989  0.00  0.00    +0.094 C 
ATOM     14  C   UNL     1      -1.779   5.885  25.257  0.00  0.00    +0.085 C 
ENDROOT
BRANCH   9  15
ATOM      5  N   UNL     1      -5.089   1.756  25.323  0.00  0.00    -0.270 N 
ATOM      6  N   UNL     1      -5.370   0.451  25.177  0.00  0.00    -0.171 NA
ATOM     15  C   UNL     1      -3.810   2.087  24.979  0.00  0.00    +0.044 A 
ATOM     17  C   UNL     1      -3.214   0.915  24.583  0.00  0.00    +0.053 A 
ATOM     18  C   UNL     1      -4.220  -0.058  24.724  0.00  0.00    +0.096 A 
ATOM     19  C   UNL     1      -6.116   2.649  25.808  0.00  0.00    +0.172 C 
BRANCH  18  20
ATOM     20  C   UNL     1      -4.105  -1.464  24.438  0.00  0.00    +0.044 A 
ATOM     22  C   UNL     1      -3.112  -2.238  25.039  0.00  0.00    +0.129 A 
ATOM     23  C   UNL     1      -5.002  -2.051  23.547  0.00  0.00    +0.014 A 
ATOM     24  C   UNL     1      -3.017  -3.599  24.748  0.00  0.00    +0.046 A 
ATOM     25  C   UNL     1      -4.907  -3.413  23.255  0.00  0.00    +0.001 A 
ATOM     27  C   UNL     1      -3.915  -4.186  23.856  0.00  0.00    +0.004 A 
BRANCH  22   3
ATOM      3  O   UNL     1      -2.221  -1.691  25.914  0.00  0.00    -0.494 OA
ATOM     30  C   UNL     1      -0.861  -1.617  25.493  0.00  0.00    +0.277 C 
ENDBRANCH  22   3
ENDBRANCH  18  20
ENDBRANCH   9  15
BRANCH  10  16
ATOM     16  C   UNL     1       0.598   3.080  24.407  0.00  0.00    +0.252 C 
BRANCH  16   1
ATOM      1  O   UNL     1       0.245   1.978  23.595  0.00  0.00    -0.449 OA
BRANCH   1  21
ATOM      2  O   UNL     1       0.924  -0.177  23.237  0.00  0.00    -0.226 OA
ATOM      7  N   UNL     1       2.458   1.571  23.511  0.00  0.00    -0.251 N 
ATOM     21  C   UNL     1       1.202   1.001  23.428  0.00  0.00    +0.405 C 
ATOM     37  H   UNL     1       2.486   2.575  23.675  0.00  0.00    +0.158 HD
BRANCH   7  26
ATOM     26  C   UNL     1       3.713   0.932  23.396  0.00  0.00    +0.036 A 
ATOM     28  C   UNL     1       4.536   0.806  24.515  0.00  0.00    +0.024 A 
ATOM     29  C   UNL     1       4.129   0.428  22.164  0.00  0.00    +0.024 A 
ATOM     31  C   UNL     1       6.192  -0.328  23.170  0.00  0.00    -0.045 A 
ATOM     32  C   UNL     1       5.776   0.176  24.402  0.00  0.00    +0.006 A 
ATOM     33  C   UNL     1       5.368  -0.202  22.051  0.00  0.00    +0.006 A 
BRANCH  31  34
ATOM     34  C   UNL     1       7.516  -1.002  23.047  0.00  0.00    +0.013 C 
ATOM     35  C   UNL     1       8.690  -0.004  23.085  0.00  0.00    +0.012 C 
ATOM     36  C   UNL     1       7.617  -1.881  21.787  0.00  0.00    +0.012 C 
ENDBRANCH  31  34
ENDBRANCH   7  26
ENDBRANCH   1  21
ENDBRANCH  16   1
ENDBRANCH  10  16
TORSDOF 8
ENDMDL
MODEL 4
REMARK VINA RESULT:       9.8      2.201      7.591
REMARK  Name = 25389601
REMARK  12 active torsions:
REMARK  status: ('A' for Active; 'I' for Inactive)
REMARK    1  A    between atoms: O_1  and  C_16
REMARK    2  A    between atoms: O_1  and  C_21
REMARK    3  A    between atoms: O_3  and  C_22
REMARK    4  A    between atoms: O_3  and  C_30
REMARK    5  A    between atoms: N_5  and  C_19
REMARK    6  A    between atoms: N_7  and  C_26
REMARK    7  A    between atoms: C_9  and  C_15
REMARK    8  A    between atoms: C_10  and  C_16
REMARK    9  A    between atoms: C_18  and  C_20
REMARK   10  A    between atoms: C_31  and  C_34
REMARK   11  A    between atoms: C_34  and  C_35
REMARK   12  A    between atoms: C_34  and  C_36
REMARK                            x       y       z     vdW  Elec       q    Type
REMARK                         _______ _______ _______ _____ _____    ______ ____
ROOT
ATOM      4  N   UNL     1      -3.932   5.234  24.738  0.00  0.00    -0.296 NA
ATOM      8  C   UNL     1      -1.370   4.872  25.029  0.00  0.00    +0.002 C 
ATOM      9  C   UNL     1      -1.903   4.040  23.831  0.00  0.00    +0.055 C 
ATOM     10  C   UNL     1      -3.623   4.903  26.155  0.00  0.00    +0.095 C 
ATOM     11  C   UNL     1      -2.145   4.484  26.306  0.00  0.00    +0.026 C 
ATOM     12  C   UNL     1      -1.701   6.350  24.728  0.00  0.00    +0.019 C 
ATOM     13  C   UNL     1      -3.455   4.148  23.847  0.00  0.00    +0.094 C 
ATOM     14  C   UNL     1      -3.197   6.474  24.391  0.00  0.00    +0.085 C 
ENDROOT
BRANCH   9  15
ATOM      5  N   UNL     1      -1.851   1.776  22.686  0.00  0.00    -0.270 N 
ATOM      6  N   UNL     1      -1.313   0.546  22.732  0.00  0.00    -0.171 NA
ATOM     15  C   UNL     1      -1.426   2.603  23.685  0.00  0.00    +0.044 A 
ATOM     17  C   UNL     1      -0.549   1.860  24.438  0.00  0.00    +0.053 A 
ATOM     18  C   UNL     1      -0.518   0.604  23.805  0.00  0.00    +0.096 A 
ATOM     19  C   UNL     1      -2.788   2.097  21.633  0.00  0.00    +0.172 C 
BRANCH  18  20
ATOM     20  C   UNL     1       0.255  -0.543  24.205  0.00  0.00    +0.044 A 
ATOM     22  C   UNL     1       1.512  -0.788  23.653  0.00  0.00    +0.129 A 
ATOM     23  C   UNL     1      -0.270  -1.415  25.158  0.00  0.00    +0.014 A 
ATOM     24  C   UNL     1       2.245  -1.905  24.054  0.00  0.00    +0.046 A 
ATOM     25  C   UNL     1       0.463  -2.533  25.560  0.00  0.00    +0.001 A 
ATOM     27  C   UNL     1       1.720  -2.778  25.008  0.00  0.00    +0.004 A 
BRANCH  22   3
ATOM      3  O   UNL     1       2.050   0.048  22.720  0.00  0.00    -0.494 OA
ATOM     30  C   UNL     1       3.413   0.428  22.900  0.00  0.00    +0.277 C 
ENDBRANCH  22   3
ENDBRANCH  18  20
ENDBRANCH   9  15
BRANCH  10  16
ATOM     16  C   UNL     1      -4.576   3.853  26.729  0.00  0.00    +0.252 C 
BRANCH  16   1
ATOM      1  O   UNL     1      -5.620   3.640  25.799  0.00  0.00    -0.449 OA
BRANCH   1  21
ATOM      2  O   UNL     1      -6.747   1.976  24.708  0.00  0.00    -0.226 OA
ATOM      7  N   UNL     1      -4.573   1.667  25.521  0.00  0.00    -0.251 N 
ATOM     21  C   UNL     1      -5.739   2.369  25.282  0.00  0.00    +0.405 C 
ATOM     37  H   UNL     1      -3.839   2.168  26.018  0.00  0.00    +0.158 HD
BRANCH   7  26
ATOM     26  C   UNL     1      -4.270   0.335  25.161  0.00  0.00    +0.036 A 
ATOM     28  C   UNL     1      -4.592  -0.133  23.886  0.00  0.00    +0.024 A 
ATOM     29  C   UNL     1      -3.650  -0.513  26.079  0.00  0.00    +0.024 A 
ATOM     31  C   UNL     1      -3.673  -2.296  24.448  0.00  0.00    -0.045 A 
ATOM     32  C   UNL     1      -4.294  -1.449  23.530  0.00  0.00    +0.006 A 
ATOM     33  C   UNL     1      -3.352  -1.828  25.722  0.00  0.00    +0.006 A 
BRANCH  31  34
ATOM     34  C   UNL     1      -3.354  -3.702  24.068  0.00  0.00    +0.013 C 
ATOM     35  C   UNL     1      -1.953  -3.839  23.441  0.00  0.00    +0.012 C 
ATOM     36  C   UNL     1      -4.409  -4.314  23.128  0.00  0.00    +0.012 C 
ENDBRANCH  31  34
ENDBRANCH   7  26
ENDBRANCH   1  21
ENDBRANCH  16   1
ENDBRANCH  10  16
TORSDOF 8
ENDMDL
MODEL 5
REMARK VINA RESULT:      10.1      2.120      7.545
REMARK  Name = 25389601
REMARK  12 active torsions:
REMARK  status: ('A' for Active; 'I' for Inactive)
REMARK    1  A    between atoms: O_1  and  C_16
REMARK    2  A    between atoms: O_1  and  C_21
REMARK    3  A    between atoms: O_3  and  C_22
REMARK    4  A    between atoms: O_3  and  C_30
REMARK    5  A    between atoms: N_5  and  C_19
REMARK    6  A    between atoms: N_7  and  C_26
REMARK    7  A    between atoms: C_9  and  C_15
REMARK    8  A    between atoms: C_10  and  C_16
REMARK    9  A    between atoms: C_18  and  C_20
REMARK   10  A    between atoms: C_31  and  C_34
REMARK   11  A    between atoms: C_34  and  C_35
REMARK   12  A    between atoms: C_34  and  C_36
REMARK                            x       y       z     vdW  Elec       q    Type
REMARK                         _______ _______ _______ _____ _____    ______ ____
ROOT
ATOM      4  N   UNL     1      -4.296   4.473  24.301  0.00  0.00    -0.296 NA
ATOM      8  C   UNL     1      -1.909   5.489  24.532  0.00  0.00    +0.002 C 
ATOM      9  C   UNL     1      -1.865   4.187  23.685  0.00  0.00    +0.055 C 
ATOM     10  C   UNL     1      -4.007   4.774  25.728  0.00  0.00    +0.095 C 
ATOM     11  C   UNL     1      -2.528   5.181  25.911  0.00  0.00    +0.026 C 
ATOM     12  C   UNL     1      -2.868   6.459  23.809  0.00  0.00    +0.019 C 
ATOM     13  C   UNL     1      -3.277   3.538  23.762  0.00  0.00    +0.094 C 
ATOM     14  C   UNL     1      -4.204   5.743  23.542  0.00  0.00    +0.085 C 
ENDROOT
BRANCH   9  15
ATOM      5  N   UNL     1      -0.464   2.724  25.213  0.00  0.00    -0.270 N 
ATOM      6  N   UNL     1       0.553   1.847  25.246  0.00  0.00    -0.171 NA
ATOM     15  C   UNL     1      -0.754   3.186  23.962  0.00  0.00    +0.044 A 
ATOM     17  C   UNL     1       0.137   2.568  23.118  0.00  0.00    +0.053 A 
ATOM     18  C   UNL     1       0.916   1.755  23.963  0.00  0.00    +0.096 A 
ATOM     19  C   UNL     1      -1.126   3.083  26.446  0.00  0.00    +0.172 C 
BRANCH  18  20
ATOM     20  C   UNL     1       2.001   0.895  23.569  0.00  0.00    +0.044 A 
ATOM     22  C   UNL     1       1.784  -0.460  23.314  0.00  0.00    +0.129 A 
ATOM     23  C   UNL     1       3.281   1.431  23.444  0.00  0.00    +0.014 A 
ATOM     24  C   UNL     1       2.849  -1.277  22.935  0.00  0.00    +0.046 A 
ATOM     25  C   UNL     1       4.347   0.614  23.064  0.00  0.00    +0.001 A 
ATOM     27  C   UNL     1       4.131  -0.740  22.809  0.00  0.00    +0.004 A 
BRANCH  22   3
ATOM      3  O   UNL     1       0.542  -1.012  23.428  0.00  0.00    -0.494 OA
ATOM     30  C   UNL     1       0.099  -1.343  24.742  0.00  0.00    +0.277 C 
ENDBRANCH  22   3
ENDBRANCH  18  20
ENDBRANCH   9  15
BRANCH  10  16
ATOM     16  C   UNL     1      -4.401   3.623  26.657  0.00  0.00    +0.252 C 
BRANCH  16   1
ATOM      1  O   UNL     1      -5.686   3.167  26.282  0.00  0.00    -0.449 OA
BRANCH   1  21
ATOM      2  O   UNL     1      -6.740   1.569  25.032  0.00  0.00    -0.226 OA
ATOM      7  N   UNL     1      -4.547   1.286  25.801  0.00  0.00    -0.251 N 
ATOM     21  C   UNL     1      -5.748   1.951  25.639  0.00  0.00    +0.405 C 
ATOM     37  H   UNL     1      -3.835   1.769  26.344  0.00  0.00    +0.158 HD
BRANCH   7  26
ATOM     26  C   UNL     1      -4.183   0.014  25.306  0.00  0.00    +0.036 A 
ATOM     28  C   UNL     1      -3.624  -0.935  26.162  0.00  0.00    +0.024 A 
ATOM     29  C   UNL     1      -4.384  -0.295  23.960  0.00  0.00    +0.024 A 
ATOM     31  C   UNL     1      -3.464  -2.498  24.328  0.00  0.00    -0.045 A 
ATOM     32  C   UNL     1      -3.263  -2.191  25.673  0.00  0.00    +0.006 A 
ATOM     33  C   UNL     1      -4.023  -1.550  23.472  0.00  0.00    +0.006 A 
BRANCH  31  34
ATOM     34  C   UNL     1      -3.079  -3.841  23.805  0.00  0.00    +0.013 C 
ATOM     35  C   UNL     1      -1.663  -3.853  23.197  0.00  0.00    +0.012 C 
ATOM     36  C   UNL     1      -4.092  -4.387  22.781  0.00  0.00    +0.012 C 
ENDBRANCH  31  34
ENDBRANCH   7  26
ENDBRANCH   1  21
ENDBRANCH  16   1
ENDBRANCH  10  16
TORSDOF 8
ENDMDL
MODEL 6
REMARK VINA RESULT:      10.1      2.178      6.140
REMARK  Name = 25389601
REMARK  12 active torsions:
REMARK  status: ('A' for Active; 'I' for Inactive)
REMARK    1  A    between atoms: O_1  and  C_16
REMARK    2  A    between atoms: O_1  and  C_21
REMARK    3  A    between atoms: O_3  and  C_22
REMARK    4  A    between atoms: O_3  and  C_30
REMARK    5  A    between atoms: N_5  and  C_19
REMARK    6  A    between atoms: N_7  and  C_26
REMARK    7  A    between atoms: C_9  and  C_15
REMARK    8  A    between atoms: C_10  and  C_16
REMARK    9  A    between atoms: C_18  and  C_20
REMARK   10  A    between atoms: C_31  and  C_34
REMARK   11  A    between atoms: C_34  and  C_35
REMARK   12  A    between atoms: C_34  and  C_36
REMARK                            x       y       z     vdW  Elec       q    Type
REMARK                         _______ _______ _______ _____ _____    ______ ____
ROOT
ATOM      4  N   UNL     1      -4.267   1.381  24.964  0.00  0.00    -0.296 NA
ATOM      8  C   UNL     1      -3.526  -0.636  23.493  0.00  0.00    +0.002 C 
ATOM      9  C   UNL     1      -2.543  -0.439  24.680  0.00  0.00    +0.055 C 
ATOM     10  C   UNL     1      -4.233   1.781  23.532  0.00  0.00    +0.095 C 
ATOM     11  C   UNL     1      -3.600   0.667  22.670  0.00  0.00    +0.026 C 
ATOM     12  C   UNL     1      -4.924  -0.867  24.105  0.00  0.00    +0.019 C 
ATOM     13  C   UNL     1      -2.932   0.891  25.386  0.00  0.00    +0.094 C 
ATOM     14  C   UNL     1      -5.234   0.265  25.100  0.00  0.00    +0.085 C 
ENDROOT
BRANCH   9  15
ATOM      5  N   UNL     1      -0.310  -1.645  24.662  0.00  0.00    -0.270 N 
ATOM      6  N   UNL     1       0.989  -1.523  24.344  0.00  0.00    -0.171 NA
ATOM     15  C   UNL     1      -1.050  -0.529  24.400  0.00  0.00    +0.044 A 
ATOM     17  C   UNL     1      -0.172   0.388  23.875  0.00  0.00    +0.053 A 
ATOM     18  C   UNL     1       1.067  -0.279  23.863  0.00  0.00    +0.096 A 
ATOM     19  C   UNL     1      -0.785  -2.888  25.227  0.00  0.00    +0.172 C 
BRANCH  18  20
ATOM     20  C   UNL     1       2.325   0.250  23.404  0.00  0.00    +0.044 A 
ATOM     22  C   UNL     1       3.489  -0.516  23.467  0.00  0.00    +0.129 A 
ATOM     23  C   UNL     1       2.370   1.547  22.894  0.00  0.00    +0.014 A 
ATOM     24  C   UNL     1       4.699   0.015  23.017  0.00  0.00    +0.046 A 
ATOM     25  C   UNL     1       3.580   2.078  22.444  0.00  0.00    +0.001 A 
ATOM     27  C   UNL     1       4.744   1.312  22.506  0.00  0.00    +0.004 A 
BRANCH  22   3
ATOM      3  O   UNL     1       3.475  -1.787  23.961  0.00  0.00    -0.494 OA
ATOM     30  C   UNL     1       4.706  -2.505  23.935  0.00  0.00    +0.277 C 
ENDBRANCH  22   3
ENDBRANCH  18  20
ENDBRANCH   9  15
BRANCH  10  16
ATOM     16  C   UNL     1      -3.540   3.129  23.320  0.00  0.00    +0.252 C 
BRANCH  16   1
ATOM      1  O   UNL     1      -3.948   4.008  24.351  0.00  0.00    -0.449 OA
BRANCH   1  21
ATOM      2  O   UNL     1      -3.710   4.324  26.603  0.00  0.00    -0.226 OA
ATOM      7  N   UNL     1      -2.012   3.370  25.306  0.00  0.00    -0.251 N 
ATOM     21  C   UNL     1      -3.251   3.934  25.537  0.00  0.00    +0.405 C 
ATOM     37  H   UNL     1      -1.809   3.106  24.344  0.00  0.00    +0.158 HD
BRANCH   7  26
ATOM     26  C   UNL     1      -0.985   3.110  26.241  0.00  0.00    +0.036 A 
ATOM     28  C   UNL     1      -1.272   3.098  27.606  0.00  0.00    +0.024 A 
ATOM     29  C   UNL     1       0.316   2.865  25.801  0.00  0.00    +0.024 A 
ATOM     31  C   UNL     1       1.041   2.598  28.090  0.00  0.00    -0.045 A 
ATOM     32  C   UNL     1      -0.259   2.843  28.531  0.00  0.00    +0.006 A 
ATOM     33  C   UNL     1       1.328   2.610  26.725  0.00  0.00    +0.006 A 
BRANCH  31  34
ATOM     34  C   UNL     1       2.125   2.324  29.077  0.00  0.00    +0.013 C 
ATOM     35  C   UNL     1       1.580   2.082  30.498  0.00  0.00    +0.012 C 
ATOM     36  C   UNL     1       3.189   3.437  29.108  0.00  0.00    +0.012 C 
ENDBRANCH  31  34
ENDBRANCH   7  26
ENDBRANCH   1  21
ENDBRANCH  16   1
ENDBRANCH  10  16
TORSDOF 8
ENDMDL
MODEL 7
REMARK VINA RESULT:      10.2      0.925      1.476
REMARK  Name = 25389601
REMARK  12 active torsions:
REMARK  status: ('A' for Active; 'I' for Inactive)
REMARK    1  A    between atoms: O_1  and  C_16
REMARK    2  A    between atoms: O_1  and  C_21
REMARK    3  A    between atoms: O_3  and  C_22
REMARK    4  A    between atoms: O_3  and  C_30
REMARK    5  A    between atoms: N_5  and  C_19
REMARK    6  A    between atoms: N_7  and  C_26
REMARK    7  A    between atoms: C_9  and  C_15
REMARK    8  A    between atoms: C_10  and  C_16
REMARK    9  A    between atoms: C_18  and  C_20
REMARK   10  A    between atoms: C_31  and  C_34
REMARK   11  A    between atoms: C_34  and  C_35
REMARK   12  A    between atoms: C_34  and  C_36
REMARK                            x       y       z     vdW  Elec       q    Type
REMARK                         _______ _______ _______ _____ _____    ______ ____
ROOT
ATOM      4  N   UNL     1      -3.100  -2.894  23.818  0.00  0.00    -0.296 NA
ATOM      8  C   UNL     1      -2.951  -1.612  26.080  0.00  0.00    +0.002 C 
ATOM      9  C   UNL     1      -3.838  -0.831  25.071  0.00  0.00    +0.055 C 
ATOM     10  C   UNL     1      -1.680  -2.769  24.239  0.00  0.00    +0.095 C 
ATOM     11  C   UNL     1      -1.554  -1.838  25.464  0.00  0.00    +0.026 C 
ATOM     12  C   UNL     1      -3.599  -3.002  26.261  0.00  0.00    +0.019 C 
ATOM     13  C   UNL     1      -3.714  -1.549  23.696  0.00  0.00    +0.094 C 
ATOM     14  C   UNL     1      -3.824  -3.638  24.877  0.00  0.00    +0.085 C 
ENDROOT
BRANCH   9  15
ATOM      5  N   UNL     1      -4.683   1.554  24.883  0.00  0.00    -0.270 N 
ATOM      6  N   UNL     1      -4.301   2.838  24.786  0.00  0.00    -0.171 NA
ATOM     15  C   UNL     1      -3.644   0.673  24.956  0.00  0.00    +0.044 A 
ATOM     17  C   UNL     1      -2.502   1.435  24.901  0.00  0.00    +0.053 A 
ATOM     18  C   UNL     1      -2.967   2.759  24.798  0.00  0.00    +0.096 A 
ATOM     19  C   UNL     1      -6.093   1.236  24.899  0.00  0.00    +0.172 C 
BRANCH  18  20
ATOM     20  C   UNL     1      -2.163   3.950  24.708  0.00  0.00    +0.044 A 
ATOM     22  C   UNL     1      -2.498   5.096  25.430  0.00  0.00    +0.129 A 
ATOM     23  C   UNL     1      -1.038   3.949  23.885  0.00  0.00    +0.014 A 
ATOM     24  C   UNL     1      -1.707   6.240  25.329  0.00  0.00    +0.046 A 
ATOM     25  C   UNL     1      -0.246   5.094  23.784  0.00  0.00    +0.001 A 
ATOM     27  C   UNL     1      -0.580   6.239  24.506  0.00  0.00    +0.004 A 
BRANCH  22   3
ATOM      3  O   UNL     1      -3.593   5.126  26.243  0.00  0.00    -0.494 OA
ATOM     30  C   UNL     1      -3.572   4.276  27.388  0.00  0.00    +0.277 C 
ENDBRANCH  22   3
ENDBRANCH  18  20
ENDBRANCH   9  15
BRANCH  10  16
ATOM     16  C   UNL     1      -0.769  -2.329  23.092  0.00  0.00    +0.252 C 
BRANCH  16   1
ATOM      1  O   UNL     1      -0.741  -0.915  23.062  0.00  0.00    -0.449 OA
BRANCH   1  21
ATOM      2  O   UNL     1       0.401   0.666  24.256  0.00  0.00    -0.226 OA
ATOM      7  N   UNL     1       1.509  -0.973  23.005  0.00  0.00    -0.251 N 
ATOM     21  C   UNL     1       0.410  -0.309  23.515  0.00  0.00    +0.405 C 
ATOM     37  H   UNL     1       1.314  -1.769  22.401  0.00  0.00    +0.158 HD
BRANCH   7  26
ATOM     26  C   UNL     1       2.876  -0.685  23.217  0.00  0.00    +0.036 A 
ATOM     28  C   UNL     1       3.692  -1.613  23.864  0.00  0.00    +0.024 A 
ATOM     29  C   UNL     1       3.410   0.527  22.780  0.00  0.00    +0.024 A 
ATOM     31  C   UNL     1       5.575  -0.117  23.637  0.00  0.00    -0.045 A 
ATOM     32  C   UNL     1       5.042  -1.329  24.074  0.00  0.00    +0.006 A 
ATOM     33  C   UNL     1       4.759   0.811  22.990  0.00  0.00    +0.006 A 
BRANCH  31  34
ATOM     34  C   UNL     1       7.017   0.187  23.861  0.00  0.00    +0.013 C 
ATOM     35  C   UNL     1       7.285   1.698  24.003  0.00  0.00    +0.012 C 
ATOM     36  C   UNL     1       7.923  -0.403  22.763  0.00  0.00    +0.012 C 
ENDBRANCH  31  34
ENDBRANCH   7  26
ENDBRANCH   1  21
ENDBRANCH  16   1
ENDBRANCH  10  16
TORSDOF 8
ENDMDL
MODEL 8
REMARK VINA RESULT:      10.6      2.272      5.944
REMARK  Name = 25389601
REMARK  12 active torsions:
REMARK  status: ('A' for Active; 'I' for Inactive)
REMARK    1  A    between atoms: O_1  and  C_16
REMARK    2  A    between atoms: O_1  and  C_21
REMARK    3  A    between atoms: O_3  and  C_22
REMARK    4  A    between atoms: O_3  and  C_30
REMARK    5  A    between atoms: N_5  and  C_19
REMARK    6  A    between atoms: N_7  and  C_26
REMARK    7  A    between atoms: C_9  and  C_15
REMARK    8  A    between atoms: C_10  and  C_16
REMARK    9  A    between atoms: C_18  and  C_20
REMARK   10  A    between atoms: C_31  and  C_34
REMARK   11  A    between atoms: C_34  and  C_35
REMARK   12  A    between atoms: C_34  and  C_36
REMARK                            x       y       z     vdW  Elec       q    Type
REMARK                         _______ _______ _______ _____ _____    ______ ____
ROOT
ATOM      4  N   UNL     1      -5.743   2.655  26.140  0.00  0.00    -0.296 NA
ATOM      8  C   UNL     1      -5.285   1.363  23.925  0.00  0.00    +0.002 C 
ATOM      9  C   UNL     1      -4.497   0.721  25.101  0.00  0.00    +0.055 C 
ATOM     10  C   UNL     1      -5.372   3.609  25.062  0.00  0.00    +0.095 C 
ATOM     11  C   UNL     1      -4.897   2.851  23.802  0.00  0.00    +0.026 C 
ATOM     12  C   UNL     1      -6.780   1.313  24.310  0.00  0.00    +0.019 C 
ATOM     13  C   UNL     1      -4.659   1.659  26.332  0.00  0.00    +0.094 C 
ATOM     14  C   UNL     1      -6.963   1.932  25.707  0.00  0.00    +0.085 C 
ENDROOT
BRANCH   9  15
ATOM      5  N   UNL     1      -2.498  -0.820  25.362  0.00  0.00    -0.270 N 
ATOM      6  N   UNL     1      -1.205  -0.986  25.041  0.00  0.00    -0.171 NA
ATOM     15  C   UNL     1      -3.048   0.326  24.863  0.00  0.00    +0.044 A 
ATOM     17  C   UNL     1      -2.042   0.952  24.168  0.00  0.00    +0.053 A 
ATOM     18  C   UNL     1      -0.932   0.099  24.311  0.00  0.00    +0.096 A 
ATOM     19  C   UNL     1      -3.159  -1.819  26.169  0.00  0.00    +0.172 C 
BRANCH  18  20
ATOM     20  C   UNL     1       0.386   0.302  23.766  0.00  0.00    +0.044 A 
ATOM     22  C   UNL     1       0.913   1.586  23.627  0.00  0.00    +0.129 A 
ATOM     23  C   UNL     1       1.135  -0.806  23.374  0.00  0.00    +0.014 A 
ATOM     24  C   UNL     1       2.191   1.761  23.097  0.00  0.00    +0.046 A 
ATOM     25  C   UNL     1       2.414  -0.631  22.843  0.00  0.00    +0.001 A 
ATOM     27  C   UNL     1       2.942   0.653  22.704  0.00  0.00    +0.004 A 
BRANCH  22   3
ATOM      3  O   UNL     1       0.202   2.687  24.003  0.00  0.00    -0.494 OA
ATOM     30  C   UNL     1       0.139   3.766  23.072  0.00  0.00    +0.277 C 
ENDBRANCH  22   3
ENDBRANCH  18  20
ENDBRANCH   9  15
BRANCH  10  16
ATOM     16  C   UNL     1      -4.343   4.642  25.527  0.00  0.00    +0.252 C 
BRANCH  16   1
ATOM      1  O   UNL     1      -3.204   4.544  24.694  0.00  0.00    -0.449 OA
BRANCH   1  21
ATOM      2  O   UNL     1      -1.130   5.416  25.101  0.00  0.00    -0.226 OA
ATOM      7  N   UNL     1      -1.893   3.488  26.187  0.00  0.00    -0.251 N 
ATOM     21  C   UNL     1      -1.977   4.559  25.319  0.00  0.00    +0.405 C 
ATOM     37  H   UNL     1      -2.708   2.879  26.232  0.00  0.00    +0.158 HD
BRANCH   7  26
ATOM     26  C   UNL     1      -0.813   3.129  27.025  0.00  0.00    +0.036 A 
ATOM     28  C   UNL     1      -0.997   3.054  28.406  0.00  0.00    +0.024 A 
ATOM     29  C   UNL     1       0.437   2.851  26.472  0.00  0.00    +0.024 A 
ATOM     31  C   UNL     1       1.318   2.422  28.681  0.00  0.00    -0.045 A 
ATOM     32  C   UNL     1       0.069   2.701  29.234  0.00  0.00    +0.006 A 
ATOM     33  C   UNL     1       1.502   2.497  27.300  0.00  0.00    +0.006 A 
BRANCH  31  34
ATOM     34  C   UNL     1       2.458   2.044  29.565  0.00  0.00    +0.013 C 
ATOM     35  C   UNL     1       2.037   1.900  31.040  0.00  0.00    +0.012 C 
ATOM     36  C   UNL     1       3.642   3.023  29.452  0.00  0.00    +0.012 C 
ENDBRANCH  31  34
ENDBRANCH   7  26
ENDBRANCH   1  21
ENDBRANCH  16   1
ENDBRANCH  10  16
TORSDOF 8
ENDMDL
