MODEL 1
REMARK VINA RESULT:      -4.8      0.000      0.000
REMARK  Name = 38029517
REMARK  11 active torsions:
REMARK  status: ('A' for Active; 'I' for Inactive)
REMARK    1  A    between atoms: O_3  and  C_21
REMARK    2  A    between atoms: O_3  and  C_24
REMARK    3  A    between atoms: N_4  and  C_14
REMARK    4  A    between atoms: C_7  and  C_11
REMARK    5  A    between atoms: C_8  and  C_14
REMARK    6  A    between atoms: C_10  and  C_15
REMARK    7  A    between atoms: C_11  and  C_16
REMARK    8  A    between atoms: C_11  and  C_17
REMARK    9  A    between atoms: C_12  and  C_18
REMARK   10  A    between atoms: C_15  and  C_19
REMARK   11  A    between atoms: C_20  and  C_21
REMARK                            x       y       z     vdW  Elec       q    Type
REMARK                         _______ _______ _______ _____ _____    ______ ____
ROOT
ATOM      7  C   UNL     1      -2.758   2.372  23.876  0.00  0.00    +0.000 C 
ATOM      8  C   UNL     1      -1.510   2.841  24.664  0.00  0.00    +0.032 C 
ATOM      9  C   UNL     1      -3.822   3.480  23.847  0.00  0.00    +0.012 C 
ATOM     10  C   UNL     1      -4.266   3.898  25.261  0.00  0.00    +0.023 C 
ATOM     12  C   UNL     1      -3.083   4.120  26.181  0.00  0.00    -0.073 C 
ATOM     13  C   UNL     1      -1.856   3.652  25.892  0.00  0.00    -0.022 C 
ATOM     18  C   UNL     1      -3.333   4.932  27.422  0.00  0.00    +0.039 C 
ENDROOT
BRANCH   7  11
ATOM     11  C   UNL     1      -2.404   1.956  22.445  0.00  0.00    -0.013 C 
ATOM     16  C   UNL     1      -2.817   0.509  22.194  0.00  0.00    +0.007 C 
ATOM     17  C   UNL     1      -3.067   2.891  21.440  0.00  0.00    +0.007 C 
ENDBRANCH   7  11
BRANCH   8  14
ATOM     14  C   UNL     1      -0.632   1.652  25.070  0.00  0.00    +0.112 C 
BRANCH  14   4
ATOM      2  O   UNL     1      -0.141  -1.107  24.352  0.00  0.00    -0.272 OA
ATOM      4  N   UNL     1       0.120   1.171  23.953  0.00  0.00    -0.312 N 
ATOM     20  C   UNL     1       0.309  -0.183  23.680  0.00  0.00    +0.251 C 
ATOM     33  H   UNL     1       0.490   1.852  23.296  0.00  0.00    +0.149 HD
BRANCH  20  21
ATOM     21  C   UNL     1       1.145  -0.406  22.438  0.00  0.00    +0.324 C 
BRANCH  21   3
ATOM      3  O   UNL     1       2.218   0.510  22.388  0.00  0.00    -0.483 OA
BRANCH   3  24
ATOM     24  C   UNL     1       3.408   0.113  22.950  0.00  0.00    +0.121 A 
ATOM     28  C   UNL     1       4.478   1.006  23.022  0.00  0.00    +0.045 A 
ATOM     29  C   UNL     1       3.547  -1.182  23.447  0.00  0.00    +0.045 A 
ATOM     30  C   UNL     1       5.686   0.603  23.592  0.00  0.00    +0.004 A 
ATOM     31  C   UNL     1       4.755  -1.585  24.017  0.00  0.00    +0.004 A 
ATOM     32  C   UNL     1       5.824  -0.693  24.090  0.00  0.00    +0.000 A 
ENDBRANCH   3  24
ENDBRANCH  21   3
ENDBRANCH  20  21
ENDBRANCH  14   4
ENDBRANCH   8  14
BRANCH  10  15
ATOM     15  C   UNL     1      -5.242   2.876  25.858  0.00  0.00    +0.104 C 
BRANCH  15  19
ATOM      1  O   UNL     1      -5.950   1.360  24.125  0.00  0.00    -0.275 OA
ATOM      5  N   UNL     1      -4.318   0.687  25.675  0.00  0.00    -0.270 N 
ATOM      6  N   UNL     1      -3.085  -1.327  25.962  0.00  0.00    -0.240 NA
ATOM     19  C   UNL     1      -5.233   1.564  25.100  0.00  0.00    +0.219 C 
ATOM     22  C   UNL     1      -4.013  -0.633  25.265  0.00  0.00    +0.125 A 
ATOM     23  C   UNL     1      -4.691  -1.134  24.165  0.00  0.00    +0.044 A 
ATOM     25  C   UNL     1      -4.398  -2.429  23.755  0.00  0.00    +0.005 A 
ATOM     26  C   UNL     1      -2.827  -2.582  25.534  0.00  0.00    +0.113 A 
ATOM     27  C   UNL     1      -3.450  -3.174  24.447  0.00  0.00    +0.020 A 
ATOM     34  H   UNL     1      -3.792   1.002  26.486  0.00  0.00    +0.156 HD
ENDBRANCH  15  19
ENDBRANCH  10  15
TORSDOF 8
ENDMDL
MODEL 2
REMARK VINA RESULT:      -3.8      1.633      7.055
REMARK  Name = 38029517
REMARK  11 active torsions:
REMARK  status: ('A' for Active; 'I' for Inactive)
REMARK    1  A    between atoms: O_3  and  C_21
REMARK    2  A    between atoms: O_3  and  C_24
REMARK    3  A    between atoms: N_4  and  C_14
REMARK    4  A    between atoms: C_7  and  C_11
REMARK    5  A    between atoms: C_8  and  C_14
REMARK    6  A    between atoms: C_10  and  C_15
REMARK    7  A    between atoms: C_11  and  C_16
REMARK    8  A    between atoms: C_11  and  C_17
REMARK    9  A    between atoms: C_12  and  C_18
REMARK   10  A    between atoms: C_15  and  C_19
REMARK   11  A    between atoms: C_20  and  C_21
REMARK                            x       y       z     vdW  Elec       q    Type
REMARK                         _______ _______ _______ _____ _____    ______ ____
ROOT
ATOM      7  C   UNL     1      -2.739  -1.573  24.198  0.00  0.00    +0.000 C 
ATOM      8  C   UNL     1      -3.422  -0.696  25.277  0.00  0.00    +0.032 C 
ATOM      9  C   UNL     1      -1.277  -1.850  24.580  0.00  0.00    +0.012 C 
ATOM     10  C   UNL     1      -0.462  -0.554  24.744  0.00  0.00    +0.023 C 
ATOM     12  C   UNL     1      -1.197   0.472  25.581  0.00  0.00    -0.073 C 
ATOM     13  C   UNL     1      -2.517   0.385  25.820  0.00  0.00    -0.022 C 
ATOM     18  C   UNL     1      -0.371   1.578  26.178  0.00  0.00    +0.039 C 
ENDROOT
BRANCH   7  11
ATOM     11  C   UNL     1      -3.480  -2.897  23.988  0.00  0.00    -0.013 C 
ATOM     16  C   UNL     1      -3.571  -3.670  25.299  0.00  0.00    +0.007 C 
ATOM     17  C   UNL     1      -4.869  -2.642  23.412  0.00  0.00    +0.007 C 
ENDBRANCH   7  11
BRANCH   8  14
ATOM     14  C   UNL     1      -4.710  -0.061  24.738  0.00  0.00    +0.112 C 
BRANCH  14   4
ATOM      2  O   UNL     1      -6.434   1.572  26.391  0.00  0.00    -0.272 OA
ATOM      4  N   UNL     1      -4.674   1.361  24.882  0.00  0.00    -0.312 N 
ATOM     20  C   UNL     1      -5.548   2.072  25.704  0.00  0.00    +0.251 C 
ATOM     33  H   UNL     1      -3.939   1.872  24.402  0.00  0.00    +0.149 HD
BRANCH  20  21
ATOM     21  C   UNL     1      -5.285   3.563  25.666  0.00  0.00    +0.324 C 
BRANCH  21   3
ATOM      3  O   UNL     1      -4.687   3.932  24.442  0.00  0.00    -0.483 OA
BRANCH   3  24
ATOM     24  C   UNL     1      -3.316   4.027  24.416  0.00  0.00    +0.121 A 
ATOM     28  C   UNL     1      -2.662   4.916  25.271  0.00  0.00    +0.045 A 
ATOM     29  C   UNL     1      -2.578   3.236  23.537  0.00  0.00    +0.045 A 
ATOM     30  C   UNL     1      -1.271   5.012  25.245  0.00  0.00    +0.004 A 
ATOM     31  C   UNL     1      -1.187   3.332  23.511  0.00  0.00    +0.004 A 
ATOM     32  C   UNL     1      -0.533   4.220  24.365  0.00  0.00    +0.000 A 
ENDBRANCH   3  24
ENDBRANCH  21   3
ENDBRANCH  20  21
ENDBRANCH  14   4
ENDBRANCH   8  14
BRANCH  10  15
ATOM     15  C   UNL     1      -0.071   0.029  23.380  0.00  0.00    +0.104 C 
BRANCH  15  19
ATOM      1  O   UNL     1       1.679   1.673  23.186  0.00  0.00    -0.275 OA
ATOM      5  N   UNL     1       2.226  -0.586  23.523  0.00  0.00    -0.270 N 
ATOM      6  N   UNL     1       4.295  -1.740  23.738  0.00  0.00    -0.240 NA
ATOM     19  C   UNL     1       1.370   0.497  23.347  0.00  0.00    +0.219 C 
ATOM     22  C   UNL     1       3.641  -0.571  23.554  0.00  0.00    +0.125 A 
ATOM     23  C   UNL     1       4.271   0.653  23.393  0.00  0.00    +0.044 A 
ATOM     25  C   UNL     1       5.660   0.679  23.422  0.00  0.00    +0.005 A 
ATOM     26  C   UNL     1       5.645  -1.676  23.760  0.00  0.00    +0.113 A 
ATOM     27  C   UNL     1       6.368  -0.503  23.609  0.00  0.00    +0.020 A 
ATOM     34  H   UNL     1       1.818  -1.509  23.645  0.00  0.00    +0.156 HD
ENDBRANCH  15  19
ENDBRANCH  10  15
TORSDOF 8
ENDMDL
MODEL 3
REMARK VINA RESULT:      -3.4      1.436      6.799
REMARK  Name = 38029517
REMARK  11 active torsions:
REMARK  status: ('A' for Active; 'I' for Inactive)
REMARK    1  A    between atoms: O_3  and  C_21
REMARK    2  A    between atoms: O_3  and  C_24
REMARK    3  A    between atoms: N_4  and  C_14
REMARK    4  A    between atoms: C_7  and  C_11
REMARK    5  A    between atoms: C_8  and  C_14
REMARK    6  A    between atoms: C_10  and  C_15
REMARK    7  A    between atoms: C_11  and  C_16
REMARK    8  A    between atoms: C_11  and  C_17
REMARK    9  A    between atoms: C_12  and  C_18
REMARK   10  A    between atoms: C_15  and  C_19
REMARK   11  A    between atoms: C_20  and  C_21
REMARK                            x       y       z     vdW  Elec       q    Type
REMARK                         _______ _______ _______ _____ _____    ______ ____
ROOT
ATOM      7  C   UNL     1      -2.021   3.407  24.760  0.00  0.00    +0.000 C 
ATOM      8  C   UNL     1      -3.091   3.893  23.750  0.00  0.00    +0.032 C 
ATOM      9  C   UNL     1      -0.750   2.963  24.021  0.00  0.00    +0.012 C 
ATOM     10  C   UNL     1      -1.025   1.827  23.018  0.00  0.00    +0.023 C 
ATOM     12  C   UNL     1      -2.240   2.116  22.160  0.00  0.00    -0.073 C 
ATOM     13  C   UNL     1      -3.145   3.052  22.496  0.00  0.00    -0.022 C 
ATOM     18  C   UNL     1      -2.368   1.335  20.881  0.00  0.00    +0.039 C 
ENDROOT
BRANCH   7  11
ATOM     11  C   UNL     1      -1.674   4.491  25.785  0.00  0.00    -0.013 C 
ATOM     16  C   UNL     1      -1.374   5.811  25.084  0.00  0.00    +0.007 C 
ATOM     17  C   UNL     1      -2.811   4.656  26.788  0.00  0.00    +0.007 C 
ENDBRANCH   7  11
BRANCH   8  14
ATOM     14  C   UNL     1      -4.481   3.937  24.395  0.00  0.00    +0.112 C 
BRANCH  14   4
ATOM      2  O   UNL     1      -5.818   2.738  26.663  0.00  0.00    -0.272 OA
ATOM      4  N   UNL     1      -5.049   2.626  24.469  0.00  0.00    -0.312 N 
ATOM     20  C   UNL     1      -5.678   2.126  25.609  0.00  0.00    +0.251 C 
ATOM     33  H   UNL     1      -5.040   2.053  23.631  0.00  0.00    +0.149 HD
BRANCH  20  21
ATOM     21  C   UNL     1      -6.187   0.714  25.408  0.00  0.00    +0.324 C 
BRANCH  21   3
ATOM      3  O   UNL     1      -5.522   0.094  24.328  0.00  0.00    -0.483 OA
BRANCH   3  24
ATOM     24  C   UNL     1      -4.550  -0.829  24.635  0.00  0.00    +0.121 A 
ATOM     28  C   UNL     1      -4.338  -1.925  23.798  0.00  0.00    +0.045 A 
ATOM     29  C   UNL     1      -3.776  -0.670  25.784  0.00  0.00    +0.045 A 
ATOM     30  C   UNL     1      -3.352  -2.861  24.110  0.00  0.00    +0.004 A 
ATOM     31  C   UNL     1      -2.790  -1.605  26.096  0.00  0.00    +0.004 A 
ATOM     32  C   UNL     1      -2.578  -2.700  25.259  0.00  0.00    +0.000 A 
ENDBRANCH   3  24
ENDBRANCH  21   3
ENDBRANCH  20  21
ENDBRANCH  14   4
ENDBRANCH   8  14
BRANCH  10  15
ATOM     15  C   UNL     1      -1.167   0.479  23.736  0.00  0.00    +0.104 C 
BRANCH  15  19
ATOM      1  O   UNL     1       0.236  -1.410  24.251  0.00  0.00    -0.275 OA
ATOM      5  N   UNL     1       1.192   0.567  23.418  0.00  0.00    -0.270 N 
ATOM      6  N   UNL     1       3.429   1.201  22.915  0.00  0.00    -0.240 NA
ATOM     19  C   UNL     1       0.153  -0.256  23.842  0.00  0.00    +0.219 C 
ATOM     22  C   UNL     1       2.572   0.256  23.363  0.00  0.00    +0.125 A 
ATOM     23  C   UNL     1       2.959  -1.009  23.776  0.00  0.00    +0.044 A 
ATOM     25  C   UNL     1       4.312  -1.324  23.727  0.00  0.00    +0.005 A 
ATOM     26  C   UNL     1       4.736   0.859  22.881  0.00  0.00    +0.113 A 
ATOM     27  C   UNL     1       5.224  -0.378  23.272  0.00  0.00    +0.020 A 
ATOM     34  H   UNL     1       0.966   1.507  23.104  0.00  0.00    +0.156 HD
ENDBRANCH  15  19
ENDBRANCH  10  15
TORSDOF 8
ENDMDL
MODEL 4
REMARK VINA RESULT:      -2.1      1.728      6.430
REMARK  Name = 38029517
REMARK  11 active torsions:
REMARK  status: ('A' for Active; 'I' for Inactive)
REMARK    1  A    between atoms: O_3  and  C_21
REMARK    2  A    between atoms: O_3  and  C_24
REMARK    3  A    between atoms: N_4  and  C_14
REMARK    4  A    between atoms: C_7  and  C_11
REMARK    5  A    between atoms: C_8  and  C_14
REMARK    6  A    between atoms: C_10  and  C_15
REMARK    7  A    between atoms: C_11  and  C_16
REMARK    8  A    between atoms: C_11  and  C_17
REMARK    9  A    between atoms: C_12  and  C_18
REMARK   10  A    between atoms: C_15  and  C_19
REMARK   11  A    between atoms: C_20  and  C_21
REMARK                            x       y       z     vdW  Elec       q    Type
REMARK                         _______ _______ _______ _____ _____    ______ ____
ROOT
ATOM      7  C   UNL     1      -3.160   1.172  23.774  0.00  0.00    +0.000 C 
ATOM      8  C   UNL     1      -4.608   0.628  23.847  0.00  0.00    +0.032 C 
ATOM      9  C   UNL     1      -2.227   0.132  23.136  0.00  0.00    +0.012 C 
ATOM     10  C   UNL     1      -2.211  -1.194  23.920  0.00  0.00    +0.023 C 
ATOM     12  C   UNL     1      -3.610  -1.661  24.265  0.00  0.00    -0.073 C 
ATOM     13  C   UNL     1      -4.671  -0.837  24.214  0.00  0.00    -0.022 C 
ATOM     18  C   UNL     1      -3.770  -3.112  24.628  0.00  0.00    +0.039 C 
ENDROOT
BRANCH   7  11
ATOM     11  C   UNL     1      -3.085   2.486  22.990  0.00  0.00    -0.013 C 
ATOM     16  C   UNL     1      -2.424   2.259  21.634  0.00  0.00    +0.007 C 
ATOM     17  C   UNL     1      -4.477   3.084  22.820  0.00  0.00    +0.007 C 
ENDBRANCH   7  11
BRANCH   8  14
ATOM     14  C   UNL     1      -5.455   1.438  24.834  0.00  0.00    +0.112 C 
BRANCH  14   4
ATOM      2  O   UNL     1      -5.828   4.167  25.718  0.00  0.00    -0.272 OA
ATOM      4  N   UNL     1      -4.622   2.176  25.732  0.00  0.00    -0.312 N 
ATOM     20  C   UNL     1      -4.876   3.496  26.106  0.00  0.00    +0.251 C 
ATOM     33  H   UNL     1      -3.836   1.696  26.160  0.00  0.00    +0.149 HD
BRANCH  20  21
ATOM     21  C   UNL     1      -3.834   4.030  27.066  0.00  0.00    +0.324 C 
BRANCH  21   3
ATOM      3  O   UNL     1      -2.945   4.901  26.401  0.00  0.00    -0.483 OA
BRANCH   3  24
ATOM     24  C   UNL     1      -1.871   4.332  25.758  0.00  0.00    +0.121 A 
ATOM     28  C   UNL     1      -1.370   3.103  26.190  0.00  0.00    +0.045 A 
ATOM     29  C   UNL     1      -1.283   4.982  24.674  0.00  0.00    +0.045 A 
ATOM     30  C   UNL     1      -0.281   2.526  25.537  0.00  0.00    +0.004 A 
ATOM     31  C   UNL     1      -0.194   4.404  24.021  0.00  0.00    +0.004 A 
ATOM     32  C   UNL     1       0.307   3.177  24.452  0.00  0.00    +0.000 A 
ENDBRANCH   3  24
ENDBRANCH  21   3
ENDBRANCH  20  21
ENDBRANCH  14   4
ENDBRANCH   8  14
BRANCH  10  15
ATOM     15  C   UNL     1      -1.343  -1.081  25.180  0.00  0.00    +0.104 C 
BRANCH  15  19
ATOM      1  O   UNL     1       0.700  -2.350  25.318  0.00  0.00    -0.275 OA
ATOM      5  N   UNL     1       0.652  -0.334  24.113  0.00  0.00    -0.270 N 
ATOM      6  N   UNL     1       2.301   0.860  22.883  0.00  0.00    -0.240 NA
ATOM     19  C   UNL     1       0.119  -1.355  24.895  0.00  0.00    +0.219 C 
ATOM     22  C   UNL     1       1.979  -0.217  23.634  0.00  0.00    +0.125 A 
ATOM     23  C   UNL     1       2.871  -1.223  23.969  0.00  0.00    +0.044 A 
ATOM     25  C   UNL     1       4.176  -1.117  23.503  0.00  0.00    +0.005 A 
ATOM     26  C   UNL     1       3.578   0.929  22.448  0.00  0.00    +0.113 A 
ATOM     27  C   UNL     1       4.545  -0.024  22.728  0.00  0.00    +0.020 A 
ATOM     34  H   UNL     1       0.042   0.431  23.838  0.00  0.00    +0.156 HD
ENDBRANCH  15  19
ENDBRANCH  10  15
TORSDOF 8
ENDMDL
MODEL 5
REMARK VINA RESULT:      -1.7      1.621      2.632
REMARK  Name = 38029517
REMARK  11 active torsions:
REMARK  status: ('A' for Active; 'I' for Inactive)
REMARK    1  A    between atoms: O_3  and  C_21
REMARK    2  A    between atoms: O_3  and  C_24
REMARK    3  A    between atoms: N_4  and  C_14
REMARK    4  A    between atoms: C_7  and  C_11
REMARK    5  A    between atoms: C_8  and  C_14
REMARK    6  A    between atoms: C_10  and  C_15
REMARK    7  A    between atoms: C_11  and  C_16
REMARK    8  A    between atoms: C_11  and  C_17
REMARK    9  A    between atoms: C_12  and  C_18
REMARK   10  A    between atoms: C_15  and  C_19
REMARK   11  A    between atoms: C_20  and  C_21
REMARK                            x       y       z     vdW  Elec       q    Type
REMARK                         _______ _______ _______ _____ _____    ______ ____
ROOT
ATOM      7  C   UNL     1      -1.747   3.945  24.643  0.00  0.00    +0.000 C 
ATOM      8  C   UNL     1      -1.938   3.346  26.059  0.00  0.00    +0.032 C 
ATOM      9  C   UNL     1      -3.057   4.578  24.148  0.00  0.00    +0.012 C 
ATOM     10  C   UNL     1      -4.212   3.560  24.096  0.00  0.00    +0.023 C 
ATOM     12  C   UNL     1      -4.296   2.738  25.365  0.00  0.00    -0.073 C 
ATOM     13  C   UNL     1      -3.275   2.665  26.237  0.00  0.00    -0.022 C 
ATOM     18  C   UNL     1      -5.598   2.036  25.634  0.00  0.00    +0.039 C 
ENDROOT
BRANCH   7  11
ATOM     11  C   UNL     1      -0.624   4.986  24.612  0.00  0.00    -0.013 C 
ATOM     16  C   UNL     1       0.077   4.973  23.258  0.00  0.00    +0.007 C 
ATOM     17  C   UNL     1      -1.177   6.373  24.922  0.00  0.00    +0.007 C 
ENDBRANCH   7  11
BRANCH   8  14
ATOM     14  C   UNL     1      -0.814   2.361  26.398  0.00  0.00    +0.112 C 
BRANCH  14   4
ATOM      2  O   UNL     1       1.421   2.239  24.565  0.00  0.00    -0.272 OA
ATOM      4  N   UNL     1      -0.619   1.425  25.335  0.00  0.00    -0.312 N 
ATOM     20  C   UNL     1       0.493   1.438  24.494  0.00  0.00    +0.251 C 
ATOM     33  H   UNL     1      -1.301   0.680  25.223  0.00  0.00    +0.149 HD
BRANCH  20  21
ATOM     21  C   UNL     1       0.441   0.336  23.458  0.00  0.00    +0.324 C 
BRANCH  21   3
ATOM      3  O   UNL     1       1.485   0.484  22.519  0.00  0.00    -0.483 OA
BRANCH   3  24
ATOM     24  C   UNL     1       2.749   0.130  22.926  0.00  0.00    +0.121 A 
ATOM     28  C   UNL     1       2.983  -1.142  23.450  0.00  0.00    +0.045 A 
ATOM     29  C   UNL     1       3.798   1.041  22.814  0.00  0.00    +0.045 A 
ATOM     30  C   UNL     1       4.267  -1.501  23.863  0.00  0.00    +0.004 A 
ATOM     31  C   UNL     1       5.082   0.682  23.226  0.00  0.00    +0.004 A 
ATOM     32  C   UNL     1       5.316  -0.589  23.750  0.00  0.00    +0.000 A 
ENDBRANCH   3  24
ENDBRANCH  21   3
ENDBRANCH  20  21
ENDBRANCH  14   4
ENDBRANCH   8  14
BRANCH  10  15
ATOM     15  C   UNL     1      -4.097   2.656  22.863  0.00  0.00    +0.104 C 
BRANCH  15  19
ATOM      1  O   UNL     1      -1.985   1.497  22.826  0.00  0.00    -0.275 OA
ATOM      5  N   UNL     1      -3.899   0.419  23.659  0.00  0.00    -0.270 N 
ATOM      6  N   UNL     1      -4.278  -1.750  24.559  0.00  0.00    -0.240 NA
ATOM     19  C   UNL     1      -3.181   1.473  23.103  0.00  0.00    +0.219 C 
ATOM     22  C   UNL     1      -3.412  -0.857  24.029  0.00  0.00    +0.125 A 
ATOM     23  C   UNL     1      -2.065  -1.111  23.823  0.00  0.00    +0.044 A 
ATOM     25  C   UNL     1      -1.576  -2.362  24.184  0.00  0.00    +0.005 A 
ATOM     26  C   UNL     1      -3.767  -2.954  24.897  0.00  0.00    +0.113 A 
ATOM     27  C   UNL     1      -2.437  -3.306  24.731  0.00  0.00    +0.020 A 
ATOM     34  H   UNL     1      -4.892   0.551  23.831  0.00  0.00    +0.156 HD
ENDBRANCH  15  19
ENDBRANCH  10  15
TORSDOF 8
ENDMDL
MODEL 6
REMARK VINA RESULT:      -1.1      1.645      4.719
REMARK  Name = 38029517
REMARK  11 active torsions:
REMARK  status: ('A' for Active; 'I' for Inactive)
REMARK    1  A    between atoms: O_3  and  C_21
REMARK    2  A    between atoms: O_3  and  C_24
REMARK    3  A    between atoms: N_4  and  C_14
REMARK    4  A    between atoms: C_7  and  C_11
REMARK    5  A    between atoms: C_8  and  C_14
REMARK    6  A    between atoms: C_10  and  C_15
REMARK    7  A    between atoms: C_11  and  C_16
REMARK    8  A    between atoms: C_11  and  C_17
REMARK    9  A    between atoms: C_12  and  C_18
REMARK   10  A    between atoms: C_15  and  C_19
REMARK   11  A    between atoms: C_20  and  C_21
REMARK                            x       y       z     vdW  Elec       q    Type
REMARK                         _______ _______ _______ _____ _____    ______ ____
ROOT
ATOM      7  C   UNL     1      -1.798  -0.683  25.233  0.00  0.00    +0.000 C 
ATOM      8  C   UNL     1      -1.470  -2.072  24.631  0.00  0.00    +0.032 C 
ATOM      9  C   UNL     1      -3.172  -0.707  25.921  0.00  0.00    +0.012 C 
ATOM     10  C   UNL     1      -4.302  -1.099  24.951  0.00  0.00    +0.023 C 
ATOM     12  C   UNL     1      -3.939  -2.314  24.123  0.00  0.00    -0.073 C 
ATOM     13  C   UNL     1      -2.670  -2.743  24.003  0.00  0.00    -0.022 C 
ATOM     18  C   UNL     1      -5.074  -3.055  23.472  0.00  0.00    +0.039 C 
ENDROOT
BRANCH   7  11
ATOM     11  C   UNL     1      -0.727  -0.227  26.228  0.00  0.00    -0.013 C 
ATOM     16  C   UNL     1      -0.672   1.296  26.290  0.00  0.00    +0.007 C 
ATOM     17  C   UNL     1      -1.000  -0.815  27.609  0.00  0.00    +0.007 C 
ENDBRANCH   7  11
BRANCH   8  14
ATOM     14  C   UNL     1      -0.341  -1.976  23.600  0.00  0.00    +0.112 C 
BRANCH  14   4
ATOM      2  O   UNL     1       0.969  -0.413  21.547  0.00  0.00    -0.272 OA
ATOM      4  N   UNL     1       0.410  -0.772  23.779  0.00  0.00    -0.312 N 
ATOM     20  C   UNL     1       1.012  -0.079  22.728  0.00  0.00    +0.251 C 
ATOM     33  H   UNL     1       0.460  -0.373  24.711  0.00  0.00    +0.149 HD
BRANCH  20  21
ATOM     21  C   UNL     1       1.741   1.160  23.203  0.00  0.00    +0.324 C 
BRANCH  21   3
ATOM      3  O   UNL     1       3.029   1.230  22.629  0.00  0.00    -0.483 OA
BRANCH   3  24
ATOM     24  C   UNL     1       4.001   0.420  23.167  0.00  0.00    +0.121 A 
ATOM     28  C   UNL     1       3.742  -0.934  23.379  0.00  0.00    +0.045 A 
ATOM     29  C   UNL     1       5.245   0.952  23.501  0.00  0.00    +0.045 A 
ATOM     30  C   UNL     1       4.728  -1.756  23.925  0.00  0.00    +0.004 A 
ATOM     31  C   UNL     1       6.232   0.130  24.047  0.00  0.00    +0.004 A 
ATOM     32  C   UNL     1       5.973  -1.224  24.259  0.00  0.00    +0.000 A 
ENDBRANCH   3  24
ENDBRANCH  21   3
ENDBRANCH  20  21
ENDBRANCH  14   4
ENDBRANCH   8  14
BRANCH  10  15
ATOM     15  C   UNL     1      -4.692   0.081  24.052  0.00  0.00    +0.104 C 
BRANCH  15  19
ATOM      1  O   UNL     1      -4.975   1.991  25.492  0.00  0.00    -0.275 OA
ATOM      5  N   UNL     1      -3.085   1.839  24.106  0.00  0.00    -0.270 N 
ATOM      6  N   UNL     1      -1.209   3.260  23.757  0.00  0.00    -0.240 NA
ATOM     19  C   UNL     1      -4.293   1.414  24.651  0.00  0.00    +0.219 C 
ATOM     22  C   UNL     1      -2.376   3.028  24.400  0.00  0.00    +0.125 A 
ATOM     23  C   UNL     1      -2.929   3.887  25.336  0.00  0.00    +0.044 A 
ATOM     25  C   UNL     1      -2.241   5.058  25.632  0.00  0.00    +0.005 A 
ATOM     26  C   UNL     1      -0.569   4.408  24.070  0.00  0.00    +0.113 A 
ATOM     27  C   UNL     1      -1.037   5.331  24.992  0.00  0.00    +0.020 A 
ATOM     34  H   UNL     1      -2.634   1.247  23.413  0.00  0.00    +0.156 HD
ENDBRANCH  15  19
ENDBRANCH  10  15
TORSDOF 8
ENDMDL
