MODEL 1
REMARK VINA RESULT:      -3.3      0.000      0.000
REMARK  Name = 75536312
REMARK  10 active torsions:
REMARK  status: ('A' for Active; 'I' for Inactive)
REMARK    1  A    between atoms: O_2  and  C_8
REMARK    2  A    between atoms: O_4  and  C_24
REMARK    3  A    between atoms: O_4  and  C_30
REMARK    4  A    between atoms: N_5  and  C_12
REMARK    5  A    between atoms: N_5  and  C_15
REMARK    6  A    between atoms: C_7  and  C_12
REMARK    7  A    between atoms: C_9  and  C_13
REMARK    8  A    between atoms: C_13  and  C_14
REMARK    9  A    between atoms: C_15  and  C_17
REMARK   10  A    between atoms: C_18  and  C_19
REMARK                            x       y       z     vdW  Elec       q    Type
REMARK                         _______ _______ _______ _____ _____    ______ ____
ROOT
ATOM      1  O   UNL     1      -3.381   0.209  23.734  0.00  0.00    -0.369 OA
ATOM      7  C   UNL     1      -4.293  -0.553  24.538  0.00  0.00    +0.161 C 
ATOM      8  C   UNL     1      -3.575  -1.696  25.266  0.00  0.00    +0.145 C 
ATOM      9  C   UNL     1      -2.254   0.742  24.434  0.00  0.00    +0.125 C 
ATOM     10  C   UNL     1      -2.321  -1.223  25.996  0.00  0.00    +0.036 C 
ATOM     11  C   UNL     1      -1.440  -0.379  25.079  0.00  0.00    +0.034 C 
ENDROOT
BRANCH   8   2
ATOM      2  O   UNL     1      -3.176  -2.676  24.304  0.00  0.00    -0.389 OA
ATOM     32  H   UNL     1      -3.595  -2.445  23.457  0.00  0.00    +0.210 HD
ENDBRANCH   8   2
BRANCH   7  12
ATOM     12  C   UNL     1      -5.082   0.352  25.482  0.00  0.00    +0.115 C 
BRANCH  12   5
ATOM      5  N   UNL     1      -6.029   1.173  24.742  0.00  0.00    -0.309 NA
ATOM     31  H   UNL     1      -5.719   1.256  23.774  0.00  0.00    +0.122 HD
BRANCH   5  15
ATOM     15  C   UNL     1      -6.150   2.497  25.337  0.00  0.00    +0.116 C 
BRANCH  15  17
ATOM     17  C   UNL     1      -4.852   3.258  25.282  0.00  0.00    -0.033 A 
ATOM     20  C   UNL     1      -4.164   3.549  26.460  0.00  0.00    +0.008 A 
ATOM     21  C   UNL     1      -4.337   3.669  24.052  0.00  0.00    +0.008 A 
ATOM     22  C   UNL     1      -2.960   4.252  26.408  0.00  0.00    +0.046 A 
ATOM     23  C   UNL     1      -3.133   4.372  24.001  0.00  0.00    +0.046 A 
ATOM     24  C   UNL     1      -2.445   4.663  25.179  0.00  0.00    +0.120 A 
BRANCH  24   4
ATOM      4  O   UNL     1      -1.269   5.347  25.129  0.00  0.00    -0.495 OA
ATOM     30  C   UNL     1      -0.160   4.688  24.519  0.00  0.00    +0.277 C 
ENDBRANCH  24   4
ENDBRANCH  15  17
ENDBRANCH   5  15
ENDBRANCH  12   5
ENDBRANCH   7  12
BRANCH   9  13
ATOM     13  C   UNL     1      -1.411   1.512  23.424  0.00  0.00    +0.090 C 
BRANCH  13  14
ATOM      3  O   UNL     1       1.346  -0.524  22.308  0.00  0.00    -0.354 OA
ATOM      6  N   UNL     1       0.011  -0.139  22.279  0.00  0.00    -0.083 NA
ATOM     14  C   UNL     1      -0.086   0.842  23.180  0.00  0.00    +0.087 A 
ATOM     16  C   UNL     1       1.145   1.118  23.803  0.00  0.00    +0.076 A 
ATOM     18  C   UNL     1       2.011   0.232  23.218  0.00  0.00    +0.167 A 
BRANCH  18  19
ATOM     19  C   UNL     1       3.410  -0.050  23.359  0.00  0.00    +0.020 A 
ATOM     25  C   UNL     1       4.353   0.936  23.068  0.00  0.00    +0.011 A 
ATOM     26  C   UNL     1       3.828  -1.310  23.787  0.00  0.00    +0.011 A 
ATOM     27  C   UNL     1       5.714   0.661  23.205  0.00  0.00    +0.001 A 
ATOM     28  C   UNL     1       5.188  -1.585  23.924  0.00  0.00    +0.001 A 
ATOM     29  C   UNL     1       6.131  -0.599  23.632  0.00  0.00    +0.000 A 
ENDBRANCH  18  19
ENDBRANCH  13  14
ENDBRANCH   9  13
TORSDOF 9
ENDMDL
MODEL 2
REMARK VINA RESULT:      -1.0      1.312      4.065
REMARK  Name = 75536312
REMARK  10 active torsions:
REMARK  status: ('A' for Active; 'I' for Inactive)
REMARK    1  A    between atoms: O_2  and  C_8
REMARK    2  A    between atoms: O_4  and  C_24
REMARK    3  A    between atoms: O_4  and  C_30
REMARK    4  A    between atoms: N_5  and  C_12
REMARK    5  A    between atoms: N_5  and  C_15
REMARK    6  A    between atoms: C_7  and  C_12
REMARK    7  A    between atoms: C_9  and  C_13
REMARK    8  A    between atoms: C_13  and  C_14
REMARK    9  A    between atoms: C_15  and  C_17
REMARK   10  A    between atoms: C_18  and  C_19
REMARK                            x       y       z     vdW  Elec       q    Type
REMARK                         _______ _______ _______ _____ _____    ______ ____
ROOT
ATOM      1  O   UNL     1      -2.473   1.967  24.841  0.00  0.00    -0.369 OA
ATOM      7  C   UNL     1      -2.830   2.925  25.846  0.00  0.00    +0.161 C 
ATOM      8  C   UNL     1      -1.663   3.870  26.158  0.00  0.00    +0.145 C 
ATOM      9  C   UNL     1      -1.990   2.524  23.616  0.00  0.00    +0.125 C 
ATOM     10  C   UNL     1      -1.046   4.468  24.896  0.00  0.00    +0.036 C 
ATOM     11  C   UNL     1      -0.749   3.382  23.866  0.00  0.00    +0.034 C 
ENDROOT
BRANCH   8   2
ATOM      2  O   UNL     1      -0.642   3.133  26.834  0.00  0.00    -0.389 OA
ATOM     32  H   UNL     1      -0.563   3.495  27.734  0.00  0.00    +0.210 HD
ENDBRANCH   8   2
BRANCH   7  12
ATOM     12  C   UNL     1      -4.112   3.665  25.470  0.00  0.00    +0.115 C 
BRANCH  12   5
ATOM      5  N   UNL     1      -5.019   2.794  24.737  0.00  0.00    -0.309 NA
ATOM     31  H   UNL     1      -5.810   3.341  24.399  0.00  0.00    +0.122 HD
BRANCH   5  15
ATOM     15  C   UNL     1      -5.493   1.705  25.580  0.00  0.00    +0.116 C 
BRANCH  15  17
ATOM     17  C   UNL     1      -4.808   0.405  25.255  0.00  0.00    -0.033 A 
ATOM     20  C   UNL     1      -4.887  -0.122  23.966  0.00  0.00    +0.008 A 
ATOM     21  C   UNL     1      -4.092  -0.272  26.243  0.00  0.00    +0.008 A 
ATOM     22  C   UNL     1      -4.249  -1.326  23.665  0.00  0.00    +0.046 A 
ATOM     23  C   UNL     1      -3.455  -1.476  25.941  0.00  0.00    +0.046 A 
ATOM     24  C   UNL     1      -3.533  -2.003  24.652  0.00  0.00    +0.120 A 
BRANCH  24   4
ATOM      4  O   UNL     1      -2.910  -3.176  24.358  0.00  0.00    -0.495 OA
ATOM     30  C   UNL     1      -1.483  -3.173  24.364  0.00  0.00    +0.277 C 
ENDBRANCH  24   4
ENDBRANCH  15  17
ENDBRANCH   5  15
ENDBRANCH  12   5
ENDBRANCH   7  12
BRANCH   9  13
ATOM     13  C   UNL     1      -1.667   1.364  22.682  0.00  0.00    +0.090 C 
BRANCH  13  14
ATOM      3  O   UNL     1       0.926  -0.783  23.973  0.00  0.00    -0.354 OA
ATOM      6  N   UNL     1      -0.407  -0.426  23.811  0.00  0.00    -0.083 NA
ATOM     14  C   UNL     1      -0.380   0.682  23.065  0.00  0.00    +0.087 A 
ATOM     16  C   UNL     1       0.930   1.067  22.730  0.00  0.00    +0.076 A 
ATOM     18  C   UNL     1       1.712   0.113  23.325  0.00  0.00    +0.167 A 
BRANCH  18  19
ATOM     19  C   UNL     1       3.123  -0.128  23.401  0.00  0.00    +0.020 A 
ATOM     25  C   UNL     1       4.023   0.888  23.078  0.00  0.00    +0.011 A 
ATOM     26  C   UNL     1       3.598  -1.378  23.799  0.00  0.00    +0.011 A 
ATOM     27  C   UNL     1       5.396   0.654  23.153  0.00  0.00    +0.001 A 
ATOM     28  C   UNL     1       4.971  -1.612  23.874  0.00  0.00    +0.001 A 
ATOM     29  C   UNL     1       5.870  -0.596  23.550  0.00  0.00    +0.000 A 
ENDBRANCH  18  19
ENDBRANCH  13  14
ENDBRANCH   9  13
TORSDOF 9
ENDMDL
MODEL 3
REMARK VINA RESULT:      -0.8      1.700      4.712
REMARK  Name = 75536312
REMARK  10 active torsions:
REMARK  status: ('A' for Active; 'I' for Inactive)
REMARK    1  A    between atoms: O_2  and  C_8
REMARK    2  A    between atoms: O_4  and  C_24
REMARK    3  A    between atoms: O_4  and  C_30
REMARK    4  A    between atoms: N_5  and  C_12
REMARK    5  A    between atoms: N_5  and  C_15
REMARK    6  A    between atoms: C_7  and  C_12
REMARK    7  A    between atoms: C_9  and  C_13
REMARK    8  A    between atoms: C_13  and  C_14
REMARK    9  A    between atoms: C_15  and  C_17
REMARK   10  A    between atoms: C_18  and  C_19
REMARK                            x       y       z     vdW  Elec       q    Type
REMARK                         _______ _______ _______ _____ _____    ______ ____
ROOT
ATOM      1  O   UNL     1      -0.917   2.887  24.097  0.00  0.00    -0.369 OA
ATOM      7  C   UNL     1      -1.009   3.630  25.319  0.00  0.00    +0.161 C 
ATOM      8  C   UNL     1      -2.385   4.292  25.469  0.00  0.00    +0.145 C 
ATOM      9  C   UNL     1      -1.930   1.896  23.910  0.00  0.00    +0.125 C 
ATOM     10  C   UNL     1      -3.530   3.313  25.228  0.00  0.00    +0.036 C 
ATOM     11  C   UNL     1      -3.319   2.533  23.934  0.00  0.00    +0.034 C 
ENDROOT
BRANCH   8   2
ATOM      2  O   UNL     1      -2.498   5.341  24.504  0.00  0.00    -0.389 OA
ATOM     32  H   UNL     1      -1.603   5.679  24.329  0.00  0.00    +0.210 HD
ENDBRANCH   8   2
BRANCH   7  12
ATOM     12  C   UNL     1      -0.631   2.763  26.519  0.00  0.00    +0.115 C 
BRANCH  12   5
ATOM      5  N   UNL     1      -0.030   1.511  26.086  0.00  0.00    -0.309 NA
ATOM     31  H   UNL     1      -0.263   1.348  25.106  0.00  0.00    +0.122 HD
BRANCH   5  15
ATOM     15  C   UNL     1      -0.500   0.396  26.897  0.00  0.00    +0.116 C 
BRANCH  15  17
ATOM     17  C   UNL     1      -1.341  -0.564  26.099  0.00  0.00    -0.033 A 
ATOM     20  C   UNL     1      -2.732  -0.514  26.188  0.00  0.00    +0.008 A 
ATOM     21  C   UNL     1      -0.728  -1.503  25.268  0.00  0.00    +0.008 A 
ATOM     22  C   UNL     1      -3.510  -1.403  25.446  0.00  0.00    +0.046 A 
ATOM     23  C   UNL     1      -1.507  -2.391  24.527  0.00  0.00    +0.046 A 
ATOM     24  C   UNL     1      -2.898  -2.341  24.616  0.00  0.00    +0.120 A 
BRANCH  24   4
ATOM      4  O   UNL     1      -3.658  -3.206  23.891  0.00  0.00    -0.495 OA
ATOM     30  C   UNL     1      -4.873  -2.699  23.339  0.00  0.00    +0.277 C 
ENDBRANCH  24   4
ENDBRANCH  15  17
ENDBRANCH   5  15
ENDBRANCH  12   5
ENDBRANCH   7  12
BRANCH   9  13
ATOM     13  C   UNL     1      -1.667   1.219  22.570  0.00  0.00    +0.090 C 
BRANCH  13  14
ATOM      3  O   UNL     1       1.345  -0.608  21.805  0.00  0.00    -0.354 OA
ATOM      6  N   UNL     1       0.008  -0.295  21.589  0.00  0.00    -0.083 NA
ATOM     14  C   UNL     1      -0.282   0.635  22.504  0.00  0.00    +0.087 A 
ATOM     16  C   UNL     1       0.823   0.945  23.317  0.00  0.00    +0.076 A 
ATOM     18  C   UNL     1       1.819   0.137  22.835  0.00  0.00    +0.167 A 
BRANCH  18  19
ATOM     19  C   UNL     1       3.195  -0.076  23.176  0.00  0.00    +0.020 A 
ATOM     25  C   UNL     1       4.116   0.964  23.040  0.00  0.00    +0.011 A 
ATOM     26  C   UNL     1       3.614  -1.321  23.643  0.00  0.00    +0.011 A 
ATOM     27  C   UNL     1       5.455   0.756  23.371  0.00  0.00    +0.001 A 
ATOM     28  C   UNL     1       4.953  -1.529  23.974  0.00  0.00    +0.001 A 
ATOM     29  C   UNL     1       5.873  -0.489  23.837  0.00  0.00    +0.000 A 
ENDBRANCH  18  19
ENDBRANCH  13  14
ENDBRANCH   9  13
TORSDOF 9
ENDMDL
MODEL 4
REMARK VINA RESULT:      -0.8      2.211      4.906
REMARK  Name = 75536312
REMARK  10 active torsions:
REMARK  status: ('A' for Active; 'I' for Inactive)
REMARK    1  A    between atoms: O_2  and  C_8
REMARK    2  A    between atoms: O_4  and  C_24
REMARK    3  A    between atoms: O_4  and  C_30
REMARK    4  A    between atoms: N_5  and  C_12
REMARK    5  A    between atoms: N_5  and  C_15
REMARK    6  A    between atoms: C_7  and  C_12
REMARK    7  A    between atoms: C_9  and  C_13
REMARK    8  A    between atoms: C_13  and  C_14
REMARK    9  A    between atoms: C_15  and  C_17
REMARK   10  A    between atoms: C_18  and  C_19
REMARK                            x       y       z     vdW  Elec       q    Type
REMARK                         _______ _______ _______ _____ _____    ______ ____
ROOT
ATOM      1  O   UNL     1      -4.295   3.496  26.727  0.00  0.00    -0.369 OA
ATOM      7  C   UNL     1      -5.629   3.132  26.346  0.00  0.00    +0.161 C 
ATOM      8  C   UNL     1      -6.160   4.042  25.232  0.00  0.00    +0.145 C 
ATOM      9  C   UNL     1      -3.345   3.522  25.660  0.00  0.00    +0.125 C 
ATOM     10  C   UNL     1      -5.177   4.174  24.071  0.00  0.00    +0.036 C 
ATOM     11  C   UNL     1      -3.777   4.510  24.576  0.00  0.00    +0.034 C 
ENDROOT
BRANCH   8   2
ATOM      2  O   UNL     1      -6.377   5.349  25.769  0.00  0.00    -0.389 OA
ATOM     32  H   UNL     1      -6.110   5.995  25.091  0.00  0.00    +0.210 HD
ENDBRANCH   8   2
BRANCH   7  12
ATOM     12  C   UNL     1      -5.715   1.648  25.996  0.00  0.00    +0.115 C 
BRANCH  12   5
ATOM      5  N   UNL     1      -5.284   1.412  24.626  0.00  0.00    -0.309 NA
ATOM     31  H   UNL     1      -5.830   2.000  23.996  0.00  0.00    +0.122 HD
BRANCH   5  15
ATOM     15  C   UNL     1      -5.447   0.012  24.260  0.00  0.00    +0.116 C 
BRANCH  15  17
ATOM     17  C   UNL     1      -4.180  -0.774  24.470  0.00  0.00    -0.033 A 
ATOM     20  C   UNL     1      -3.071  -0.165  25.056  0.00  0.00    +0.008 A 
ATOM     21  C   UNL     1      -4.117  -2.112  24.081  0.00  0.00    +0.008 A 
ATOM     22  C   UNL     1      -1.898  -0.894  25.253  0.00  0.00    +0.046 A 
ATOM     23  C   UNL     1      -2.944  -2.841  24.279  0.00  0.00    +0.046 A 
ATOM     24  C   UNL     1      -1.835  -2.232  24.865  0.00  0.00    +0.120 A 
BRANCH  24   4
ATOM      4  O   UNL     1      -0.691  -2.943  25.059  0.00  0.00    -0.495 OA
ATOM     30  C   UNL     1       0.468  -2.213  25.461  0.00  0.00    +0.277 C 
ENDBRANCH  24   4
ENDBRANCH  15  17
ENDBRANCH   5  15
ENDBRANCH  12   5
ENDBRANCH   7  12
BRANCH   9  13
ATOM     13  C   UNL     1      -2.000   3.924  26.254  0.00  0.00    +0.090 C 
BRANCH  13  14
ATOM      3  O   UNL     1       0.931   1.886  25.754  0.00  0.00    -0.354 OA
ATOM      6  N   UNL     1       0.075   2.633  26.554  0.00  0.00    -0.083 NA
ATOM     14  C   UNL     1      -0.880   3.068  25.726  0.00  0.00    +0.087 A 
ATOM     16  C   UNL     1      -0.680   2.631  24.405  0.00  0.00    +0.076 A 
ATOM     18  C   UNL     1       0.471   1.892  24.477  0.00  0.00    +0.167 A 
BRANCH  18  19
ATOM     19  C   UNL     1       1.256   1.155  23.530  0.00  0.00    +0.020 A 
ATOM     25  C   UNL     1       0.654   0.181  22.733  0.00  0.00    +0.011 A 
ATOM     26  C   UNL     1       2.621   1.412  23.404  0.00  0.00    +0.011 A 
ATOM     27  C   UNL     1       1.417  -0.535  21.811  0.00  0.00    +0.001 A 
ATOM     28  C   UNL     1       3.384   0.696  22.483  0.00  0.00    +0.001 A 
ATOM     29  C   UNL     1       2.782  -0.279  21.687  0.00  0.00    +0.000 A 
ENDBRANCH  18  19
ENDBRANCH  13  14
ENDBRANCH   9  13
TORSDOF 9
ENDMDL
MODEL 5
REMARK VINA RESULT:      -0.3      2.220      4.836
REMARK  Name = 75536312
REMARK  10 active torsions:
REMARK  status: ('A' for Active; 'I' for Inactive)
REMARK    1  A    between atoms: O_2  and  C_8
REMARK    2  A    between atoms: O_4  and  C_24
REMARK    3  A    between atoms: O_4  and  C_30
REMARK    4  A    between atoms: N_5  and  C_12
REMARK    5  A    between atoms: N_5  and  C_15
REMARK    6  A    between atoms: C_7  and  C_12
REMARK    7  A    between atoms: C_9  and  C_13
REMARK    8  A    between atoms: C_13  and  C_14
REMARK    9  A    between atoms: C_15  and  C_17
REMARK   10  A    between atoms: C_18  and  C_19
REMARK                            x       y       z     vdW  Elec       q    Type
REMARK                         _______ _______ _______ _____ _____    ______ ____
ROOT
ATOM      1  O   UNL     1      -3.621   2.481  25.654  0.00  0.00    -0.369 OA
ATOM      7  C   UNL     1      -4.845   1.919  25.162  0.00  0.00    +0.161 C 
ATOM      8  C   UNL     1      -6.063   2.706  25.661  0.00  0.00    +0.145 C 
ATOM      9  C   UNL     1      -3.428   3.866  25.360  0.00  0.00    +0.125 C 
ATOM     10  C   UNL     1      -5.915   4.209  25.437  0.00  0.00    +0.036 C 
ATOM     11  C   UNL     1      -4.564   4.706  25.945  0.00  0.00    +0.034 C 
ENDROOT
BRANCH   8   2
ATOM      2  O   UNL     1      -6.209   2.487  27.066  0.00  0.00    -0.389 OA
ATOM     32  H   UNL     1      -5.444   1.964  27.364  0.00  0.00    +0.210 HD
ENDBRANCH   8   2
BRANCH   7  12
ATOM     12  C   UNL     1      -4.811   1.774  23.642  0.00  0.00    +0.115 C 
BRANCH  12   5
ATOM      5  N   UNL     1      -4.315   0.461  23.256  0.00  0.00    -0.309 NA
ATOM     31  H   UNL     1      -4.841   0.127  22.448  0.00  0.00    +0.122 HD
BRANCH   5  15
ATOM     15  C   UNL     1      -4.440  -0.489  24.354  0.00  0.00    +0.116 C 
BRANCH  15  17
ATOM     17  C   UNL     1      -3.111  -1.088  24.730  0.00  0.00    -0.033 A 
ATOM     20  C   UNL     1      -2.784  -2.377  24.309  0.00  0.00    +0.008 A 
ATOM     21  C   UNL     1      -2.207  -0.354  25.498  0.00  0.00    +0.008 A 
ATOM     22  C   UNL     1      -1.551  -2.932  24.656  0.00  0.00    +0.046 A 
ATOM     23  C   UNL     1      -0.975  -0.909  25.844  0.00  0.00    +0.046 A 
ATOM     24  C   UNL     1      -0.647  -2.198  25.423  0.00  0.00    +0.120 A 
BRANCH  24   4
ATOM      4  O   UNL     1       0.555  -2.739  25.759  0.00  0.00    -0.495 OA
ATOM     30  C   UNL     1       1.682  -2.359  24.969  0.00  0.00    +0.277 C 
ENDBRANCH  24   4
ENDBRANCH  15  17
ENDBRANCH   5  15
ENDBRANCH  12   5
ENDBRANCH   7  12
BRANCH   9  13
ATOM     13  C   UNL     1      -2.087   4.278  25.957  0.00  0.00    +0.090 C 
BRANCH  13  14
ATOM      3  O   UNL     1       0.746   2.062  25.723  0.00  0.00    -0.354 OA
ATOM      6  N   UNL     1      -0.129   2.867  26.442  0.00  0.00    -0.083 NA
ATOM     14  C   UNL     1      -0.981   3.350  25.533  0.00  0.00    +0.087 A 
ATOM     16  C   UNL     1      -0.694   2.889  24.236  0.00  0.00    +0.076 A 
ATOM     18  C   UNL     1       0.399   2.083  24.411  0.00  0.00    +0.167 A 
BRANCH  18  19
ATOM     19  C   UNL     1       1.216   1.291  23.538  0.00  0.00    +0.020 A 
ATOM     25  C   UNL     1       2.585   1.546  23.441  0.00  0.00    +0.011 A 
ATOM     26  C   UNL     1       0.644   0.265  22.787  0.00  0.00    +0.011 A 
ATOM     27  C   UNL     1       3.379   0.776  22.592  0.00  0.00    +0.001 A 
ATOM     28  C   UNL     1       1.438  -0.506  21.938  0.00  0.00    +0.001 A 
ATOM     29  C   UNL     1       2.806  -0.249  21.840  0.00  0.00    +0.000 A 
ENDBRANCH  18  19
ENDBRANCH  13  14
ENDBRANCH   9  13
TORSDOF 9
ENDMDL
MODEL 6
REMARK VINA RESULT:       0.1     14.514     16.964
REMARK  Name = 75536312
REMARK  10 active torsions:
REMARK  status: ('A' for Active; 'I' for Inactive)
REMARK    1  A    between atoms: O_2  and  C_8
REMARK    2  A    between atoms: O_4  and  C_24
REMARK    3  A    between atoms: O_4  and  C_30
REMARK    4  A    between atoms: N_5  and  C_12
REMARK    5  A    between atoms: N_5  and  C_15
REMARK    6  A    between atoms: C_7  and  C_12
REMARK    7  A    between atoms: C_9  and  C_13
REMARK    8  A    between atoms: C_13  and  C_14
REMARK    9  A    between atoms: C_15  and  C_17
REMARK   10  A    between atoms: C_18  and  C_19
REMARK                            x       y       z     vdW  Elec       q    Type
REMARK                         _______ _______ _______ _____ _____    ______ ____
ROOT
ATOM      1  O   UNL     1      -1.967 -10.781  13.575  0.00  0.00    -0.369 OA
ATOM      7  C   UNL     1      -2.174 -10.722  14.993  0.00  0.00    +0.161 C 
ATOM      8  C   UNL     1      -1.064  -9.925  15.688  0.00  0.00    +0.145 C 
ATOM      9  C   UNL     1      -1.832  -9.514  12.928  0.00  0.00    +0.125 C 
ATOM     10  C   UNL     1      -0.813  -8.575  15.022  0.00  0.00    +0.036 C 
ATOM     11  C   UNL     1      -0.657  -8.731  13.512  0.00  0.00    +0.034 C 
ENDROOT
BRANCH   8   2
ATOM      2  O   UNL     1       0.152 -10.675  15.622  0.00  0.00    -0.389 OA
ATOM     32  H   UNL     1       0.574 -10.478  14.768  0.00  0.00    +0.210 HD
ENDBRANCH   8   2
BRANCH   7  12
ATOM     12  C   UNL     1      -3.574 -10.206  15.322  0.00  0.00    +0.115 C 
BRANCH  12   5
ATOM      5  N   UNL     1      -4.425 -10.224  14.142  0.00  0.00    -0.309 NA
ATOM     31  H   UNL     1      -4.092  -9.525  13.478  0.00  0.00    +0.122 HD
BRANCH   5  15
ATOM     15  C   UNL     1      -5.812  -9.952  14.493  0.00  0.00    +0.116 C 
BRANCH  15  17
ATOM     17  C   UNL     1      -6.075 -10.175  15.958  0.00  0.00    -0.033 A 
ATOM     20  C   UNL     1      -5.028 -10.538  16.806  0.00  0.00    +0.008 A 
ATOM     21  C   UNL     1      -7.364 -10.017  16.468  0.00  0.00    +0.008 A 
ATOM     22  C   UNL     1      -5.272 -10.742  18.165  0.00  0.00    +0.046 A 
ATOM     23  C   UNL     1      -7.606 -10.221  17.827  0.00  0.00    +0.046 A 
ATOM     24  C   UNL     1      -6.560 -10.583  18.675  0.00  0.00    +0.120 A 
BRANCH  24   4
ATOM      4  O   UNL     1      -6.796 -10.781  20.000  0.00  0.00    -0.495 OA
ATOM     30  C   UNL     1      -5.839 -10.249  20.917  0.00  0.00    +0.277 C 
ENDBRANCH  24   4
ENDBRANCH  15  17
ENDBRANCH   5  15
ENDBRANCH  12   5
ENDBRANCH   7  12
BRANCH   9  13
ATOM     13  C   UNL     1      -1.622  -9.779  11.442  0.00  0.00    +0.090 C 
BRANCH  13  14
ATOM      3  O   UNL     1      -4.309  -9.960   9.046  0.00  0.00    -0.354 OA
ATOM      6  N   UNL     1      -3.017 -10.249   9.469  0.00  0.00    -0.083 NA
ATOM     14  C   UNL     1      -2.909  -9.672  10.669  0.00  0.00    +0.087 A 
ATOM     16  C   UNL     1      -4.089  -9.011  11.052  0.00  0.00    +0.076 A 
ATOM     18  C   UNL     1      -4.938  -9.223   9.997  0.00  0.00    +0.167 A 
BRANCH  18  19
ATOM     19  C   UNL     1      -6.289  -8.847   9.701  0.00  0.00    +0.020 A 
ATOM     25  C   UNL     1      -7.349  -9.618  10.181  0.00  0.00    +0.011 A 
ATOM     26  C   UNL     1      -6.546  -7.712   8.933  0.00  0.00    +0.011 A 
ATOM     27  C   UNL     1      -8.663  -9.252   9.893  0.00  0.00    +0.001 A 
ATOM     28  C   UNL     1      -7.860  -7.346   8.645  0.00  0.00    +0.001 A 
ATOM     29  C   UNL     1      -8.919  -8.117   9.125  0.00  0.00    +0.000 A 
ENDBRANCH  18  19
ENDBRANCH  13  14
ENDBRANCH   9  13
TORSDOF 9
ENDMDL
MODEL 7
REMARK VINA RESULT:       0.6      2.057      3.495
REMARK  Name = 75536312
REMARK  10 active torsions:
REMARK  status: ('A' for Active; 'I' for Inactive)
REMARK    1  A    between atoms: O_2  and  C_8
REMARK    2  A    between atoms: O_4  and  C_24
REMARK    3  A    between atoms: O_4  and  C_30
REMARK    4  A    between atoms: N_5  and  C_12
REMARK    5  A    between atoms: N_5  and  C_15
REMARK    6  A    between atoms: C_7  and  C_12
REMARK    7  A    between atoms: C_9  and  C_13
REMARK    8  A    between atoms: C_13  and  C_14
REMARK    9  A    between atoms: C_15  and  C_17
REMARK   10  A    between atoms: C_18  and  C_19
REMARK                            x       y       z     vdW  Elec       q    Type
REMARK                         _______ _______ _______ _____ _____    ______ ____
ROOT
ATOM      1  O   UNL     1      -4.486   0.754  24.026  0.00  0.00    -0.369 OA
ATOM      7  C   UNL     1      -5.066   2.030  23.722  0.00  0.00    +0.161 C 
ATOM      8  C   UNL     1      -6.169   2.396  24.724  0.00  0.00    +0.145 C 
ATOM      9  C   UNL     1      -3.968   0.623  25.352  0.00  0.00    +0.125 C 
ATOM     10  C   UNL     1      -5.717   2.228  26.172  0.00  0.00    +0.036 C 
ATOM     11  C   UNL     1      -5.067   0.864  26.387  0.00  0.00    +0.034 C 
ENDROOT
BRANCH   8   2
ATOM      2  O   UNL     1      -7.287   1.531  24.513  0.00  0.00    -0.389 OA
ATOM     32  H   UNL     1      -7.785   1.873  23.751  0.00  0.00    +0.210 HD
ENDBRANCH   8   2
BRANCH   7  12
ATOM     12  C   UNL     1      -3.991   3.107  23.599  0.00  0.00    +0.115 C 
BRANCH  12   5
ATOM      5  N   UNL     1      -4.461   4.374  24.140  0.00  0.00    -0.309 NA
ATOM     31  H   UNL     1      -5.048   4.839  23.447  0.00  0.00    +0.122 HD
BRANCH   5  15
ATOM     15  C   UNL     1      -3.343   5.236  24.500  0.00  0.00    +0.116 C 
BRANCH  15  17
ATOM     17  C   UNL     1      -2.206   4.458  25.106  0.00  0.00    -0.033 A 
ATOM     20  C   UNL     1      -0.945   4.488  24.510  0.00  0.00    +0.008 A 
ATOM     21  C   UNL     1      -2.413   3.709  26.264  0.00  0.00    +0.008 A 
ATOM     22  C   UNL     1       0.109   3.769  25.074  0.00  0.00    +0.046 A 
ATOM     23  C   UNL     1      -1.358   2.990  26.827  0.00  0.00    +0.046 A 
ATOM     24  C   UNL     1      -0.097   3.021  26.232  0.00  0.00    +0.120 A 
BRANCH  24   4
ATOM      4  O   UNL     1       0.932   2.320  26.782  0.00  0.00    -0.495 OA
ATOM     30  C   UNL     1       1.171   2.505  28.177  0.00  0.00    +0.277 C 
ENDBRANCH  24   4
ENDBRANCH  15  17
ENDBRANCH   5  15
ENDBRANCH  12   5
ENDBRANCH   7  12
BRANCH   9  13
ATOM     13  C   UNL     1      -3.399  -0.784  25.484  0.00  0.00    +0.090 C 
BRANCH  13  14
ATOM      3  O   UNL     1      -0.199  -1.820  24.188  0.00  0.00    -0.354 OA
ATOM      6  N   UNL     1      -1.414  -2.076  24.810  0.00  0.00    -0.083 NA
ATOM     14  C   UNL     1      -2.032  -0.892  24.863  0.00  0.00    +0.087 A 
ATOM     16  C   UNL     1      -1.261   0.137  24.295  0.00  0.00    +0.076 A 
ATOM     18  C   UNL     1      -0.119  -0.499  23.885  0.00  0.00    +0.167 A 
BRANCH  18  19
ATOM     19  C   UNL     1       1.087  -0.082  23.232  0.00  0.00    +0.020 A 
ATOM     25  C   UNL     1       1.895   0.894  23.816  0.00  0.00    +0.011 A 
ATOM     26  C   UNL     1       1.453  -0.651  22.012  0.00  0.00    +0.011 A 
ATOM     27  C   UNL     1       3.068   1.300  23.181  0.00  0.00    +0.001 A 
ATOM     28  C   UNL     1       2.626  -0.245  21.377  0.00  0.00    +0.001 A 
ATOM     29  C   UNL     1       3.433   0.731  21.961  0.00  0.00    +0.000 A 
ENDBRANCH  18  19
ENDBRANCH  13  14
ENDBRANCH   9  13
TORSDOF 9
ENDMDL
