MODEL 1
REMARK VINA RESULT:      17.5      0.000      0.000
REMARK  Name = 11866214
REMARK  4 active torsions:
REMARK  status: ('A' for Active; 'I' for Inactive)
REMARK    1  A    between atoms: C_10  and  C_18
REMARK    2  A    between atoms: C_15  and  C_22
REMARK    3  A    between atoms: C_17  and  C_23
REMARK    4  A    between atoms: C_25  and  C_26
REMARK                            x       y       z     vdW  Elec       q    Type
REMARK                         _______ _______ _______ _____ _____    ______ ____
ROOT
ATOM      2  S   UNL     1       1.478  -1.667  23.114  0.00  0.00    -0.057 S 
ATOM      4  O   UNL     1      -3.201   3.091  24.894  0.00  0.00    -0.461 OA
ATOM      5  O   UNL     1      -4.855   4.665  25.176  0.00  0.00    -0.251 OA
ATOM      6  O   UNL     1       4.568   1.687  24.051  0.00  0.00    -0.270 OA
ATOM      7  N   UNL     1       1.768   0.733  24.033  0.00  0.00    -0.229 NA
ATOM      8  N   UNL     1       3.768  -0.405  23.316  0.00  0.00    -0.261 N 
ATOM      9  C   UNL     1      -2.046   0.921  24.334  0.00  0.00    +0.045 C 
ATOM     10  C   UNL     1      -2.224  -0.640  24.582  0.00  0.00    -0.021 C 
ATOM     11  C   UNL     1      -3.133   1.681  25.115  0.00  0.00    +0.184 C 
ATOM     12  C   UNL     1      -4.512   1.230  24.673  0.00  0.00    +0.044 C 
ATOM     13  C   UNL     1      -3.692  -1.080  24.292  0.00  0.00    +0.008 C 
ATOM     14  C   UNL     1      -4.752  -0.229  25.005  0.00  0.00    +0.008 C 
ATOM     15  C   UNL     1      -0.584   1.418  24.624  0.00  0.00    +0.043 C 
ATOM     16  C   UNL     1      -1.282  -1.420  23.613  0.00  0.00    +0.051 C 
ATOM     17  C   UNL     1      -5.377   2.280  25.342  0.00  0.00    +0.101 C 
ATOM     18  C   UNL     1      -1.882  -1.044  26.041  0.00  0.00    +0.012 C 
ATOM     19  C   UNL     1       0.419   0.433  24.076  0.00  0.00    +0.057 A 
ATOM     20  C   UNL     1       0.088  -0.835  23.638  0.00  0.00    +0.015 A 
ATOM     21  C   UNL     1      -4.496   3.498  25.134  0.00  0.00    +0.311 C 
ATOM     22  C   UNL     1      -0.319   2.819  24.056  0.00  0.00    +0.014 C 
ATOM     23  C   UNL     1      -6.743   2.431  24.699  0.00  0.00    +0.019 C 
ATOM     24  C   UNL     1       2.421  -0.295  23.536  0.00  0.00    +0.165 A 
ATOM     25  C   UNL     1       4.745   0.569  23.579  0.00  0.00    +0.250 C 
ATOM     32  H   UNL     1       4.045  -1.317  22.966  0.00  0.00    +0.157 HD
ENDROOT
BRANCH  25  26
ATOM      1 CL   UNL     1       9.805   1.401  24.204  0.00  0.00    -0.081 Cl
ATOM      3  F   UNL     1       9.989  -0.954  22.411  0.00  0.00    -0.204 F 
ATOM     26  C   UNL     1       6.143   0.168  23.270  0.00  0.00    +0.039 A 
ATOM     27  C   UNL     1       7.180   0.892  23.821  0.00  0.00    +0.036 A 
ATOM     28  C   UNL     1       6.356  -0.916  22.445  0.00  0.00    +0.016 A 
ATOM     29  C   UNL     1       8.491   0.514  23.532  0.00  0.00    +0.077 A 
ATOM     30  C   UNL     1       7.667  -1.294  22.156  0.00  0.00    +0.040 A 
ATOM     31  C   UNL     1       8.735  -0.579  22.699  0.00  0.00    +0.142 A 
ENDBRANCH  25  26
TORSDOF 1
ENDMDL
