MODEL 1
REMARK VINA RESULT:      -3.7      0.000      0.000
REMARK  Name = 45783383
REMARK  10 active torsions:
REMARK  status: ('A' for Active; 'I' for Inactive)
REMARK    1  A    between atoms: O_2  and  C_24
REMARK    2  A    between atoms: O_2  and  C_25
REMARK    3  A    between atoms: N_3  and  C_12
REMARK    4  A    between atoms: N_6  and  C_22
REMARK    5  A    between atoms: C_8  and  C_14
REMARK    6  A    between atoms: C_12  and  C_13
REMARK    7  A    between atoms: C_13  and  C_15
REMARK    8  A    between atoms: C_13  and  C_16
REMARK    9  A    between atoms: C_17  and  C_18
REMARK   10  A    between atoms: C_22  and  C_24
REMARK                            x       y       z     vdW  Elec       q    Type
REMARK                         _______ _______ _______ _____ _____    ______ ____
ROOT
ATOM      1  O   UNL     1      -6.620  -8.397  10.315  0.00  0.00    -0.336 OA
ATOM      4  N   UNL     1      -6.046 -10.500  10.828  0.00  0.00    -0.190 NA
ATOM      5  N   UNL     1      -5.377  -8.317  10.956  0.00  0.00    -0.056 NA
ATOM     14  C   UNL     1      -6.941  -9.717  10.282  0.00  0.00    +0.245 A 
ATOM     17  C   UNL     1      -5.105  -9.596  11.228  0.00  0.00    +0.205 A 
ENDROOT
BRANCH  17  18
ATOM      6  N   UNL     1      -5.090 -10.337  13.969  0.00  0.00    -0.326 N 
ATOM      7  N   UNL     1      -2.763 -10.758  13.890  0.00  0.00    -0.240 NA
ATOM     18  C   UNL     1      -3.904 -10.004  11.897  0.00  0.00    +0.062 A 
ATOM     19  C   UNL     1      -3.878 -10.369  13.234  0.00  0.00    +0.130 A 
ATOM     20  C   UNL     1      -2.708 -10.041  11.189  0.00  0.00    +0.016 A 
ATOM     21  C   UNL     1      -1.539 -10.436  11.830  0.00  0.00    +0.020 A 
ATOM     23  C   UNL     1      -1.618 -10.781  13.170  0.00  0.00    +0.113 A 
ATOM     26  H   UNL     1      -5.941 -10.414  13.426  0.00  0.00    +0.148 HD
BRANCH   6  22
ATOM     22  C   UNL     1      -5.162 -10.694  15.348  0.00  0.00    +0.131 C 
BRANCH  22  24
ATOM     24  C   UNL     1      -5.945  -9.644  16.117  0.00  0.00    +0.178 C 
BRANCH  24   2
ATOM      2  O   UNL     1      -6.409 -10.200  17.340  0.00  0.00    -0.381 OA
ATOM     25  C   UNL     1      -7.636  -9.611  17.748  0.00  0.00    +0.194 C 
ENDBRANCH  24   2
ENDBRANCH  22  24
ENDBRANCH   6  22
ENDBRANCH  17  18
BRANCH  14   8
ATOM      3  N   UNL     1      -9.422  -9.736  10.476  0.00  0.00    -0.291 NA
ATOM      8  C   UNL     1      -8.260 -10.074   9.629  0.00  0.00    +0.146 C 
ATOM      9  C   UNL     1      -8.499  -9.309   8.314  0.00  0.00    +0.030 C 
ATOM     10  C   UNL     1     -10.529  -9.449   9.563  0.00  0.00    +0.085 C 
ATOM     11  C   UNL     1      -9.846  -8.622   8.493  0.00  0.00    +0.017 C 
BRANCH   3  12
ATOM     12  C   UNL     1      -9.758 -10.781  11.434  0.00  0.00    +0.088 C 
BRANCH  12  13
ATOM     13  C   UNL     1      -9.864 -10.248  12.872  0.00  0.00    -0.003 C 
ATOM     15  C   UNL     1      -8.464  -9.967  13.424  0.00  0.00    +0.008 C 
ATOM     16  C   UNL     1     -10.719  -8.981  12.968  0.00  0.00    +0.008 C 
ENDBRANCH  12  13
ENDBRANCH   3  12
ENDBRANCH  14   8
TORSDOF 7
ENDMDL
MODEL 2
REMARK VINA RESULT:      -1.4     14.934     17.612
REMARK  Name = 45783383
REMARK  10 active torsions:
REMARK  status: ('A' for Active; 'I' for Inactive)
REMARK    1  A    between atoms: O_2  and  C_24
REMARK    2  A    between atoms: O_2  and  C_25
REMARK    3  A    between atoms: N_3  and  C_12
REMARK    4  A    between atoms: N_6  and  C_22
REMARK    5  A    between atoms: C_8  and  C_14
REMARK    6  A    between atoms: C_12  and  C_13
REMARK    7  A    between atoms: C_13  and  C_15
REMARK    8  A    between atoms: C_13  and  C_16
REMARK    9  A    between atoms: C_17  and  C_18
REMARK   10  A    between atoms: C_22  and  C_24
REMARK                            x       y       z     vdW  Elec       q    Type
REMARK                         _______ _______ _______ _____ _____    ______ ____
ROOT
ATOM      1  O   UNL     1      -0.587   3.348  25.933  0.00  0.00    -0.336 OA
ATOM      4  N   UNL     1      -0.891   2.422  23.916  0.00  0.00    -0.190 NA
ATOM      5  N   UNL     1       0.563   2.592  25.673  0.00  0.00    -0.056 NA
ATOM     14  C   UNL     1      -1.391   3.193  24.849  0.00  0.00    +0.245 A 
ATOM     17  C   UNL     1       0.309   2.078  24.467  0.00  0.00    +0.205 A 
ENDROOT
BRANCH  17  18
ATOM      6  N   UNL     1      -0.179  -0.703  24.159  0.00  0.00    -0.326 N 
ATOM      7  N   UNL     1       1.859  -0.979  22.989  0.00  0.00    -0.240 NA
ATOM     18  C   UNL     1       1.231   1.216  23.785  0.00  0.00    +0.062 A 
ATOM     19  C   UNL     1       1.009  -0.143  23.626  0.00  0.00    +0.130 A 
ATOM     20  C   UNL     1       2.401   1.750  23.257  0.00  0.00    +0.016 A 
ATOM     21  C   UNL     1       3.300   0.922  22.595  0.00  0.00    +0.020 A 
ATOM     23  C   UNL     1       2.986  -0.423  22.489  0.00  0.00    +0.113 A 
ATOM     26  H   UNL     1      -0.952  -0.062  24.290  0.00  0.00    +0.148 HD
BRANCH   6  22
ATOM     22  C   UNL     1      -0.494  -2.090  24.045  0.00  0.00    +0.131 C 
BRANCH  22  24
ATOM     24  C   UNL     1      -1.750  -2.405  24.839  0.00  0.00    +0.178 C 
BRANCH  24   2
ATOM      2  O   UNL     1      -2.598  -3.247  24.069  0.00  0.00    -0.381 OA
ATOM     25  C   UNL     1      -3.963  -2.871  24.200  0.00  0.00    +0.194 C 
ENDBRANCH  24   2
ENDBRANCH  22  24
ENDBRANCH   6  22
ENDBRANCH  17  18
BRANCH  14   8
ATOM      3  N   UNL     1      -3.858   3.013  25.124  0.00  0.00    -0.291 NA
ATOM      8  C   UNL     1      -2.718   3.921  24.884  0.00  0.00    +0.146 C 
ATOM      9  C   UNL     1      -2.798   4.957  26.020  0.00  0.00    +0.030 C 
ATOM     10  C   UNL     1      -4.878   3.803  25.814  0.00  0.00    +0.085 C 
ATOM     11  C   UNL     1      -4.046   4.588  26.809  0.00  0.00    +0.017 C 
BRANCH   3  12
ATOM     12  C   UNL     1      -4.371   2.401  23.906  0.00  0.00    +0.088 C 
BRANCH  12  13
ATOM     13  C   UNL     1      -4.323   0.864  23.955  0.00  0.00    -0.003 C 
ATOM     15  C   UNL     1      -3.203   0.352  23.047  0.00  0.00    +0.008 C 
ATOM     16  C   UNL     1      -4.120   0.328  25.376  0.00  0.00    +0.008 C 
ENDBRANCH  12  13
ENDBRANCH   3  12
ENDBRANCH  14   8
TORSDOF 7
ENDMDL
MODEL 3
REMARK VINA RESULT:      -1.4     15.487     18.192
REMARK  Name = 45783383
REMARK  10 active torsions:
REMARK  status: ('A' for Active; 'I' for Inactive)
REMARK    1  A    between atoms: O_2  and  C_24
REMARK    2  A    between atoms: O_2  and  C_25
REMARK    3  A    between atoms: N_3  and  C_12
REMARK    4  A    between atoms: N_6  and  C_22
REMARK    5  A    between atoms: C_8  and  C_14
REMARK    6  A    between atoms: C_12  and  C_13
REMARK    7  A    between atoms: C_13  and  C_15
REMARK    8  A    between atoms: C_13  and  C_16
REMARK    9  A    between atoms: C_17  and  C_18
REMARK   10  A    between atoms: C_22  and  C_24
REMARK                            x       y       z     vdW  Elec       q    Type
REMARK                         _______ _______ _______ _____ _____    ______ ____
ROOT
ATOM      1  O   UNL     1      -3.713  -1.251  23.964  0.00  0.00    -0.336 OA
ATOM      4  N   UNL     1      -2.697   0.636  24.613  0.00  0.00    -0.190 NA
ATOM      5  N   UNL     1      -4.735  -0.336  24.246  0.00  0.00    -0.056 NA
ATOM     14  C   UNL     1      -2.546  -0.599  24.206  0.00  0.00    +0.245 A 
ATOM     17  C   UNL     1      -4.057   0.752  24.622  0.00  0.00    +0.205 A 
ENDROOT
BRANCH  17  18
ATOM      6  N   UNL     1      -2.697   3.246  24.629  0.00  0.00    -0.326 N 
ATOM      7  N   UNL     1      -4.644   4.358  25.386  0.00  0.00    -0.240 NA
ATOM     18  C   UNL     1      -4.706   1.970  25.013  0.00  0.00    +0.062 A 
ATOM     19  C   UNL     1      -4.058   3.195  25.023  0.00  0.00    +0.130 A 
ATOM     20  C   UNL     1      -6.041   1.937  25.401  0.00  0.00    +0.016 A 
ATOM     21  C   UNL     1      -6.678   3.112  25.781  0.00  0.00    +0.020 A 
ATOM     23  C   UNL     1      -5.942   4.286  25.757  0.00  0.00    +0.113 A 
ATOM     26  H   UNL     1      -2.381   2.495  24.027  0.00  0.00    +0.148 HD
BRANCH   6  22
ATOM     22  C   UNL     1      -1.948   4.459  24.608  0.00  0.00    +0.131 C 
BRANCH  22  24
ATOM     24  C   UNL     1      -0.513   4.191  25.026  0.00  0.00    +0.178 C 
BRANCH  24   2
ATOM      2  O   UNL     1      -0.319   2.791  25.183  0.00  0.00    -0.381 OA
ATOM     25  C   UNL     1       0.141   2.472  26.490  0.00  0.00    +0.194 C 
ENDBRANCH  24   2
ENDBRANCH  22  24
ENDBRANCH   6  22
ENDBRANCH  17  18
BRANCH  14   8
ATOM      3  N   UNL     1      -0.067  -0.657  24.418  0.00  0.00    -0.291 NA
ATOM      8  C   UNL     1      -1.273  -1.384  23.972  0.00  0.00    +0.146 C 
ATOM      9  C   UNL     1      -1.241  -2.710  24.755  0.00  0.00    +0.030 C 
ATOM     10  C   UNL     1       0.910  -1.674  24.805  0.00  0.00    +0.085 C 
ATOM     11  C   UNL     1       0.048  -2.663  25.564  0.00  0.00    +0.017 C 
BRANCH   3  12
ATOM     12  C   UNL     1       0.460   0.253  23.409  0.00  0.00    +0.088 C 
BRANCH  12  13
ATOM     13  C   UNL     1       1.710  -0.305  22.709  0.00  0.00    -0.003 C 
ATOM     15  C   UNL     1       1.392  -0.603  21.242  0.00  0.00    +0.008 C 
ATOM     16  C   UNL     1       2.906   0.648  22.794  0.00  0.00    +0.008 C 
ENDBRANCH  12  13
ENDBRANCH   3  12
ENDBRANCH  14   8
TORSDOF 7
ENDMDL
MODEL 4
REMARK VINA RESULT:      -1.4     14.689     17.864
REMARK  Name = 45783383
REMARK  10 active torsions:
REMARK  status: ('A' for Active; 'I' for Inactive)
REMARK    1  A    between atoms: O_2  and  C_24
REMARK    2  A    between atoms: O_2  and  C_25
REMARK    3  A    between atoms: N_3  and  C_12
REMARK    4  A    between atoms: N_6  and  C_22
REMARK    5  A    between atoms: C_8  and  C_14
REMARK    6  A    between atoms: C_12  and  C_13
REMARK    7  A    between atoms: C_13  and  C_15
REMARK    8  A    between atoms: C_13  and  C_16
REMARK    9  A    between atoms: C_17  and  C_18
REMARK   10  A    between atoms: C_22  and  C_24
REMARK                            x       y       z     vdW  Elec       q    Type
REMARK                         _______ _______ _______ _____ _____    ______ ____
ROOT
ATOM      1  O   UNL     1      -5.395   1.888  25.253  0.00  0.00    -0.336 OA
ATOM      4  N   UNL     1      -3.273   1.362  24.768  0.00  0.00    -0.190 NA
ATOM      5  N   UNL     1      -5.379   0.507  25.025  0.00  0.00    -0.056 NA
ATOM     14  C   UNL     1      -4.116   2.313  25.081  0.00  0.00    +0.245 A 
ATOM     17  C   UNL     1      -4.094   0.272  24.745  0.00  0.00    +0.205 A 
ENDROOT
BRANCH  17  18
ATOM      6  N   UNL     1      -1.313  -0.285  24.596  0.00  0.00    -0.326 N 
ATOM      7  N   UNL     1      -1.749  -2.552  24.074  0.00  0.00    -0.240 NA
ATOM     18  C   UNL     1      -3.598  -1.039  24.438  0.00  0.00    +0.062 A 
ATOM     19  C   UNL     1      -2.245  -1.329  24.361  0.00  0.00    +0.130 A 
ATOM     20  C   UNL     1      -4.499  -2.072  24.205  0.00  0.00    +0.016 A 
ATOM     21  C   UNL     1      -4.026  -3.345  23.907  0.00  0.00    +0.020 A 
ATOM     23  C   UNL     1      -2.654  -3.532  23.853  0.00  0.00    +0.113 A 
ATOM     26  H   UNL     1      -1.648   0.491  25.154  0.00  0.00    +0.148 HD
BRANCH   6  22
ATOM     22  C   UNL     1       0.098  -0.488  24.538  0.00  0.00    +0.131 C 
BRANCH  22  24
ATOM     24  C   UNL     1       0.604  -0.219  23.132  0.00  0.00    +0.178 C 
BRANCH  24   2
ATOM      2  O   UNL     1       1.732   0.645  23.192  0.00  0.00    -0.381 OA
ATOM     25  C   UNL     1       2.808   0.151  22.406  0.00  0.00    +0.194 C 
ENDBRANCH  24   2
ENDBRANCH  22  24
ENDBRANCH   6  22
ENDBRANCH  17  18
BRANCH  14   8
ATOM      3  N   UNL     1      -2.473   4.178  24.965  0.00  0.00    -0.291 NA
ATOM      8  C   UNL     1      -3.865   3.793  25.275  0.00  0.00    +0.146 C 
ATOM      9  C   UNL     1      -4.728   4.669  24.347  0.00  0.00    +0.030 C 
ATOM     10  C   UNL     1      -2.521   5.566  24.503  0.00  0.00    +0.085 C 
ATOM     11  C   UNL     1      -3.739   5.554  23.602  0.00  0.00    +0.017 C 
BRANCH   3  12
ATOM     12  C   UNL     1      -1.566   4.007  26.092  0.00  0.00    +0.088 C 
BRANCH  12  13
ATOM     13  C   UNL     1      -0.181   3.495  25.659  0.00  0.00    -0.003 C 
ATOM     15  C   UNL     1       0.224   2.301  26.526  0.00  0.00    +0.008 C 
ATOM     16  C   UNL     1      -0.137   3.097  24.181  0.00  0.00    +0.008 C 
ENDBRANCH  12  13
ENDBRANCH   3  12
ENDBRANCH  14   8
TORSDOF 7
ENDMDL
MODEL 5
REMARK VINA RESULT:      -1.1     14.638     17.784
REMARK  Name = 45783383
REMARK  10 active torsions:
REMARK  status: ('A' for Active; 'I' for Inactive)
REMARK    1  A    between atoms: O_2  and  C_24
REMARK    2  A    between atoms: O_2  and  C_25
REMARK    3  A    between atoms: N_3  and  C_12
REMARK    4  A    between atoms: N_6  and  C_22
REMARK    5  A    between atoms: C_8  and  C_14
REMARK    6  A    between atoms: C_12  and  C_13
REMARK    7  A    between atoms: C_13  and  C_15
REMARK    8  A    between atoms: C_13  and  C_16
REMARK    9  A    between atoms: C_17  and  C_18
REMARK   10  A    between atoms: C_22  and  C_24
REMARK                            x       y       z     vdW  Elec       q    Type
REMARK                         _______ _______ _______ _____ _____    ______ ____
ROOT
ATOM      1  O   UNL     1      -4.003   2.161  23.735  0.00  0.00    -0.336 OA
ATOM      4  N   UNL     1      -3.878   0.705  25.432  0.00  0.00    -0.190 NA
ATOM      5  N   UNL     1      -3.527   0.963  23.186  0.00  0.00    -0.056 NA
ATOM     14  C   UNL     1      -4.182   1.922  25.060  0.00  0.00    +0.245 A 
ATOM     17  C   UNL     1      -3.481   0.154  24.248  0.00  0.00    +0.205 A 
ENDROOT
BRANCH  17  18
ATOM      6  N   UNL     1      -0.734  -0.530  24.021  0.00  0.00    -0.326 N 
ATOM      7  N   UNL     1      -1.265  -2.836  23.966  0.00  0.00    -0.240 NA
ATOM     18  C   UNL     1      -3.043  -1.209  24.161  0.00  0.00    +0.062 A 
ATOM     19  C   UNL     1      -1.707  -1.562  24.049  0.00  0.00    +0.130 A 
ATOM     20  C   UNL     1      -3.985  -2.232  24.188  0.00  0.00    +0.016 A 
ATOM     21  C   UNL     1      -3.568  -3.555  24.104  0.00  0.00    +0.020 A 
ATOM     23  C   UNL     1      -2.209  -3.803  23.995  0.00  0.00    +0.113 A 
ATOM     26  H   UNL     1      -1.006   0.349  24.443  0.00  0.00    +0.148 HD
BRANCH   6  22
ATOM     22  C   UNL     1       0.663  -0.795  23.908  0.00  0.00    +0.131 C 
BRANCH  22  24
ATOM     24  C   UNL     1       1.286   0.133  22.879  0.00  0.00    +0.178 C 
BRANCH  24   2
ATOM      2  O   UNL     1       2.631  -0.262  22.637  0.00  0.00    -0.381 OA
ATOM     25  C   UNL     1       3.517   0.847  22.692  0.00  0.00    +0.194 C 
ENDBRANCH  24   2
ENDBRANCH  22  24
ENDBRANCH   6  22
ENDBRANCH  17  18
BRANCH  14   8
ATOM      3  N   UNL     1      -4.137   4.377  25.466  0.00  0.00    -0.291 NA
ATOM      8  C   UNL     1      -4.699   3.079  25.890  0.00  0.00    +0.146 C 
ATOM      9  C   UNL     1      -6.224   3.258  25.776  0.00  0.00    +0.030 C 
ATOM     10  C   UNL     1      -5.146   5.388  25.782  0.00  0.00    +0.085 C 
ATOM     11  C   UNL     1      -6.424   4.703  25.342  0.00  0.00    +0.017 C 
BRANCH   3  12
ATOM     12  C   UNL     1      -2.851   4.675  26.082  0.00  0.00    +0.088 C 
BRANCH  12  13
ATOM     13  C   UNL     1      -1.666   4.154  25.251  0.00  0.00    -0.003 C 
ATOM     15  C   UNL     1      -0.754   5.320  24.862  0.00  0.00    +0.008 C 
ATOM     16  C   UNL     1      -0.852   3.089  25.991  0.00  0.00    +0.008 C 
ENDBRANCH  12  13
ENDBRANCH   3  12
ENDBRANCH  14   8
TORSDOF 7
ENDMDL
MODEL 6
REMARK VINA RESULT:      -0.2     15.021     18.040
REMARK  Name = 45783383
REMARK  10 active torsions:
REMARK  status: ('A' for Active; 'I' for Inactive)
REMARK    1  A    between atoms: O_2  and  C_24
REMARK    2  A    between atoms: O_2  and  C_25
REMARK    3  A    between atoms: N_3  and  C_12
REMARK    4  A    between atoms: N_6  and  C_22
REMARK    5  A    between atoms: C_8  and  C_14
REMARK    6  A    between atoms: C_12  and  C_13
REMARK    7  A    between atoms: C_13  and  C_15
REMARK    8  A    between atoms: C_13  and  C_16
REMARK    9  A    between atoms: C_17  and  C_18
REMARK   10  A    between atoms: C_22  and  C_24
REMARK                            x       y       z     vdW  Elec       q    Type
REMARK                         _______ _______ _______ _____ _____    ______ ____
ROOT
ATOM      1  O   UNL     1       0.124   3.157  24.335  0.00  0.00    -0.336 OA
ATOM      4  N   UNL     1      -1.529   1.676  24.639  0.00  0.00    -0.190 NA
ATOM      5  N   UNL     1      -1.032   3.908  24.581  0.00  0.00    -0.056 NA
ATOM     14  C   UNL     1      -0.256   1.854  24.387  0.00  0.00    +0.245 A 
ATOM     17  C   UNL     1      -1.963   2.965  24.751  0.00  0.00    +0.205 A 
ENDROOT
BRANCH  17  18
ATOM      6  N   UNL     1      -4.003   0.993  24.646  0.00  0.00    -0.326 N 
ATOM      7  N   UNL     1      -5.643   2.591  25.246  0.00  0.00    -0.240 NA
ATOM     18  C   UNL     1      -3.334   3.277  25.033  0.00  0.00    +0.062 A 
ATOM     19  C   UNL     1      -4.343   2.327  24.986  0.00  0.00    +0.130 A 
ATOM     20  C   UNL     1      -3.683   4.580  25.368  0.00  0.00    +0.016 A 
ATOM     21  C   UNL     1      -5.010   4.890  25.642  0.00  0.00    +0.020 A 
ATOM     23  C   UNL     1      -5.944   3.869  25.568  0.00  0.00    +0.113 A 
ATOM     26  H   UNL     1      -3.042   0.723  24.816  0.00  0.00    +0.148 HD
BRANCH   6  22
ATOM     22  C   UNL     1      -4.972  -0.052  24.572  0.00  0.00    +0.131 C 
BRANCH  22  24
ATOM     24  C   UNL     1      -4.360  -1.282  23.925  0.00  0.00    +0.178 C 
BRANCH  24   2
ATOM      2  O   UNL     1      -3.895  -2.167  24.936  0.00  0.00    -0.381 OA
ATOM     25  C   UNL     1      -3.375  -3.367  24.378  0.00  0.00    +0.194 C 
ENDBRANCH  24   2
ENDBRANCH  22  24
ENDBRANCH   6  22
ENDBRANCH  17  18
BRANCH  14   8
ATOM      3  N   UNL     1       0.436  -0.194  23.153  0.00  0.00    -0.291 NA
ATOM      8  C   UNL     1       0.828   0.825  24.149  0.00  0.00    +0.146 C 
ATOM      9  C   UNL     1       2.122   1.443  23.587  0.00  0.00    +0.030 C 
ATOM     10  C   UNL     1       1.672  -0.640  22.510  0.00  0.00    +0.085 C 
ATOM     11  C   UNL     1       2.411   0.668  22.309  0.00  0.00    +0.017 C 
BRANCH   3  12
ATOM     12  C   UNL     1      -0.313  -1.302  23.729  0.00  0.00    +0.088 C 
BRANCH  12  13
ATOM     13  C   UNL     1      -0.038  -1.479  25.232  0.00  0.00    -0.003 C 
ATOM     15  C   UNL     1      -1.278  -1.079  26.035  0.00  0.00    +0.008 C 
ATOM     16  C   UNL     1       0.369  -2.911  25.591  0.00  0.00    +0.008 C 
ENDBRANCH  12  13
ENDBRANCH   3  12
ENDBRANCH  14   8
TORSDOF 7
ENDMDL
MODEL 7
REMARK VINA RESULT:      -0.1     15.000     18.137
REMARK  Name = 45783383
REMARK  10 active torsions:
REMARK  status: ('A' for Active; 'I' for Inactive)
REMARK    1  A    between atoms: O_2  and  C_24
REMARK    2  A    between atoms: O_2  and  C_25
REMARK    3  A    between atoms: N_3  and  C_12
REMARK    4  A    between atoms: N_6  and  C_22
REMARK    5  A    between atoms: C_8  and  C_14
REMARK    6  A    between atoms: C_12  and  C_13
REMARK    7  A    between atoms: C_13  and  C_15
REMARK    8  A    between atoms: C_13  and  C_16
REMARK    9  A    between atoms: C_17  and  C_18
REMARK   10  A    between atoms: C_22  and  C_24
REMARK                            x       y       z     vdW  Elec       q    Type
REMARK                         _______ _______ _______ _____ _____    ______ ____
ROOT
ATOM      1  O   UNL     1       0.244   0.430  24.446  0.00  0.00    -0.336 OA
ATOM      4  N   UNL     1      -1.473   1.303  25.588  0.00  0.00    -0.190 NA
ATOM      5  N   UNL     1       0.264   1.807  24.188  0.00  0.00    -0.056 NA
ATOM     14  C   UNL     1      -0.809   0.218  25.277  0.00  0.00    +0.245 A 
ATOM     17  C   UNL     1      -0.778   2.251  24.896  0.00  0.00    +0.205 A 
ENDROOT
BRANCH  17  18
ATOM      6  N   UNL     1      -3.392   3.084  25.629  0.00  0.00    -0.326 N 
ATOM      7  N   UNL     1      -2.802   5.356  25.333  0.00  0.00    -0.240 NA
ATOM     18  C   UNL     1      -1.151   3.636  24.934  0.00  0.00    +0.062 A 
ATOM     19  C   UNL     1      -2.422   4.060  25.289  0.00  0.00    +0.130 A 
ATOM     20  C   UNL     1      -0.210   4.605  24.603  0.00  0.00    +0.016 A 
ATOM     21  C   UNL     1      -0.564   5.949  24.637  0.00  0.00    +0.020 A 
ATOM     23  C   UNL     1      -1.861   6.270  25.004  0.00  0.00    +0.113 A 
ATOM     26  H   UNL     1      -3.032   2.194  25.951  0.00  0.00    +0.148 HD
BRANCH   6  22
ATOM     22  C   UNL     1      -4.725   3.424  26.006  0.00  0.00    +0.131 C 
BRANCH  22  24
ATOM     24  C   UNL     1      -5.687   3.084  24.881  0.00  0.00    +0.178 C 
BRANCH  24   2
ATOM      2  O   UNL     1      -6.359   1.868  25.184  0.00  0.00    -0.381 OA
ATOM     25  C   UNL     1      -6.434   1.650  26.587  0.00  0.00    +0.194 C 
ENDBRANCH  24   2
ENDBRANCH  22  24
ENDBRANCH   6  22
ENDBRANCH  17  18
BRANCH  14   8
ATOM      3  N   UNL     1      -2.136  -1.861  24.949  0.00  0.00    -0.291 NA
ATOM      8  C   UNL     1      -1.049  -1.212  25.711  0.00  0.00    +0.146 C 
ATOM      9  C   UNL     1       0.178  -2.115  25.487  0.00  0.00    +0.030 C 
ATOM     10  C   UNL     1      -1.821  -3.289  24.915  0.00  0.00    +0.085 C 
ATOM     11  C   UNL     1      -0.331  -3.275  24.641  0.00  0.00    +0.017 C 
BRANCH   3  12
ATOM     12  C   UNL     1      -3.458  -1.605  25.504  0.00  0.00    +0.088 C 
BRANCH  12  13
ATOM     13  C   UNL     1      -4.478  -1.197  24.428  0.00  0.00    -0.003 C 
ATOM     15  C   UNL     1      -3.967   0.031  23.671  0.00  0.00    +0.008 C 
ATOM     16  C   UNL     1      -4.772  -2.327  23.437  0.00  0.00    +0.008 C 
ENDBRANCH  12  13
ENDBRANCH   3  12
ENDBRANCH  14   8
TORSDOF 7
ENDMDL
