MODEL 1
REMARK VINA RESULT:       1.4      0.000      0.000
REMARK  Name = 11912918
REMARK  7 active torsions:
REMARK  status: ('A' for Active; 'I' for Inactive)
REMARK    1  A    between atoms: N_4  and  C_10
REMARK    2  A    between atoms: N_5  and  C_11
REMARK    3  A    between atoms: C_15  and  C_18
REMARK    4  A    between atoms: C_16  and  C_17
REMARK    5  A    between atoms: C_16  and  C_20
REMARK    6  A    between atoms: C_16  and  C_21
REMARK    7  A    between atoms: C_16  and  C_22
REMARK                            x       y       z     vdW  Elec       q    Type
REMARK                         _______ _______ _______ _____ _____    ______ ____
ROOT
ATOM      1  O   UNL     1      -2.760  -2.529  24.070  0.00  0.00    -0.370 OA
ATOM      2  O   UNL     1      -1.680  -0.864  26.478  0.00  0.00    -0.370 OA
ATOM      8  C   UNL     1      -2.141  -0.508  25.163  0.00  0.00    +0.171 C 
ATOM      9  C   UNL     1      -1.676  -1.596  24.214  0.00  0.00    +0.171 C 
ATOM     10  C   UNL     1      -3.648  -0.580  25.098  0.00  0.00    +0.130 C 
ATOM     11  C   UNL     1      -0.517  -2.244  24.937  0.00  0.00    +0.130 C 
ATOM     12  C   UNL     1      -3.898  -2.047  24.799  0.00  0.00    +0.185 C 
ATOM     13  C   UNL     1      -0.904  -2.068  26.394  0.00  0.00    +0.185 C 
ENDROOT
BRANCH  10   4
ATOM      4  N   UNL     1      -4.137   0.242  24.014  0.00  0.00    -0.306 N 
ATOM      6  N   UNL     1      -3.023   2.147  24.810  0.00  0.00    -0.219 NA
ATOM      7  N   UNL     1      -4.355   2.241  22.804  0.00  0.00    -0.223 NA
ATOM     14  C   UNL     1      -3.829   1.583  23.872  0.00  0.00    +0.216 A 
ATOM     17  C   UNL     1      -2.743   3.457  24.641  0.00  0.00    +0.052 A 
ATOM     19  C   UNL     1      -3.224   4.214  23.593  0.00  0.00    +0.043 A 
ATOM     23  C   UNL     1      -4.033   3.548  22.697  0.00  0.00    +0.116 A 
ATOM     29  H   UNL     1      -4.695  -0.180  23.280  0.00  0.00    +0.149 HD
BRANCH  17  16
ATOM     16  C   UNL     1      -1.859   4.092  25.662  0.00  0.00    +0.005 C 
ATOM     20  C   UNL     1      -2.669   4.509  26.928  0.00  0.00    +0.017 C 
ATOM     21  C   UNL     1      -1.173   5.374  25.097  0.00  0.00    +0.017 C 
ATOM     22  C   UNL     1      -0.692   3.194  26.190  0.00  0.00    +0.017 C 
ENDBRANCH  17  16
ENDBRANCH  10   4
BRANCH  11   5
ATOM      3  O   UNL     1       0.142  -0.855  22.512  0.00  0.00    -0.270 OA
ATOM      5  N   UNL     1       0.724  -1.572  24.640  0.00  0.00    -0.304 N 
ATOM     15  C   UNL     1       0.951  -0.926  23.433  0.00  0.00    +0.244 C 
ATOM     30  H   UNL     1       1.479  -1.689  25.306  0.00  0.00    +0.149 HD
BRANCH  15  18
ATOM     18  C   UNL     1       2.292  -0.306  23.270  0.00  0.00    +0.037 A 
ATOM     24  C   UNL     1       2.375   1.005  22.849  0.00  0.00    +0.013 A 
ATOM     25  C   UNL     1       3.412  -1.063  23.546  0.00  0.00    +0.013 A 
ATOM     26  C   UNL     1       3.635   1.586  22.699  0.00  0.00    +0.001 A 
ATOM     27  C   UNL     1       4.672  -0.482  23.396  0.00  0.00    +0.001 A 
ATOM     28  C   UNL     1       4.782   0.842  22.972  0.00  0.00    +0.000 A 
ENDBRANCH  15  18
ENDBRANCH  11   5
TORSDOF 4
ENDMDL
MODEL 2
REMARK VINA RESULT:       4.2      2.623      4.048
REMARK  Name = 11912918
REMARK  7 active torsions:
REMARK  status: ('A' for Active; 'I' for Inactive)
REMARK    1  A    between atoms: N_4  and  C_10
REMARK    2  A    between atoms: N_5  and  C_11
REMARK    3  A    between atoms: C_15  and  C_18
REMARK    4  A    between atoms: C_16  and  C_17
REMARK    5  A    between atoms: C_16  and  C_20
REMARK    6  A    between atoms: C_16  and  C_21
REMARK    7  A    between atoms: C_16  and  C_22
REMARK                            x       y       z     vdW  Elec       q    Type
REMARK                         _______ _______ _______ _____ _____    ______ ____
ROOT
ATOM      1  O   UNL     1      -2.541   0.996  23.404  0.00  0.00    -0.370 OA
ATOM      2  O   UNL     1      -1.217  -1.484  24.760  0.00  0.00    -0.370 OA
ATOM      8  C   UNL     1      -2.322  -0.637  25.121  0.00  0.00    +0.171 C 
ATOM      9  C   UNL     1      -1.963   0.775  24.701  0.00  0.00    +0.171 C 
ATOM     10  C   UNL     1      -3.535  -0.974  24.286  0.00  0.00    +0.130 C 
ATOM     11  C   UNL     1      -0.454   0.758  24.609  0.00  0.00    +0.130 C 
ATOM     12  C   UNL     1      -3.309  -0.156  23.027  0.00  0.00    +0.185 C 
ATOM     13  C   UNL     1      -0.169  -0.677  24.203  0.00  0.00    +0.185 C 
ENDROOT
BRANCH  10   4
ATOM      4  N   UNL     1      -4.737  -0.534  24.959  0.00  0.00    -0.306 N 
ATOM      6  N   UNL     1      -4.145   1.729  24.774  0.00  0.00    -0.219 NA
ATOM      7  N   UNL     1      -6.204   1.071  25.842  0.00  0.00    -0.223 NA
ATOM     14  C   UNL     1      -5.038   0.795  25.199  0.00  0.00    +0.216 A 
ATOM     17  C   UNL     1      -4.470   3.015  25.024  0.00  0.00    +0.052 A 
ATOM     19  C   UNL     1      -5.627   3.402  25.668  0.00  0.00    +0.043 A 
ATOM     23  C   UNL     1      -6.464   2.378  26.058  0.00  0.00    +0.116 A 
ATOM     29  H   UNL     1      -5.434  -1.218  25.233  0.00  0.00    +0.149 HD
BRANCH  17  16
ATOM     16  C   UNL     1      -3.501   4.053  24.564  0.00  0.00    +0.005 C 
ATOM     20  C   UNL     1      -2.640   4.586  25.750  0.00  0.00    +0.017 C 
ATOM     21  C   UNL     1      -4.240   5.273  23.931  0.00  0.00    +0.017 C 
ATOM     22  C   UNL     1      -2.475   3.580  23.482  0.00  0.00    +0.017 C 
ENDBRANCH  17  16
ENDBRANCH  10   4
BRANCH  11   5
ATOM      3  O   UNL     1      -0.073   3.376  25.724  0.00  0.00    -0.270 OA
ATOM      5  N   UNL     1       0.150   1.073  25.880  0.00  0.00    -0.304 N 
ATOM     15  C   UNL     1       0.292   2.376  26.336  0.00  0.00    +0.244 C 
ATOM     30  H   UNL     1       0.580   0.306  26.386  0.00  0.00    +0.149 HD
BRANCH  15  18
ATOM     18  C   UNL     1       0.960   2.535  27.653  0.00  0.00    +0.037 A 
ATOM     24  C   UNL     1       0.231   2.316  28.803  0.00  0.00    +0.013 A 
ATOM     25  C   UNL     1       2.292   2.896  27.683  0.00  0.00    +0.013 A 
ATOM     26  C   UNL     1       0.861   2.463  30.039  0.00  0.00    +0.001 A 
ATOM     27  C   UNL     1       2.922   3.043  28.920  0.00  0.00    +0.001 A 
ATOM     28  C   UNL     1       2.206   2.827  30.097  0.00  0.00    +0.000 A 
ENDBRANCH  15  18
ENDBRANCH  11   5
TORSDOF 4
ENDMDL
MODEL 3
REMARK VINA RESULT:       4.5      2.369      5.344
REMARK  Name = 11912918
REMARK  7 active torsions:
REMARK  status: ('A' for Active; 'I' for Inactive)
REMARK    1  A    between atoms: N_4  and  C_10
REMARK    2  A    between atoms: N_5  and  C_11
REMARK    3  A    between atoms: C_15  and  C_18
REMARK    4  A    between atoms: C_16  and  C_17
REMARK    5  A    between atoms: C_16  and  C_20
REMARK    6  A    between atoms: C_16  and  C_21
REMARK    7  A    between atoms: C_16  and  C_22
REMARK                            x       y       z     vdW  Elec       q    Type
REMARK                         _______ _______ _______ _____ _____    ______ ____
ROOT
ATOM      1  O   UNL     1      -0.055   2.914  26.481  0.00  0.00    -0.370 OA
ATOM      2  O   UNL     1      -0.110   2.484  23.391  0.00  0.00    -0.370 OA
ATOM      8  C   UNL     1      -1.092   2.935  24.340  0.00  0.00    +0.171 C 
ATOM      9  C   UNL     1      -0.890   2.133  25.611  0.00  0.00    +0.171 C 
ATOM     10  C   UNL     1      -0.806   4.359  24.752  0.00  0.00    +0.130 C 
ATOM     11  C   UNL     1      -0.158   0.893  25.151  0.00  0.00    +0.130 C 
ATOM     12  C   UNL     1       0.206   4.186  25.870  0.00  0.00    +0.185 C 
ATOM     13  C   UNL     1       0.644   1.409  23.969  0.00  0.00    +0.185 C 
ENDROOT
BRANCH  10   4
ATOM      4  N   UNL     1      -2.011   4.978  25.260  0.00  0.00    -0.306 N 
ATOM      6  N   UNL     1      -3.273   3.023  24.965  0.00  0.00    -0.219 NA
ATOM      7  N   UNL     1      -4.278   5.021  25.862  0.00  0.00    -0.223 NA
ATOM     14  C   UNL     1      -3.223   4.321  25.366  0.00  0.00    +0.216 A 
ATOM     17  C   UNL     1      -4.470   2.412  25.082  0.00  0.00    +0.052 A 
ATOM     19  C   UNL     1      -5.602   3.031  25.573  0.00  0.00    +0.043 A 
ATOM     23  C   UNL     1      -5.445   4.348  25.951  0.00  0.00    +0.116 A 
ATOM     29  H   UNL     1      -1.973   5.929  25.611  0.00  0.00    +0.149 HD
BRANCH  17  16
ATOM     16  C   UNL     1      -4.542   0.986  24.647  0.00  0.00    +0.005 C 
ATOM     20  C   UNL     1      -6.003   0.581  24.281  0.00  0.00    +0.017 C 
ATOM     21  C   UNL     1      -4.055   0.026  25.776  0.00  0.00    +0.017 C 
ATOM     22  C   UNL     1      -3.681   0.624  23.392  0.00  0.00    +0.017 C 
ENDBRANCH  17  16
ENDBRANCH  10   4
BRANCH  11   5
ATOM      3  O   UNL     1       0.073  -1.918  25.685  0.00  0.00    -0.270 OA
ATOM      5  N   UNL     1      -1.081  -0.139  24.747  0.00  0.00    -0.304 N 
ATOM     15  C   UNL     1      -0.883  -1.478  25.053  0.00  0.00    +0.244 C 
ATOM     30  H   UNL     1      -1.832   0.136  24.123  0.00  0.00    +0.149 HD
BRANCH  15  18
ATOM     18  C   UNL     1      -1.911  -2.421  24.541  0.00  0.00    +0.037 A 
ATOM     24  C   UNL     1      -1.574  -3.287  23.522  0.00  0.00    +0.013 A 
ATOM     25  C   UNL     1      -3.171  -2.400  25.103  0.00  0.00    +0.013 A 
ATOM     26  C   UNL     1      -2.539  -4.174  23.045  0.00  0.00    +0.001 A 
ATOM     27  C   UNL     1      -4.136  -3.287  24.625  0.00  0.00    +0.001 A 
ATOM     28  C   UNL     1      -3.820  -4.173  23.595  0.00  0.00    +0.000 A 
ENDBRANCH  15  18
ENDBRANCH  11   5
TORSDOF 4
ENDMDL
