MODEL 1
REMARK VINA RESULT:      -1.0      0.000      0.000
REMARK  Name = 38030984
REMARK  11 active torsions:
REMARK  status: ('A' for Active; 'I' for Inactive)
REMARK    1  A    between atoms: O_2  and  C_24
REMARK    2  A    between atoms: N_4  and  C_11
REMARK    3  A    between atoms: C_7  and  C_12
REMARK    4  A    between atoms: C_8  and  C_11
REMARK    5  A    between atoms: C_10  and  C_20
REMARK    6  A    between atoms: C_12  and  C_21
REMARK    7  A    between atoms: C_12  and  C_22
REMARK    8  A    between atoms: C_14  and  C_23
REMARK    9  A    between atoms: C_17  and  C_24
REMARK   10  A    between atoms: C_20  and  C_25
REMARK   11  A    between atoms: C_26  and  C_27
REMARK                            x       y       z     vdW  Elec       q    Type
REMARK                         _______ _______ _______ _____ _____    ______ ____
ROOT
ATOM      7  C   UNL     1      -2.637   2.748  25.803  0.00  0.00    +0.000 C 
ATOM      8  C   UNL     1      -4.131   2.800  25.408  0.00  0.00    +0.029 C 
ATOM      9  C   UNL     1      -1.836   1.939  24.773  0.00  0.00    +0.012 C 
ATOM     10  C   UNL     1      -1.968   2.481  23.333  0.00  0.00    +0.024 C 
ATOM     13  C   UNL     1      -4.333   3.072  23.939  0.00  0.00    -0.023 C 
ATOM     14  C   UNL     1      -3.377   2.948  22.999  0.00  0.00    -0.073 C 
ATOM     23  C   UNL     1      -3.662   3.329  21.572  0.00  0.00    +0.039 C 
ENDROOT
BRANCH   7  12
ATOM     12  C   UNL     1      -2.054   4.157  25.977  0.00  0.00    -0.013 C 
ATOM     21  C   UNL     1      -0.890   4.373  25.016  0.00  0.00    +0.007 C 
ATOM     22  C   UNL     1      -3.136   5.210  25.761  0.00  0.00    +0.007 C 
ENDBRANCH   7  12
BRANCH   8  11
ATOM     11  C   UNL     1      -4.862   1.507  25.786  0.00  0.00    +0.092 C 
BRANCH  11   4
ATOM      4  N   UNL     1      -4.145   0.340  25.274  0.00  0.00    -0.302 NA
ATOM     15  C   UNL     1      -4.877  -0.264  24.154  0.00  0.00    +0.085 C 
ATOM     16  C   UNL     1      -3.918  -0.637  26.349  0.00  0.00    +0.085 C 
ATOM     17  C   UNL     1      -3.814  -2.505  24.647  0.00  0.00    +0.017 C 
ATOM     18  C   UNL     1      -4.113  -1.455  23.572  0.00  0.00    +0.021 C 
ATOM     19  C   UNL     1      -3.120  -1.839  25.841  0.00  0.00    +0.021 C 
BRANCH  17  24
ATOM     24  C   UNL     1      -2.965  -3.642  24.084  0.00  0.00    +0.159 C 
BRANCH  24   2
ATOM      2  O   UNL     1      -1.677  -3.136  23.787  0.00  0.00    -0.395 OA
ATOM     33  H   UNL     1      -1.033  -3.706  24.241  0.00  0.00    +0.209 HD
ENDBRANCH  24   2
ENDBRANCH  17  24
ENDBRANCH  11   4
ENDBRANCH   8  11
BRANCH  10  20
ATOM     20  C   UNL     1      -1.445   1.418  22.360  0.00  0.00    +0.105 C 
BRANCH  20  25
ATOM      3  O   UNL     1       0.866   0.754  22.777  0.00  0.00    -0.420 OA
ATOM      5  N   UNL     1      -0.654  -0.512  23.823  0.00  0.00    -0.112 NA
ATOM      6  N   UNL     1       0.600  -0.996  24.145  0.00  0.00    -0.107 NA
ATOM     25  C   UNL     1      -0.450   0.508  23.023  0.00  0.00    +0.218 A 
ATOM     26  C   UNL     1       1.455  -0.228  23.512  0.00  0.00    +0.251 A 
BRANCH  26  27
ATOM      1  F   UNL     1       2.976   2.018  22.802  0.00  0.00    -0.205 F 
ATOM     27  C   UNL     1       2.890  -0.262  23.478  0.00  0.00    +0.074 A 
ATOM     28  C   UNL     1       3.609   0.878  23.118  0.00  0.00    +0.136 A 
ATOM     29  C   UNL     1       3.563  -1.438  23.804  0.00  0.00    +0.016 A 
ATOM     30  C   UNL     1       5.003   0.841  23.085  0.00  0.00    +0.039 A 
ATOM     31  C   UNL     1       4.957  -1.476  23.770  0.00  0.00    +0.001 A 
ATOM     32  C   UNL     1       5.677  -0.336  23.411  0.00  0.00    +0.003 A 
ENDBRANCH  26  27
ENDBRANCH  20  25
ENDBRANCH  10  20
TORSDOF 8
ENDMDL
MODEL 2
REMARK VINA RESULT:      -0.3      2.435      5.885
REMARK  Name = 38030984
REMARK  11 active torsions:
REMARK  status: ('A' for Active; 'I' for Inactive)
REMARK    1  A    between atoms: O_2  and  C_24
REMARK    2  A    between atoms: N_4  and  C_11
REMARK    3  A    between atoms: C_7  and  C_12
REMARK    4  A    between atoms: C_8  and  C_11
REMARK    5  A    between atoms: C_10  and  C_20
REMARK    6  A    between atoms: C_12  and  C_21
REMARK    7  A    between atoms: C_12  and  C_22
REMARK    8  A    between atoms: C_14  and  C_23
REMARK    9  A    between atoms: C_17  and  C_24
REMARK   10  A    between atoms: C_20  and  C_25
REMARK   11  A    between atoms: C_26  and  C_27
REMARK                            x       y       z     vdW  Elec       q    Type
REMARK                         _______ _______ _______ _____ _____    ______ ____
ROOT
ATOM      7  C   UNL     1      -0.828   3.403  24.382  0.00  0.00    +0.000 C 
ATOM      8  C   UNL     1      -0.778   2.796  25.803  0.00  0.00    +0.029 C 
ATOM      9  C   UNL     1      -2.273   3.443  23.864  0.00  0.00    +0.012 C 
ATOM     10  C   UNL     1      -3.233   4.222  24.789  0.00  0.00    +0.024 C 
ATOM     13  C   UNL     1      -1.868   3.329  26.699  0.00  0.00    -0.023 C 
ATOM     14  C   UNL     1      -2.965   3.979  26.266  0.00  0.00    -0.073 C 
ATOM     23  C   UNL     1      -3.948   4.545  27.253  0.00  0.00    +0.039 C 
ENDROOT
BRANCH   7  12
ATOM     12  C   UNL     1      -0.187   4.797  24.346  0.00  0.00    -0.013 C 
ATOM     21  C   UNL     1       0.288   5.127  22.934  0.00  0.00    +0.007 C 
ATOM     22  C   UNL     1      -1.172   5.848  24.845  0.00  0.00    +0.007 C 
ENDBRANCH   7  12
BRANCH   8  11
ATOM     11  C   UNL     1      -0.858   1.266  25.768  0.00  0.00    +0.092 C 
BRANCH  11   4
ATOM      4  N   UNL     1       0.194   0.713  24.916  0.00  0.00    -0.302 NA
ATOM     15  C   UNL     1       0.984   1.793  24.309  0.00  0.00    +0.085 C 
ATOM     16  C   UNL     1      -0.385  -0.164  23.887  0.00  0.00    +0.085 C 
ATOM     17  C   UNL     1       1.595   0.280  22.376  0.00  0.00    +0.017 C 
ATOM     18  C   UNL     1       2.123   1.231  23.455  0.00  0.00    +0.021 C 
ATOM     19  C   UNL     1       0.708  -0.792  23.021  0.00  0.00    +0.021 C 
BRANCH  17  24
ATOM     24  C   UNL     1       2.741  -0.355  21.594  0.00  0.00    +0.159 C 
BRANCH  24   2
ATOM      2  O   UNL     1       3.811   0.571  21.535  0.00  0.00    -0.395 OA
ATOM     33  H   UNL     1       3.431   1.434  21.298  0.00  0.00    +0.209 HD
ENDBRANCH  24   2
ENDBRANCH  17  24
ENDBRANCH  11   4
ENDBRANCH   8  11
BRANCH  10  20
ATOM     20  C   UNL     1      -4.675   3.898  24.382  0.00  0.00    +0.105 C 
BRANCH  20  25
ATOM      3  O   UNL     1      -4.252   1.496  24.455  0.00  0.00    -0.420 OA
ATOM      5  N   UNL     1      -6.113   2.131  25.523  0.00  0.00    -0.112 NA
ATOM      6  N   UNL     1      -5.999   0.759  25.643  0.00  0.00    -0.107 NA
ATOM     25  C   UNL     1      -5.073   2.518  24.822  0.00  0.00    +0.218 A 
ATOM     26  C   UNL     1      -4.899   0.433  25.004  0.00  0.00    +0.251 A 
BRANCH  26  27
ATOM      1  F   UNL     1      -3.144  -0.686  26.883  0.00  0.00    -0.205 F 
ATOM     27  C   UNL     1      -4.285  -0.848  24.801  0.00  0.00    +0.074 A 
ATOM     28  C   UNL     1      -3.417  -1.369  25.761  0.00  0.00    +0.136 A 
ATOM     29  C   UNL     1      -4.558  -1.572  23.641  0.00  0.00    +0.016 A 
ATOM     30  C   UNL     1      -2.821  -2.614  25.559  0.00  0.00    +0.039 A 
ATOM     31  C   UNL     1      -3.962  -2.816  23.439  0.00  0.00    +0.001 A 
ATOM     32  C   UNL     1      -3.093  -3.338  24.398  0.00  0.00    +0.003 A 
ENDBRANCH  26  27
ENDBRANCH  20  25
ENDBRANCH  10  20
TORSDOF 8
ENDMDL
MODEL 3
REMARK VINA RESULT:      -0.1      1.706      4.592
REMARK  Name = 38030984
REMARK  11 active torsions:
REMARK  status: ('A' for Active; 'I' for Inactive)
REMARK    1  A    between atoms: O_2  and  C_24
REMARK    2  A    between atoms: N_4  and  C_11
REMARK    3  A    between atoms: C_7  and  C_12
REMARK    4  A    between atoms: C_8  and  C_11
REMARK    5  A    between atoms: C_10  and  C_20
REMARK    6  A    between atoms: C_12  and  C_21
REMARK    7  A    between atoms: C_12  and  C_22
REMARK    8  A    between atoms: C_14  and  C_23
REMARK    9  A    between atoms: C_17  and  C_24
REMARK   10  A    between atoms: C_20  and  C_25
REMARK   11  A    between atoms: C_26  and  C_27
REMARK                            x       y       z     vdW  Elec       q    Type
REMARK                         _______ _______ _______ _____ _____    ______ ____
ROOT
ATOM      7  C   UNL     1      -4.246  -0.928  23.804  0.00  0.00    +0.000 C 
ATOM      8  C   UNL     1      -4.426  -0.486  25.275  0.00  0.00    +0.029 C 
ATOM      9  C   UNL     1      -3.118  -0.128  23.137  0.00  0.00    +0.012 C 
ATOM     10  C   UNL     1      -1.767  -0.241  23.877  0.00  0.00    +0.024 C 
ATOM     13  C   UNL     1      -3.113  -0.323  25.997  0.00  0.00    -0.023 C 
ATOM     14  C   UNL     1      -1.914  -0.224  25.391  0.00  0.00    -0.073 C 
ATOM     23  C   UNL     1      -0.655  -0.150  26.210  0.00  0.00    +0.039 C 
ENDROOT
BRANCH   7  12
ATOM     12  C   UNL     1      -3.992  -2.437  23.700  0.00  0.00    -0.013 C 
ATOM     21  C   UNL     1      -3.605  -3.006  25.061  0.00  0.00    +0.007 C 
ATOM     22  C   UNL     1      -5.224  -3.147  23.148  0.00  0.00    +0.007 C 
ENDBRANCH   7  12
BRANCH   8  11
ATOM     11  C   UNL     1      -5.225   0.818  25.382  0.00  0.00    +0.092 C 
BRANCH  11   4
ATOM      4  N   UNL     1      -4.327   1.971  25.417  0.00  0.00    -0.302 NA
ATOM     15  C   UNL     1      -4.862   3.013  26.304  0.00  0.00    +0.085 C 
ATOM     16  C   UNL     1      -4.104   2.492  24.061  0.00  0.00    +0.085 C 
ATOM     17  C   UNL     1      -3.605   4.784  25.008  0.00  0.00    +0.017 C 
ATOM     18  C   UNL     1      -3.909   4.206  26.394  0.00  0.00    +0.021 C 
ATOM     19  C   UNL     1      -3.123   3.666  24.076  0.00  0.00    +0.021 C 
BRANCH  17  24
ATOM     24  C   UNL     1      -2.576   5.907  25.094  0.00  0.00    +0.159 C 
BRANCH  24   2
ATOM      2  O   UNL     1      -1.285   5.330  25.150  0.00  0.00    -0.395 OA
ATOM     33  H   UNL     1      -0.749   5.759  24.460  0.00  0.00    +0.209 HD
ENDBRANCH  24   2
ENDBRANCH  17  24
ENDBRANCH  11   4
ENDBRANCH   8  11
BRANCH  10  20
ATOM     20  C   UNL     1      -0.830   0.854  23.356  0.00  0.00    +0.105 C 
BRANCH  20  25
ATOM      3  O   UNL     1       1.552   0.342  23.501  0.00  0.00    -0.420 OA
ATOM      5  N   UNL     1       0.589  -0.314  21.592  0.00  0.00    -0.112 NA
ATOM      6  N   UNL     1       1.924  -0.664  21.538  0.00  0.00    -0.107 NA
ATOM     25  C   UNL     1       0.416   0.270  22.754  0.00  0.00    +0.218 A 
ATOM     26  C   UNL     1       2.447  -0.261  22.673  0.00  0.00    +0.251 A 
BRANCH  26  27
ATOM      1  F   UNL     1       4.218   1.910  22.591  0.00  0.00    -0.205 F 
ATOM     27  C   UNL     1       3.791  -0.358  23.167  0.00  0.00    +0.074 A 
ATOM     28  C   UNL     1       4.641   0.746  23.107  0.00  0.00    +0.136 A 
ATOM     29  C   UNL     1       4.246  -1.561  23.706  0.00  0.00    +0.016 A 
ATOM     30  C   UNL     1       5.947   0.647  23.587  0.00  0.00    +0.039 A 
ATOM     31  C   UNL     1       5.552  -1.660  24.186  0.00  0.00    +0.001 A 
ATOM     32  C   UNL     1       6.403  -0.556  24.126  0.00  0.00    +0.003 A 
ENDBRANCH  26  27
ENDBRANCH  20  25
ENDBRANCH  10  20
TORSDOF 8
ENDMDL
MODEL 4
REMARK VINA RESULT:       1.7      1.455      2.027
REMARK  Name = 38030984
REMARK  11 active torsions:
REMARK  status: ('A' for Active; 'I' for Inactive)
REMARK    1  A    between atoms: O_2  and  C_24
REMARK    2  A    between atoms: N_4  and  C_11
REMARK    3  A    between atoms: C_7  and  C_12
REMARK    4  A    between atoms: C_8  and  C_11
REMARK    5  A    between atoms: C_10  and  C_20
REMARK    6  A    between atoms: C_12  and  C_21
REMARK    7  A    between atoms: C_12  and  C_22
REMARK    8  A    between atoms: C_14  and  C_23
REMARK    9  A    between atoms: C_17  and  C_24
REMARK   10  A    between atoms: C_20  and  C_25
REMARK   11  A    between atoms: C_26  and  C_27
REMARK                            x       y       z     vdW  Elec       q    Type
REMARK                         _______ _______ _______ _____ _____    ______ ____
ROOT
ATOM      7  C   UNL     1      -2.003   3.539  25.813  0.00  0.00    +0.000 C 
ATOM      8  C   UNL     1      -3.421   3.652  25.208  0.00  0.00    +0.029 C 
ATOM      9  C   UNL     1      -1.405   2.154  25.530  0.00  0.00    +0.012 C 
ATOM     10  C   UNL     1      -1.351   1.806  24.027  0.00  0.00    +0.024 C 
ATOM     13  C   UNL     1      -3.502   3.085  23.813  0.00  0.00    -0.023 C 
ATOM     14  C   UNL     1      -2.582   2.270  23.263  0.00  0.00    -0.073 C 
ATOM     23  C   UNL     1      -2.718   1.830  21.831  0.00  0.00    +0.039 C 
ENDROOT
BRANCH   7  12
ATOM     12  C   UNL     1      -1.084   4.655  25.298  0.00  0.00    -0.013 C 
ATOM     21  C   UNL     1      -0.194   4.134  24.175  0.00  0.00    +0.007 C 
ATOM     22  C   UNL     1      -1.909   5.848  24.826  0.00  0.00    +0.007 C 
ENDBRANCH   7  12
BRANCH   8  11
ATOM     11  C   UNL     1      -4.470   2.967  26.091  0.00  0.00    +0.092 C 
BRANCH  11   4
ATOM      4  N   UNL     1      -4.656   1.574  25.686  0.00  0.00    -0.302 NA
ATOM     15  C   UNL     1      -3.464   0.780  26.011  0.00  0.00    +0.085 C 
ATOM     16  C   UNL     1      -4.975   1.493  24.254  0.00  0.00    +0.085 C 
ATOM     17  C   UNL     1      -4.029  -0.852  24.164  0.00  0.00    +0.017 C 
ATOM     18  C   UNL     1      -3.663  -0.691  25.643  0.00  0.00    +0.021 C 
ATOM     19  C   UNL     1      -5.227   0.045  23.827  0.00  0.00    +0.021 C 
BRANCH  17  24
ATOM     24  C   UNL     1      -4.326  -2.310  23.826  0.00  0.00    +0.159 C 
BRANCH  24   2
ATOM      2  O   UNL     1      -3.521  -3.134  24.648  0.00  0.00    -0.395 OA
ATOM     33  H   UNL     1      -3.930  -4.017  24.659  0.00  0.00    +0.209 HD
ENDBRANCH  24   2
ENDBRANCH  17  24
ENDBRANCH  11   4
ENDBRANCH   8  11
BRANCH  10  20
ATOM     20  C   UNL     1      -1.088   0.302  23.880  0.00  0.00    +0.105 C 
BRANCH  20  25
ATOM      3  O   UNL     1       1.345   0.145  23.791  0.00  0.00    -0.420 OA
ATOM      5  N   UNL     1       0.327  -0.289  21.846  0.00  0.00    -0.112 NA
ATOM      6  N   UNL     1       1.689  -0.414  21.652  0.00  0.00    -0.107 NA
ATOM     25  C   UNL     1       0.173   0.037  23.108  0.00  0.00    +0.218 A 
ATOM     26  C   UNL     1       2.244  -0.151  22.813  0.00  0.00    +0.251 A 
BRANCH  26  27
ATOM      1  F   UNL     1       3.460  -2.331  24.088  0.00  0.00    -0.205 F 
ATOM     27  C   UNL     1       3.625  -0.130  23.202  0.00  0.00    +0.074 A 
ATOM     28  C   UNL     1       4.191  -1.236  23.836  0.00  0.00    +0.136 A 
ATOM     29  C   UNL     1       4.399   1.001  22.947  0.00  0.00    +0.016 A 
ATOM     30  C   UNL     1       5.534  -1.210  24.214  0.00  0.00    +0.039 A 
ATOM     31  C   UNL     1       5.741   1.027  23.325  0.00  0.00    +0.001 A 
ATOM     32  C   UNL     1       6.309  -0.079  23.959  0.00  0.00    +0.003 A 
ENDBRANCH  26  27
ENDBRANCH  20  25
ENDBRANCH  10  20
TORSDOF 8
ENDMDL
MODEL 5
REMARK VINA RESULT:       1.8      1.673      2.803
REMARK  Name = 38030984
REMARK  11 active torsions:
REMARK  status: ('A' for Active; 'I' for Inactive)
REMARK    1  A    between atoms: O_2  and  C_24
REMARK    2  A    between atoms: N_4  and  C_11
REMARK    3  A    between atoms: C_7  and  C_12
REMARK    4  A    between atoms: C_8  and  C_11
REMARK    5  A    between atoms: C_10  and  C_20
REMARK    6  A    between atoms: C_12  and  C_21
REMARK    7  A    between atoms: C_12  and  C_22
REMARK    8  A    between atoms: C_14  and  C_23
REMARK    9  A    between atoms: C_17  and  C_24
REMARK   10  A    between atoms: C_20  and  C_25
REMARK   11  A    between atoms: C_26  and  C_27
REMARK                            x       y       z     vdW  Elec       q    Type
REMARK                         _______ _______ _______ _____ _____    ______ ____
ROOT
ATOM      7  C   UNL     1      -4.441   2.844  25.304  0.00  0.00    +0.000 C 
ATOM      8  C   UNL     1      -4.164   3.420  23.896  0.00  0.00    +0.029 C 
ATOM      9  C   UNL     1      -3.123   2.545  26.032  0.00  0.00    +0.012 C 
ATOM     10  C   UNL     1      -2.197   3.775  26.152  0.00  0.00    +0.024 C 
ATOM     13  C   UNL     1      -3.071   4.458  23.898  0.00  0.00    -0.023 C 
ATOM     14  C   UNL     1      -2.192   4.641  24.901  0.00  0.00    -0.073 C 
ATOM     23  C   UNL     1      -1.194   5.765  24.839  0.00  0.00    +0.039 C 
ENDROOT
BRANCH   7  12
ATOM     12  C   UNL     1      -5.328   3.786  26.129  0.00  0.00    -0.013 C 
ATOM     21  C   UNL     1      -5.905   4.885  25.243  0.00  0.00    +0.007 C 
ATOM     22  C   UNL     1      -6.443   3.003  26.815  0.00  0.00    +0.007 C 
ENDBRANCH   7  12
BRANCH   8  11
ATOM     11  C   UNL     1      -3.808   2.316  22.893  0.00  0.00    +0.092 C 
BRANCH  11   4
ATOM      4  N   UNL     1      -3.505   1.066  23.588  0.00  0.00    -0.302 NA
ATOM     15  C   UNL     1      -2.878   0.106  22.670  0.00  0.00    +0.085 C 
ATOM     16  C   UNL     1      -4.722   0.505  24.193  0.00  0.00    +0.085 C 
ATOM     17  C   UNL     1      -3.726  -1.817  24.077  0.00  0.00    +0.017 C 
ATOM     18  C   UNL     1      -2.506  -1.190  23.394  0.00  0.00    +0.021 C 
ATOM     19  C   UNL     1      -4.411  -0.776  24.970  0.00  0.00    +0.021 C 
BRANCH  17  24
ATOM     24  C   UNL     1      -3.330  -3.053  24.881  0.00  0.00    +0.159 C 
BRANCH  24   2
ATOM      2  O   UNL     1      -1.924  -3.198  24.818  0.00  0.00    -0.395 OA
ATOM     33  H   UNL     1      -1.615  -2.677  24.056  0.00  0.00    +0.209 HD
ENDBRANCH  24   2
ENDBRANCH  17  24
ENDBRANCH  11   4
ENDBRANCH   8  11
BRANCH  10  20
ATOM     20  C   UNL     1      -0.796   3.296  26.553  0.00  0.00    +0.105 C 
BRANCH  20  25
ATOM      3  O   UNL     1       0.625   2.187  24.908  0.00  0.00    -0.420 OA
ATOM      5  N   UNL     1      -0.898   0.849  25.853  0.00  0.00    -0.112 NA
ATOM      6  N   UNL     1      -0.170   0.097  24.951  0.00  0.00    -0.107 NA
ATOM     25  C   UNL     1      -0.400   2.061  25.795  0.00  0.00    +0.218 A 
ATOM     26  C   UNL     1       0.707   0.918  24.424  0.00  0.00    +0.251 A 
BRANCH  26  27
ATOM      1  F   UNL     1       0.247  -0.691  22.174  0.00  0.00    -0.205 F 
ATOM     27  C   UNL     1       1.720   0.690  23.433  0.00  0.00    +0.074 A 
ATOM     28  C   UNL     1       1.451  -0.119  22.329  0.00  0.00    +0.136 A 
ATOM     29  C   UNL     1       2.976   1.277  23.578  0.00  0.00    +0.016 A 
ATOM     30  C   UNL     1       2.439  -0.339  21.369  0.00  0.00    +0.039 A 
ATOM     31  C   UNL     1       3.964   1.057  22.620  0.00  0.00    +0.001 A 
ATOM     32  C   UNL     1       3.696   0.248  21.514  0.00  0.00    +0.003 A 
ENDBRANCH  26  27
ENDBRANCH  20  25
ENDBRANCH  10  20
TORSDOF 8
ENDMDL
MODEL 6
REMARK VINA RESULT:       2.1      2.314      6.515
REMARK  Name = 38030984
REMARK  11 active torsions:
REMARK  status: ('A' for Active; 'I' for Inactive)
REMARK    1  A    between atoms: O_2  and  C_24
REMARK    2  A    between atoms: N_4  and  C_11
REMARK    3  A    between atoms: C_7  and  C_12
REMARK    4  A    between atoms: C_8  and  C_11
REMARK    5  A    between atoms: C_10  and  C_20
REMARK    6  A    between atoms: C_12  and  C_21
REMARK    7  A    between atoms: C_12  and  C_22
REMARK    8  A    between atoms: C_14  and  C_23
REMARK    9  A    between atoms: C_17  and  C_24
REMARK   10  A    between atoms: C_20  and  C_25
REMARK   11  A    between atoms: C_26  and  C_27
REMARK                            x       y       z     vdW  Elec       q    Type
REMARK                         _______ _______ _______ _____ _____    ______ ____
ROOT
ATOM      7  C   UNL     1      -1.430  -0.309  25.420  0.00  0.00    +0.000 C 
ATOM      8  C   UNL     1      -1.310  -0.630  23.912  0.00  0.00    +0.029 C 
ATOM      9  C   UNL     1      -2.841   0.197  25.752  0.00  0.00    +0.012 C 
ATOM     10  C   UNL     1      -3.957  -0.790  25.346  0.00  0.00    +0.024 C 
ATOM     13  C   UNL     1      -2.506  -1.380  23.382  0.00  0.00    -0.023 C 
ATOM     14  C   UNL     1      -3.692  -1.473  24.013  0.00  0.00    -0.073 C 
ATOM     23  C   UNL     1      -4.793  -2.320  23.436  0.00  0.00    +0.039 C 
ENDROOT
BRANCH   7  12
ATOM     12  C   UNL     1      -1.060  -1.523  26.282  0.00  0.00    -0.013 C 
ATOM     21  C   UNL     1       0.061  -2.321  25.623  0.00  0.00    +0.007 C 
ATOM     22  C   UNL     1      -0.656  -1.077  27.683  0.00  0.00    +0.007 C 
ENDBRANCH   7  12
BRANCH   8  11
ATOM     11  C   UNL     1      -1.102   0.639  23.078  0.00  0.00    +0.092 C 
BRANCH  11   4
ATOM      4  N   UNL     1       0.312   0.812  22.747  0.00  0.00    -0.302 NA
ATOM     15  C   UNL     1       0.910  -0.470  22.352  0.00  0.00    +0.085 C 
ATOM     16  C   UNL     1       1.036   1.409  23.879  0.00  0.00    +0.085 C 
ATOM     17  C   UNL     1       3.189   0.351  23.077  0.00  0.00    +0.017 C 
ATOM     18  C   UNL     1       2.376  -0.297  21.951  0.00  0.00    +0.021 C 
ATOM     19  C   UNL     1       2.507   1.647  23.528  0.00  0.00    +0.021 C 
BRANCH  17  24
ATOM     24  C   UNL     1       4.626   0.613  22.636  0.00  0.00    +0.159 C 
BRANCH  24   2
ATOM      2  O   UNL     1       5.501   0.017  23.575  0.00  0.00    -0.395 OA
ATOM     33  H   UNL     1       6.028   0.732  23.971  0.00  0.00    +0.209 HD
ENDBRANCH  24   2
ENDBRANCH  17  24
ENDBRANCH  11   4
ENDBRANCH   8  11
BRANCH  10  20
ATOM     20  C   UNL     1      -5.301  -0.053  25.383  0.00  0.00    +0.105 C 
BRANCH  20  25
ATOM      3  O   UNL     1      -3.869   1.911  25.157  0.00  0.00    -0.420 OA
ATOM      5  N   UNL     1      -5.969   2.374  25.774  0.00  0.00    -0.112 NA
ATOM      6  N   UNL     1      -5.276   3.567  25.686  0.00  0.00    -0.107 NA
ATOM     25  C   UNL     1      -5.109   1.435  25.457  0.00  0.00    +0.218 A 
ATOM     26  C   UNL     1      -4.056   3.248  25.324  0.00  0.00    +0.251 A 
BRANCH  26  27
ATOM      1  F   UNL     1      -1.489   2.521  26.185  0.00  0.00    -0.205 F 
ATOM     27  C   UNL     1      -2.910   4.076  25.080  0.00  0.00    +0.074 A 
ATOM     28  C   UNL     1      -1.649   3.678  25.526  0.00  0.00    +0.136 A 
ATOM     29  C   UNL     1      -3.059   5.282  24.395  0.00  0.00    +0.016 A 
ATOM     30  C   UNL     1      -0.538   4.487  25.287  0.00  0.00    +0.039 A 
ATOM     31  C   UNL     1      -1.948   6.091  24.157  0.00  0.00    +0.001 A 
ATOM     32  C   UNL     1      -0.687   5.693  24.603  0.00  0.00    +0.003 A 
ENDBRANCH  26  27
ENDBRANCH  20  25
ENDBRANCH  10  20
TORSDOF 8
ENDMDL
MODEL 7
REMARK VINA RESULT:       2.6      2.584      6.088
REMARK  Name = 38030984
REMARK  11 active torsions:
REMARK  status: ('A' for Active; 'I' for Inactive)
REMARK    1  A    between atoms: O_2  and  C_24
REMARK    2  A    between atoms: N_4  and  C_11
REMARK    3  A    between atoms: C_7  and  C_12
REMARK    4  A    between atoms: C_8  and  C_11
REMARK    5  A    between atoms: C_10  and  C_20
REMARK    6  A    between atoms: C_12  and  C_21
REMARK    7  A    between atoms: C_12  and  C_22
REMARK    8  A    between atoms: C_14  and  C_23
REMARK    9  A    between atoms: C_17  and  C_24
REMARK   10  A    between atoms: C_20  and  C_25
REMARK   11  A    between atoms: C_26  and  C_27
REMARK                            x       y       z     vdW  Elec       q    Type
REMARK                         _______ _______ _______ _____ _____    ______ ____
ROOT
ATOM      7  C   UNL     1      -3.467  -2.050  23.443  0.00  0.00    +0.000 C 
ATOM      8  C   UNL     1      -4.020  -0.841  24.233  0.00  0.00    +0.029 C 
ATOM      9  C   UNL     1      -1.939  -2.126  23.576  0.00  0.00    +0.012 C 
ATOM     10  C   UNL     1      -1.456  -2.204  25.041  0.00  0.00    +0.024 C 
ATOM     13  C   UNL     1      -3.391  -0.702  25.596  0.00  0.00    -0.023 C 
ATOM     14  C   UNL     1      -2.254  -1.312  25.980  0.00  0.00    -0.073 C 
ATOM     23  C   UNL     1      -1.760  -1.173  27.394  0.00  0.00    +0.039 C 
ENDROOT
BRANCH   7  12
ATOM     12  C   UNL     1      -4.128  -3.361  23.890  0.00  0.00    -0.013 C 
ATOM     21  C   UNL     1      -5.573  -3.419  23.405  0.00  0.00    +0.007 C 
ATOM     22  C   UNL     1      -3.336  -4.558  23.376  0.00  0.00    +0.007 C 
ENDBRANCH   7  12
BRANCH   8  11
ATOM     11  C   UNL     1      -3.841   0.470  23.460  0.00  0.00    +0.092 C 
BRANCH  11   4
ATOM      4  N   UNL     1      -4.171   1.617  24.305  0.00  0.00    -0.302 NA
ATOM     15  C   UNL     1      -5.448   1.396  24.997  0.00  0.00    +0.085 C 
ATOM     16  C   UNL     1      -4.206   2.851  23.508  0.00  0.00    +0.085 C 
ATOM     17  C   UNL     1      -5.806   3.893  25.167  0.00  0.00    +0.017 C 
ATOM     18  C   UNL     1      -5.782   2.563  25.927  0.00  0.00    +0.021 C 
ATOM     19  C   UNL     1      -4.496   4.068  24.389  0.00  0.00    +0.021 C 
BRANCH  17  24
ATOM     24  C   UNL     1      -6.039   5.065  26.116  0.00  0.00    +0.159 C 
BRANCH  24   2
ATOM      2  O   UNL     1      -6.717   6.087  25.410  0.00  0.00    -0.395 OA
ATOM     33  H   UNL     1      -7.335   6.507  26.034  0.00  0.00    +0.209 HD
ENDBRANCH  24   2
ENDBRANCH  17  24
ENDBRANCH  11   4
ENDBRANCH   8  11
BRANCH  10  20
ATOM     20  C   UNL     1       0.049  -1.912  25.076  0.00  0.00    +0.105 C 
BRANCH  20  25
ATOM      3  O   UNL     1      -0.331   0.497  24.996  0.00  0.00    -0.420 OA
ATOM      5  N   UNL     1       1.216  -0.234  23.555  0.00  0.00    -0.112 NA
ATOM      6  N   UNL     1       1.104   1.135  23.403  0.00  0.00    -0.107 NA
ATOM     25  C   UNL     1       0.361  -0.562  24.494  0.00  0.00    +0.218 A 
ATOM     26  C   UNL     1       0.190   1.518  24.263  0.00  0.00    +0.251 A 
BRANCH  26  27
ATOM      1  F   UNL     1      -1.578   1.979  26.389  0.00  0.00    -0.205 F 
ATOM     27  C   UNL     1      -0.334   2.824  24.545  0.00  0.00    +0.074 A 
ATOM     28  C   UNL     1      -1.213   3.010  25.613  0.00  0.00    +0.136 A 
ATOM     29  C   UNL     1       0.036   3.907  23.749  0.00  0.00    +0.016 A 
ATOM     30  C   UNL     1      -1.721   4.281  25.883  0.00  0.00    +0.039 A 
ATOM     31  C   UNL     1      -0.472   5.177  24.018  0.00  0.00    +0.001 A 
ATOM     32  C   UNL     1      -1.351   5.365  25.086  0.00  0.00    +0.003 A 
ENDBRANCH  26  27
ENDBRANCH  20  25
ENDBRANCH  10  20
TORSDOF 8
ENDMDL
MODEL 8
REMARK VINA RESULT:       2.6      2.350      6.381
REMARK  Name = 38030984
REMARK  11 active torsions:
REMARK  status: ('A' for Active; 'I' for Inactive)
REMARK    1  A    between atoms: O_2  and  C_24
REMARK    2  A    between atoms: N_4  and  C_11
REMARK    3  A    between atoms: C_7  and  C_12
REMARK    4  A    between atoms: C_8  and  C_11
REMARK    5  A    between atoms: C_10  and  C_20
REMARK    6  A    between atoms: C_12  and  C_21
REMARK    7  A    between atoms: C_12  and  C_22
REMARK    8  A    between atoms: C_14  and  C_23
REMARK    9  A    between atoms: C_17  and  C_24
REMARK   10  A    between atoms: C_20  and  C_25
REMARK   11  A    between atoms: C_26  and  C_27
REMARK                            x       y       z     vdW  Elec       q    Type
REMARK                         _______ _______ _______ _____ _____    ______ ____
ROOT
ATOM      7  C   UNL     1      -2.947  -1.485  25.442  0.00  0.00    +0.000 C 
ATOM      8  C   UNL     1      -2.120  -0.501  24.583  0.00  0.00    +0.029 C 
ATOM      9  C   UNL     1      -4.079  -0.745  26.169  0.00  0.00    +0.012 C 
ATOM     10  C   UNL     1      -5.021   0.021  25.215  0.00  0.00    +0.024 C 
ATOM     13  C   UNL     1      -2.986   0.463  23.811  0.00  0.00    -0.023 C 
ATOM     14  C   UNL     1      -4.285   0.700  24.070  0.00  0.00    -0.073 C 
ATOM     23  C   UNL     1      -5.079   1.619  23.182  0.00  0.00    +0.039 C 
ENDROOT
BRANCH   7  12
ATOM     12  C   UNL     1      -3.495  -2.642  24.597  0.00  0.00    -0.013 C 
ATOM     21  C   UNL     1      -4.563  -2.137  23.632  0.00  0.00    +0.007 C 
ATOM     22  C   UNL     1      -2.364  -3.331  23.840  0.00  0.00    +0.007 C 
ENDBRANCH   7  12
BRANCH   8  11
ATOM     11  C   UNL     1      -1.119   0.290  25.432  0.00  0.00    +0.092 C 
BRANCH  11   4
ATOM      4  N   UNL     1       0.208   0.269  24.819  0.00  0.00    -0.302 NA
ATOM     15  C   UNL     1       0.480   1.541  24.138  0.00  0.00    +0.085 C 
ATOM     16  C   UNL     1       0.330  -0.866  23.893  0.00  0.00    +0.085 C 
ATOM     17  C   UNL     1       2.097   0.379  22.579  0.00  0.00    +0.017 C 
ATOM     18  C   UNL     1       1.887   1.557  23.536  0.00  0.00    +0.021 C 
ATOM     19  C   UNL     1       1.732  -0.933  23.285  0.00  0.00    +0.021 C 
BRANCH  17  24
ATOM     24  C   UNL     1       3.531   0.341  22.061  0.00  0.00    +0.159 C 
BRANCH  24   2
ATOM      2  O   UNL     1       4.404   0.652  23.131  0.00  0.00    -0.395 OA
ATOM     33  H   UNL     1       3.859   1.019  23.849  0.00  0.00    +0.209 HD
ENDBRANCH  24   2
ENDBRANCH  17  24
ENDBRANCH  11   4
ENDBRANCH   8  11
BRANCH  10  20
ATOM     20  C   UNL     1      -5.868   0.995  26.042  0.00  0.00    +0.105 C 
BRANCH  20  25
ATOM      3  O   UNL     1      -4.036   2.555  25.635  0.00  0.00    -0.420 OA
ATOM      5  N   UNL     1      -5.999   3.540  26.062  0.00  0.00    -0.112 NA
ATOM      6  N   UNL     1      -5.061   4.532  25.853  0.00  0.00    -0.107 NA
ATOM     25  C   UNL     1      -5.357   2.403  25.925  0.00  0.00    +0.218 A 
ATOM     26  C   UNL     1      -3.930   3.912  25.608  0.00  0.00    +0.251 A 
BRANCH  26  27
ATOM      1  F   UNL     1      -1.594   2.614  26.454  0.00  0.00    -0.205 F 
ATOM     27  C   UNL     1      -2.625   4.433  25.319  0.00  0.00    +0.074 A 
ATOM     28  C   UNL     1      -1.487   3.756  25.759  0.00  0.00    +0.136 A 
ATOM     29  C   UNL     1      -2.496   5.619  24.598  0.00  0.00    +0.016 A 
ATOM     30  C   UNL     1      -0.220   4.267  25.477  0.00  0.00    +0.039 A 
ATOM     31  C   UNL     1      -1.229   6.130  24.316  0.00  0.00    +0.001 A 
ATOM     32  C   UNL     1      -0.091   5.454  24.756  0.00  0.00    +0.003 A 
ENDBRANCH  26  27
ENDBRANCH  20  25
ENDBRANCH  10  20
TORSDOF 8
ENDMDL
MODEL 9
REMARK VINA RESULT:       2.7      1.941      2.840
REMARK  Name = 38030984
REMARK  11 active torsions:
REMARK  status: ('A' for Active; 'I' for Inactive)
REMARK    1  A    between atoms: O_2  and  C_24
REMARK    2  A    between atoms: N_4  and  C_11
REMARK    3  A    between atoms: C_7  and  C_12
REMARK    4  A    between atoms: C_8  and  C_11
REMARK    5  A    between atoms: C_10  and  C_20
REMARK    6  A    between atoms: C_12  and  C_21
REMARK    7  A    between atoms: C_12  and  C_22
REMARK    8  A    between atoms: C_14  and  C_23
REMARK    9  A    between atoms: C_17  and  C_24
REMARK   10  A    between atoms: C_20  and  C_25
REMARK   11  A    between atoms: C_26  and  C_27
REMARK                            x       y       z     vdW  Elec       q    Type
REMARK                         _______ _______ _______ _____ _____    ______ ____
ROOT
ATOM      7  C   UNL     1      -4.926   2.932  25.917  0.00  0.00    +0.000 C 
ATOM      8  C   UNL     1      -4.698   1.595  25.175  0.00  0.00    +0.029 C 
ATOM      9  C   UNL     1      -3.646   3.779  25.905  0.00  0.00    +0.012 C 
ATOM     10  C   UNL     1      -3.114   4.065  24.484  0.00  0.00    +0.024 C 
ATOM     13  C   UNL     1      -3.943   1.771  23.882  0.00  0.00    -0.023 C 
ATOM     14  C   UNL     1      -3.241   2.870  23.550  0.00  0.00    -0.073 C 
ATOM     23  C   UNL     1      -2.595   2.977  22.195  0.00  0.00    +0.039 C 
ENDROOT
BRANCH   7  12
ATOM     12  C   UNL     1      -6.109   3.708  25.323  0.00  0.00    -0.013 C 
ATOM     21  C   UNL     1      -7.400   2.911  25.482  0.00  0.00    +0.007 C 
ATOM     22  C   UNL     1      -6.233   5.077  25.984  0.00  0.00    +0.007 C 
ENDBRANCH   7  12
BRANCH   8  11
ATOM     11  C   UNL     1      -3.962   0.578  26.054  0.00  0.00    +0.092 C 
BRANCH  11   4
ATOM      4  N   UNL     1      -3.156  -0.326  25.233  0.00  0.00    -0.302 NA
ATOM     15  C   UNL     1      -3.924  -1.530  24.889  0.00  0.00    +0.085 C 
ATOM     16  C   UNL     1      -1.906  -0.673  25.924  0.00  0.00    +0.085 C 
ATOM     17  C   UNL     1      -1.779  -2.843  24.631  0.00  0.00    +0.017 C 
ATOM     18  C   UNL     1      -3.115  -2.462  23.985  0.00  0.00    +0.021 C 
ATOM     19  C   UNL     1      -1.028  -1.575  25.054  0.00  0.00    +0.021 C 
BRANCH  17  24
ATOM     24  C   UNL     1      -0.932  -3.690  23.685  0.00  0.00    +0.159 C 
BRANCH  24   2
ATOM      2  O   UNL     1      -1.798  -4.366  22.792  0.00  0.00    -0.395 OA
ATOM     33  H   UNL     1      -2.229  -5.079  23.294  0.00  0.00    +0.209 HD
ENDBRANCH  24   2
ENDBRANCH  17  24
ENDBRANCH  11   4
ENDBRANCH   8  11
BRANCH  10  20
ATOM     20  C   UNL     1      -1.677   4.587  24.594  0.00  0.00    +0.105 C 
BRANCH  20  25
ATOM      3  O   UNL     1      -0.063   2.948  23.778  0.00  0.00    -0.420 OA
ATOM      5  N   UNL     1      -0.371   2.905  25.993  0.00  0.00    -0.112 NA
ATOM      6  N   UNL     1       0.559   1.935  25.673  0.00  0.00    -0.107 NA
ATOM     25  C   UNL     1      -0.706   3.471  24.857  0.00  0.00    +0.218 A 
ATOM     26  C   UNL     1       0.707   1.995  24.370  0.00  0.00    +0.251 A 
BRANCH  26  27
ATOM      1  F   UNL     1      -0.327  -0.047  22.751  0.00  0.00    -0.205 F 
ATOM     27  C   UNL     1       1.541   1.227  23.490  0.00  0.00    +0.074 A 
ATOM     28  C   UNL     1       0.987   0.219  22.702  0.00  0.00    +0.136 A 
ATOM     29  C   UNL     1       2.909   1.491  23.426  0.00  0.00    +0.016 A 
ATOM     30  C   UNL     1       1.802  -0.526  21.848  0.00  0.00    +0.039 A 
ATOM     31  C   UNL     1       3.724   0.747  22.573  0.00  0.00    +0.001 A 
ATOM     32  C   UNL     1       3.170  -0.263  21.784  0.00  0.00    +0.003 A 
ENDBRANCH  26  27
ENDBRANCH  20  25
ENDBRANCH  10  20
TORSDOF 8
ENDMDL
