MODEL 1
REMARK VINA RESULT:      -0.9      0.000      0.000
REMARK  Name = 71693324
REMARK  11 active torsions:
REMARK  status: ('A' for Active; 'I' for Inactive)
REMARK    1  A    between atoms: O_2  and  C_12
REMARK    2  A    between atoms: O_5  and  C_24
REMARK    3  A    between atoms: O_5  and  C_25
REMARK    4  A    between atoms: N_6  and  C_10
REMARK    5  A    between atoms: N_7  and  C_22
REMARK    6  A    between atoms: C_8  and  C_12
REMARK    7  A    between atoms: C_9  and  C_14
REMARK    8  A    between atoms: C_10  and  C_11
REMARK    9  A    between atoms: C_11  and  C_16
REMARK   10  A    between atoms: C_11  and  C_17
REMARK   11  A    between atoms: C_23  and  C_24
REMARK                            x       y       z     vdW  Elec       q    Type
REMARK                         _______ _______ _______ _____ _____    ______ ____
ROOT
ATOM      1  O   UNL     1      -2.876  -0.051  25.318  0.00  0.00    -0.361 OA
ATOM      3  O   UNL     1      -6.311   0.754  25.814  0.00  0.00    -0.273 OA
ATOM      6  N   UNL     1      -4.682   1.947  24.649  0.00  0.00    -0.291 N 
ATOM      8  C   UNL     1      -3.263   2.058  24.233  0.00  0.00    +0.135 C 
ATOM      9  C   UNL     1      -2.608   0.668  24.113  0.00  0.00    +0.171 C 
ATOM     13  C   UNL     1      -5.176   0.838  25.339  0.00  0.00    +0.242 C 
ATOM     15  C   UNL     1      -4.246  -0.355  25.425  0.00  0.00    +0.256 C 
ENDROOT
BRANCH   9  14
ATOM     14  C   UNL     1      -1.103   0.701  23.942  0.00  0.00    -0.017 A 
ATOM     18  C   UNL     1      -0.380   1.821  24.353  0.00  0.00    +0.008 A 
ATOM     19  C   UNL     1      -0.442  -0.388  23.373  0.00  0.00    +0.008 A 
ATOM     20  C   UNL     1       1.006   1.851  24.194  0.00  0.00    +0.023 A 
ATOM     21  C   UNL     1       0.944  -0.356  23.215  0.00  0.00    +0.023 A 
ATOM     22  C   UNL     1       1.667   0.764  23.626  0.00  0.00    +0.033 A 
BRANCH  22   7
ATOM      4  O   UNL     1       3.374   0.110  21.235  0.00  0.00    -0.273 OA
ATOM      7  N   UNL     1       3.053   0.795  23.467  0.00  0.00    -0.284 N 
ATOM     23  C   UNL     1       3.801   0.481  22.325  0.00  0.00    +0.243 C 
ATOM     27  H   UNL     1       3.579   1.083  24.290  0.00  0.00    +0.155 HD
BRANCH  23  24
ATOM     24  C   UNL     1       5.289   0.639  22.553  0.00  0.00    +0.255 C 
BRANCH  24   5
ATOM      5  O   UNL     1       5.564   0.429  23.922  0.00  0.00    -0.374 OA
ATOM     25  C   UNL     1       5.505  -0.951  24.269  0.00  0.00    +0.194 C 
ENDBRANCH  24   5
ENDBRANCH  23  24
ENDBRANCH  22   7
ENDBRANCH   9  14
BRANCH   6  10
ATOM     10  C   UNL     1      -5.523   3.137  24.544  0.00  0.00    +0.111 C 
BRANCH  10  11
ATOM     11  C   UNL     1      -5.446   4.017  25.796  0.00  0.00    +0.000 C 
ATOM     16  C   UNL     1      -6.131   5.360  25.536  0.00  0.00    +0.009 C 
ATOM     17  C   UNL     1      -3.999   4.245  26.238  0.00  0.00    +0.009 C 
ENDBRANCH  10  11
ENDBRANCH   6  10
BRANCH   8  12
ATOM     12  C   UNL     1      -3.091   2.850  22.930  0.00  0.00    +0.181 C 
BRANCH  12   2
ATOM      2  O   UNL     1      -2.745   1.942  21.904  0.00  0.00    -0.393 OA
ATOM     26  H   UNL     1      -1.794   2.048  21.734  0.00  0.00    +0.209 HD
ENDBRANCH  12   2
ENDBRANCH   8  12
TORSDOF 8
ENDMDL
MODEL 2
REMARK VINA RESULT:      -0.9      1.214      1.673
REMARK  Name = 71693324
REMARK  11 active torsions:
REMARK  status: ('A' for Active; 'I' for Inactive)
REMARK    1  A    between atoms: O_2  and  C_12
REMARK    2  A    between atoms: O_5  and  C_24
REMARK    3  A    between atoms: O_5  and  C_25
REMARK    4  A    between atoms: N_6  and  C_10
REMARK    5  A    between atoms: N_7  and  C_22
REMARK    6  A    between atoms: C_8  and  C_12
REMARK    7  A    between atoms: C_9  and  C_14
REMARK    8  A    between atoms: C_10  and  C_11
REMARK    9  A    between atoms: C_11  and  C_16
REMARK   10  A    between atoms: C_11  and  C_17
REMARK   11  A    between atoms: C_23  and  C_24
REMARK                            x       y       z     vdW  Elec       q    Type
REMARK                         _______ _______ _______ _____ _____    ______ ____
ROOT
ATOM      1  O   UNL     1      -2.029  -0.385  24.850  0.00  0.00    -0.361 OA
ATOM      3  O   UNL     1      -5.496   0.250  25.371  0.00  0.00    -0.273 OA
ATOM      6  N   UNL     1      -3.907   1.587  24.313  0.00  0.00    -0.291 N 
ATOM      8  C   UNL     1      -2.489   1.782  23.921  0.00  0.00    +0.135 C 
ATOM      9  C   UNL     1      -1.781   0.431  23.705  0.00  0.00    +0.171 C 
ATOM     13  C   UNL     1      -4.362   0.412  24.914  0.00  0.00    +0.242 C 
ATOM     15  C   UNL     1      -3.387  -0.748  24.921  0.00  0.00    +0.256 C 
ENDROOT
BRANCH   9  14
ATOM     14  C   UNL     1      -0.278   0.534  23.551  0.00  0.00    -0.017 A 
ATOM     18  C   UNL     1       0.411  -0.406  22.782  0.00  0.00    +0.008 A 
ATOM     19  C   UNL     1       0.418   1.568  24.177  0.00  0.00    +0.008 A 
ATOM     20  C   UNL     1       1.795  -0.311  22.642  0.00  0.00    +0.023 A 
ATOM     21  C   UNL     1       1.804   1.662  24.035  0.00  0.00    +0.023 A 
ATOM     22  C   UNL     1       2.491   0.722  23.267  0.00  0.00    +0.033 A 
BRANCH  22   7
ATOM      4  O   UNL     1       4.666  -1.224  24.000  0.00  0.00    -0.273 OA
ATOM      7  N   UNL     1       3.876   0.817  23.126  0.00  0.00    -0.284 N 
ATOM     23  C   UNL     1       4.849  -0.125  23.484  0.00  0.00    +0.243 C 
ATOM     27  H   UNL     1       4.213   1.683  22.710  0.00  0.00    +0.155 HD
BRANCH  23  24
ATOM     24  C   UNL     1       6.251   0.351  23.169  0.00  0.00    +0.255 C 
BRANCH  24   5
ATOM      5  O   UNL     1       6.976  -0.717  22.596  0.00  0.00    -0.374 OA
ATOM     25  C   UNL     1       8.378  -0.581  22.811  0.00  0.00    +0.194 C 
ENDBRANCH  24   5
ENDBRANCH  23  24
ENDBRANCH  22   7
ENDBRANCH   9  14
BRANCH   6  10
ATOM     10  C   UNL     1      -4.792   2.748  24.289  0.00  0.00    +0.111 C 
BRANCH  10  11
ATOM     11  C   UNL     1      -4.852   3.464  25.642  0.00  0.00    +0.000 C 
ATOM     16  C   UNL     1      -5.936   4.543  25.618  0.00  0.00    +0.009 C 
ATOM     17  C   UNL     1      -3.504   4.087  26.012  0.00  0.00    +0.009 C 
ENDBRANCH  10  11
ENDBRANCH   6  10
BRANCH   8  12
ATOM     12  C   UNL     1      -2.339   2.675  22.682  0.00  0.00    +0.181 C 
BRANCH  12   2
ATOM      2  O   UNL     1      -2.504   1.868  21.533  0.00  0.00    -0.393 OA
ATOM     26  H   UNL     1      -3.420   1.985  21.230  0.00  0.00    +0.209 HD
ENDBRANCH  12   2
ENDBRANCH   8  12
TORSDOF 8
ENDMDL
MODEL 3
REMARK VINA RESULT:       0.3      2.092      3.785
REMARK  Name = 71693324
REMARK  11 active torsions:
REMARK  status: ('A' for Active; 'I' for Inactive)
REMARK    1  A    between atoms: O_2  and  C_12
REMARK    2  A    between atoms: O_5  and  C_24
REMARK    3  A    between atoms: O_5  and  C_25
REMARK    4  A    between atoms: N_6  and  C_10
REMARK    5  A    between atoms: N_7  and  C_22
REMARK    6  A    between atoms: C_8  and  C_12
REMARK    7  A    between atoms: C_9  and  C_14
REMARK    8  A    between atoms: C_10  and  C_11
REMARK    9  A    between atoms: C_11  and  C_16
REMARK   10  A    between atoms: C_11  and  C_17
REMARK   11  A    between atoms: C_23  and  C_24
REMARK                            x       y       z     vdW  Elec       q    Type
REMARK                         _______ _______ _______ _____ _____    ______ ____
ROOT
ATOM      1  O   UNL     1      -1.716   1.751  22.911  0.00  0.00    -0.361 OA
ATOM      3  O   UNL     1      -5.091   1.560  24.036  0.00  0.00    -0.273 OA
ATOM      6  N   UNL     1      -3.223   0.402  24.812  0.00  0.00    -0.291 N 
ATOM      8  C   UNL     1      -1.774   0.117  24.671  0.00  0.00    +0.135 C 
ATOM      9  C   UNL     1      -1.022   1.328  24.086  0.00  0.00    +0.171 C 
ATOM     13  C   UNL     1      -3.873   1.372  24.046  0.00  0.00    +0.242 C 
ATOM     15  C   UNL     1      -2.975   2.289  23.240  0.00  0.00    +0.256 C 
ENDROOT
BRANCH   9  14
ATOM     14  C   UNL     1       0.406   1.036  23.676  0.00  0.00    -0.017 A 
ATOM     18  C   UNL     1       0.716  -0.163  23.033  0.00  0.00    +0.008 A 
ATOM     19  C   UNL     1       1.412   1.965  23.943  0.00  0.00    +0.008 A 
ATOM     20  C   UNL     1       2.032  -0.432  22.657  0.00  0.00    +0.023 A 
ATOM     21  C   UNL     1       2.728   1.695  23.566  0.00  0.00    +0.023 A 
ATOM     22  C   UNL     1       3.037   0.497  22.923  0.00  0.00    +0.033 A 
BRANCH  22   7
ATOM      4  O   UNL     1       5.366  -0.505  24.544  0.00  0.00    -0.273 OA
ATOM      7  N   UNL     1       4.354   0.227  22.546  0.00  0.00    -0.284 N 
ATOM     23  C   UNL     1       5.403  -0.243  23.346  0.00  0.00    +0.243 C 
ATOM     27  H   UNL     1       4.568   0.396  21.565  0.00  0.00    +0.155 HD
BRANCH  23  24
ATOM     24  C   UNL     1       6.689  -0.410  22.563  0.00  0.00    +0.255 C 
BRANCH  24   5
ATOM      5  O   UNL     1       7.764   0.059  23.349  0.00  0.00    -0.374 OA
ATOM     25  C   UNL     1       9.023  -0.344  22.820  0.00  0.00    +0.194 C 
ENDBRANCH  24   5
ENDBRANCH  23  24
ENDBRANCH  22   7
ENDBRANCH   9  14
BRANCH   6  10
ATOM     10  C   UNL     1      -4.032  -0.525  25.599  0.00  0.00    +0.111 C 
BRANCH  10  11
ATOM     11  C   UNL     1      -4.256  -1.859  24.879  0.00  0.00    +0.000 C 
ATOM     16  C   UNL     1      -3.256  -2.901  25.381  0.00  0.00    +0.009 C 
ATOM     17  C   UNL     1      -4.136  -1.709  23.360  0.00  0.00    +0.009 C 
ENDBRANCH  10  11
ENDBRANCH   6  10
BRANCH   8  12
ATOM     12  C   UNL     1      -1.132  -0.332  25.990  0.00  0.00    +0.181 C 
BRANCH  12   2
ATOM      2  O   UNL     1      -0.275  -1.422  25.716  0.00  0.00    -0.393 OA
ATOM     26  H   UNL     1      -0.207  -1.498  24.749  0.00  0.00    +0.209 HD
ENDBRANCH  12   2
ENDBRANCH   8  12
TORSDOF 8
ENDMDL
MODEL 4
REMARK VINA RESULT:       1.1      1.541      2.619
REMARK  Name = 71693324
REMARK  11 active torsions:
REMARK  status: ('A' for Active; 'I' for Inactive)
REMARK    1  A    between atoms: O_2  and  C_12
REMARK    2  A    between atoms: O_5  and  C_24
REMARK    3  A    between atoms: O_5  and  C_25
REMARK    4  A    between atoms: N_6  and  C_10
REMARK    5  A    between atoms: N_7  and  C_22
REMARK    6  A    between atoms: C_8  and  C_12
REMARK    7  A    between atoms: C_9  and  C_14
REMARK    8  A    between atoms: C_10  and  C_11
REMARK    9  A    between atoms: C_11  and  C_16
REMARK   10  A    between atoms: C_11  and  C_17
REMARK   11  A    between atoms: C_23  and  C_24
REMARK                            x       y       z     vdW  Elec       q    Type
REMARK                         _______ _______ _______ _____ _____    ______ ____
ROOT
ATOM      1  O   UNL     1      -1.823   3.507  25.572  0.00  0.00    -0.361 OA
ATOM      3  O   UNL     1      -5.135   4.686  26.150  0.00  0.00    -0.273 OA
ATOM      6  N   UNL     1      -4.430   2.881  24.854  0.00  0.00    -0.291 N 
ATOM      8  C   UNL     1      -3.298   2.091  24.310  0.00  0.00    +0.135 C 
ATOM      9  C   UNL     1      -2.082   2.138  25.255  0.00  0.00    +0.171 C 
ATOM     13  C   UNL     1      -4.247   3.922  25.767  0.00  0.00    +0.242 C 
ATOM     15  C   UNL     1      -2.857   4.042  26.362  0.00  0.00    +0.256 C 
ENDROOT
BRANCH   9  14
ATOM     14  C   UNL     1      -0.809   1.573  24.660  0.00  0.00    -0.017 A 
ATOM     18  C   UNL     1      -0.680   0.196  24.471  0.00  0.00    +0.008 A 
ATOM     19  C   UNL     1       0.233   2.427  24.302  0.00  0.00    +0.008 A 
ATOM     20  C   UNL     1       0.492  -0.325  23.924  0.00  0.00    +0.023 A 
ATOM     21  C   UNL     1       1.406   1.905  23.754  0.00  0.00    +0.023 A 
ATOM     22  C   UNL     1       1.534   0.529  23.565  0.00  0.00    +0.033 A 
BRANCH  22   7
ATOM      4  O   UNL     1       4.167   1.856  22.963  0.00  0.00    -0.273 OA
ATOM      7  N   UNL     1       2.708   0.008  23.018  0.00  0.00    -0.284 N 
ATOM     23  C   UNL     1       3.913   0.673  22.760  0.00  0.00    +0.243 C 
ATOM     27  H   UNL     1       2.674  -0.982  22.780  0.00  0.00    +0.155 HD
BRANCH  23  24
ATOM     24  C   UNL     1       4.956  -0.244  22.158  0.00  0.00    +0.255 C 
BRANCH  24   5
ATOM      5  O   UNL     1       6.059  -0.317  23.038  0.00  0.00    -0.374 OA
ATOM     25  C   UNL     1       5.670  -0.740  24.341  0.00  0.00    +0.194 C 
ENDBRANCH  24   5
ENDBRANCH  23  24
ENDBRANCH  22   7
ENDBRANCH   9  14
BRANCH   6  10
ATOM     10  C   UNL     1      -5.741   2.721  24.231  0.00  0.00    +0.111 C 
BRANCH  10  11
ATOM     11  C   UNL     1      -6.649   1.771  25.019  0.00  0.00    +0.000 C 
ATOM     16  C   UNL     1      -6.255   1.774  26.497  0.00  0.00    +0.009 C 
ATOM     17  C   UNL     1      -6.590   0.345  24.466  0.00  0.00    +0.009 C 
ENDBRANCH  10  11
ENDBRANCH   6  10
BRANCH   8  12
ATOM     12  C   UNL     1      -3.688   0.639  24.003  0.00  0.00    +0.181 C 
BRANCH  12   2
ATOM      2  O   UNL     1      -3.670  -0.088  25.215  0.00  0.00    -0.393 OA
ATOM     26  H   UNL     1      -3.866  -1.015  24.997  0.00  0.00    +0.209 HD
ENDBRANCH  12   2
ENDBRANCH   8  12
TORSDOF 8
ENDMDL
