MODEL 1
REMARK VINA RESULT:      16.5      0.000      0.000
REMARK  Name = 40780323
REMARK  8 active torsions:
REMARK  status: ('A' for Active; 'I' for Inactive)
REMARK    1  A    between atoms: O_4  and  C_22
REMARK    2  A    between atoms: O_4  and  C_34
REMARK    3  A    between atoms: N_8  and  C_13
REMARK    4  A    between atoms: N_8  and  C_23
REMARK    5  A    between atoms: C_11  and  C_19
REMARK    6  A    between atoms: C_15  and  C_22
REMARK    7  A    between atoms: C_23  and  C_31
REMARK    8  A    between atoms: C_33  and  C_36
REMARK                            x       y       z     vdW  Elec       q    Type
REMARK                         _______ _______ _______ _____ _____    ______ ____
ROOT
ATOM      6  N   UNL     1      -1.408   1.271  25.019  0.00  0.00    -0.274 NA
ATOM      7  N   UNL     1      -4.122  -0.581  23.198  0.00  0.00    -0.356 N 
ATOM     10  C   UNL     1      -2.386   1.169  23.892  0.00  0.00    +0.106 C 
ATOM     11  C   UNL     1      -0.738   2.595  25.053  0.00  0.00    +0.090 C 
ATOM     12  C   UNL     1      -3.452   2.270  23.996  0.00  0.00    +0.044 C 
ATOM     13  C   UNL     1      -2.796   3.651  23.986  0.00  0.00    +0.058 C 
ATOM     14  C   UNL     1      -1.775   3.743  25.118  0.00  0.00    +0.042 C 
ATOM     15  C   UNL     1      -0.488   0.103  25.095  0.00  0.00    +0.172 C 
ATOM     16  C   UNL     1      -3.002  -0.198  23.882  0.00  0.00    +0.038 A 
ATOM     17  C   UNL     1      -1.240  -1.232  25.324  0.00  0.00    +0.068 C 
ATOM     18  C   UNL     1      -2.486  -1.309  24.512  0.00  0.00    -0.016 A 
ATOM     20  C   UNL     1      -3.344  -2.407  24.232  0.00  0.00    +0.003 A 
ATOM     21  C   UNL     1      -4.362  -1.922  23.406  0.00  0.00    +0.047 A 
ATOM     26  C   UNL     1      -3.355  -3.769  24.594  0.00  0.00    +0.010 A 
ATOM     27  C   UNL     1      -5.394  -2.736  22.925  0.00  0.00    +0.026 A 
ATOM     30  C   UNL     1      -4.382  -4.593  24.122  0.00  0.00    +0.001 A 
ATOM     32  C   UNL     1      -5.385  -4.082  23.300  0.00  0.00    +0.002 A 
ATOM     40  H   UNL     1      -4.695   0.023  22.624  0.00  0.00    +0.166 HD
ENDROOT
BRANCH  11  19
ATOM     19  C   UNL     1       0.224   2.776  26.226  0.00  0.00    -0.030 A 
ATOM     24  C   UNL     1      -0.002   2.099  27.424  0.00  0.00    +0.006 A 
ATOM     25  C   UNL     1       1.328   3.619  26.099  0.00  0.00    +0.006 A 
ATOM     28  C   UNL     1       0.875   2.265  28.495  0.00  0.00    +0.013 A 
ATOM     29  C   UNL     1       2.206   3.785  27.170  0.00  0.00    +0.013 A 
ATOM     33  C   UNL     1       1.979   3.108  28.368  0.00  0.00    +0.055 A 
BRANCH  33  36
ATOM      1  F   UNL     1       4.207   2.931  29.222  0.00  0.00    -0.166 F 
ATOM      2  F   UNL     1       2.571   2.531  30.598  0.00  0.00    -0.166 F 
ATOM      3  F   UNL     1       2.996   4.568  29.966  0.00  0.00    -0.166 F 
ATOM     36  C   UNL     1       2.920   3.282  29.513  0.00  0.00    +0.417 C 
ENDBRANCH  33  36
ENDBRANCH  11  19
BRANCH  15  22
ATOM      5  O   UNL     1       0.264  -0.833  23.004  0.00  0.00    -0.249 OA
ATOM     22  C   UNL     1       0.372   0.030  23.865  0.00  0.00    +0.325 C 
BRANCH  22   4
ATOM      4  O   UNL     1       1.268   1.057  23.873  0.00  0.00    -0.467 OA
ATOM     34  C   UNL     1       2.452   0.847  23.097  0.00  0.00    +0.280 C 
ENDBRANCH  22   4
ENDBRANCH  15  22
BRANCH  13   8
ATOM      8  N   UNL     1      -3.815   4.692  24.118  0.00  0.00    -0.309 NA
ATOM     41  H   UNL     1      -3.386   5.604  23.960  0.00  0.00    +0.123 HD
BRANCH   8  23
ATOM     23  C   UNL     1      -4.400   4.674  25.450  0.00  0.00    +0.118 C 
BRANCH  23  31
ATOM      9  N   UNL     1      -6.246   1.881  27.216  0.00  0.00    -0.263 NA
ATOM     31  C   UNL     1      -5.251   3.452  25.671  0.00  0.00    -0.015 A 
ATOM     35  C   UNL     1      -5.818   2.770  24.601  0.00  0.00    +0.008 A 
ATOM     37  C   UNL     1      -5.494   2.972  26.948  0.00  0.00    +0.115 A 
ATOM     38  C   UNL     1      -6.598   1.643  24.835  0.00  0.00    +0.020 A 
ATOM     39  C   UNL     1      -6.780   1.244  26.150  0.00  0.00    +0.111 A 
ENDBRANCH  23  31
ENDBRANCH   8  23
ENDBRANCH  13   8
TORSDOF 7
ENDMDL
MODEL 2
REMARK VINA RESULT:      18.8      4.301      8.888
REMARK  Name = 40780323
REMARK  8 active torsions:
REMARK  status: ('A' for Active; 'I' for Inactive)
REMARK    1  A    between atoms: O_4  and  C_22
REMARK    2  A    between atoms: O_4  and  C_34
REMARK    3  A    between atoms: N_8  and  C_13
REMARK    4  A    between atoms: N_8  and  C_23
REMARK    5  A    between atoms: C_11  and  C_19
REMARK    6  A    between atoms: C_15  and  C_22
REMARK    7  A    between atoms: C_23  and  C_31
REMARK    8  A    between atoms: C_33  and  C_36
REMARK                            x       y       z     vdW  Elec       q    Type
REMARK                         _______ _______ _______ _____ _____    ______ ____
ROOT
ATOM      6  N   UNL     1      -0.787   0.816  24.878  0.00  0.00    -0.274 NA
ATOM      7  N   UNL     1       1.880   2.839  26.580  0.00  0.00    -0.356 N 
ATOM     10  C   UNL     1       0.327   1.812  24.823  0.00  0.00    +0.106 C 
ATOM     11  C   UNL     1      -1.260   0.437  23.522  0.00  0.00    +0.090 C 
ATOM     12  C   UNL     1       1.510   1.261  24.014  0.00  0.00    +0.044 C 
ATOM     13  C   UNL     1       1.067   0.906  22.594  0.00  0.00    +0.058 C 
ATOM     14  C   UNL     1      -0.091  -0.088  22.652  0.00  0.00    +0.042 C 
ATOM     15  C   UNL     1      -1.865   1.202  25.829  0.00  0.00    +0.172 C 
ATOM     16  C   UNL     1       0.736   2.187  26.217  0.00  0.00    +0.038 A 
ATOM     17  C   UNL     1      -1.355   1.327  27.287  0.00  0.00    +0.068 C 
ATOM     18  C   UNL     1      -0.024   1.991  27.349  0.00  0.00    -0.016 A 
ATOM     20  C   UNL     1       0.702   2.512  28.455  0.00  0.00    +0.003 A 
ATOM     21  C   UNL     1       1.893   3.037  27.945  0.00  0.00    +0.047 A 
ATOM     26  C   UNL     1       0.463   2.595  29.842  0.00  0.00    +0.010 A 
ATOM     27  C   UNL     1       2.860   3.641  28.757  0.00  0.00    +0.026 A 
ATOM     30  C   UNL     1       1.423   3.194  30.665  0.00  0.00    +0.001 A 
ATOM     32  C   UNL     1       2.601   3.708  30.129  0.00  0.00    +0.002 A 
ATOM     40  H   UNL     1       2.615   3.133  25.950  0.00  0.00    +0.166 HD
ENDROOT
BRANCH  11  19
ATOM     19  C   UNL     1      -2.353  -0.629  23.518  0.00  0.00    -0.030 A 
ATOM     24  C   UNL     1      -3.660  -0.285  23.172  0.00  0.00    +0.006 A 
ATOM     25  C   UNL     1      -2.045  -1.946  23.859  0.00  0.00    +0.006 A 
ATOM     28  C   UNL     1      -4.659  -1.258  23.168  0.00  0.00    +0.013 A 
ATOM     29  C   UNL     1      -3.045  -2.919  23.855  0.00  0.00    +0.013 A 
ATOM     33  C   UNL     1      -4.351  -2.575  23.509  0.00  0.00    +0.055 A 
BRANCH  33  36
ATOM      1  F   UNL     1      -5.186  -4.646  24.367  0.00  0.00    -0.166 F 
ATOM      2  F   UNL     1      -5.579  -4.196  22.277  0.00  0.00    -0.166 F 
ATOM      3  F   UNL     1      -6.652  -3.138  23.843  0.00  0.00    -0.166 F 
ATOM     36  C   UNL     1      -5.420  -3.616  23.502  0.00  0.00    +0.417 C 
ENDBRANCH  33  36
ENDBRANCH  11  19
BRANCH  15  22
ATOM      5  O   UNL     1      -1.923   3.480  25.040  0.00  0.00    -0.249 OA
ATOM     22  C   UNL     1      -2.529   2.474  25.383  0.00  0.00    +0.325 C 
BRANCH  22   4
ATOM      4  O   UNL     1      -3.883   2.320  25.424  0.00  0.00    -0.467 OA
ATOM     34  C   UNL     1      -4.637   3.531  25.543  0.00  0.00    +0.280 C 
ENDBRANCH  22   4
ENDBRANCH  15  22
BRANCH  13   8
ATOM      8  N   UNL     1       2.192   0.352  21.841  0.00  0.00    -0.309 NA
ATOM     41  H   UNL     1       2.291  -0.639  22.064  0.00  0.00    +0.123 HD
BRANCH   8  23
ATOM     23  C   UNL     1       3.429   1.035  22.186  0.00  0.00    +0.118 C 
BRANCH  23  31
ATOM      9  N   UNL     1       4.740  -1.960  24.096  0.00  0.00    -0.263 NA
ATOM     31  C   UNL     1       4.336   0.165  23.015  0.00  0.00    -0.015 A 
ATOM     35  C   UNL     1       5.565   0.635  23.465  0.00  0.00    +0.008 A 
ATOM     37  C   UNL     1       3.974  -1.128  23.354  0.00  0.00    +0.115 A 
ATOM     38  C   UNL     1       6.382  -0.190  24.230  0.00  0.00    +0.020 A 
ATOM     39  C   UNL     1       5.927  -1.468  24.515  0.00  0.00    +0.111 A 
ENDBRANCH  23  31
ENDBRANCH   8  23
ENDBRANCH  13   8
TORSDOF 7
ENDMDL
MODEL 3
REMARK VINA RESULT:      18.8      2.870      5.990
REMARK  Name = 40780323
REMARK  8 active torsions:
REMARK  status: ('A' for Active; 'I' for Inactive)
REMARK    1  A    between atoms: O_4  and  C_22
REMARK    2  A    between atoms: O_4  and  C_34
REMARK    3  A    between atoms: N_8  and  C_13
REMARK    4  A    between atoms: N_8  and  C_23
REMARK    5  A    between atoms: C_11  and  C_19
REMARK    6  A    between atoms: C_15  and  C_22
REMARK    7  A    between atoms: C_23  and  C_31
REMARK    8  A    between atoms: C_33  and  C_36
REMARK                            x       y       z     vdW  Elec       q    Type
REMARK                         _______ _______ _______ _____ _____    ______ ____
ROOT
ATOM      6  N   UNL     1      -0.090   0.837  24.246  0.00  0.00    -0.274 NA
ATOM      7  N   UNL     1      -3.557   2.279  24.328  0.00  0.00    -0.356 N 
ATOM     10  C   UNL     1      -1.535   0.736  24.620  0.00  0.00    +0.106 C 
ATOM     11  C   UNL     1       0.639  -0.431  24.503  0.00  0.00    +0.090 C 
ATOM     12  C   UNL     1      -2.218  -0.402  23.846  0.00  0.00    +0.044 C 
ATOM     13  C   UNL     1      -1.520  -1.733  24.126  0.00  0.00    +0.058 C 
ATOM     14  C   UNL     1      -0.037  -1.619  23.775  0.00  0.00    +0.042 C 
ATOM     15  C   UNL     1       0.566   2.055  24.794  0.00  0.00    +0.172 C 
ATOM     16  C   UNL     1      -2.210   2.053  24.377  0.00  0.00    +0.038 A 
ATOM     17  C   UNL     1      -0.083   3.364  24.276  0.00  0.00    +0.068 C 
ATOM     18  C   UNL     1      -1.568   3.264  24.237  0.00  0.00    -0.016 A 
ATOM     20  C   UNL     1      -2.561   4.265  24.058  0.00  0.00    +0.003 A 
ATOM     21  C   UNL     1      -3.800   3.620  24.119  0.00  0.00    +0.047 A 
ATOM     26  C   UNL     1      -2.531   5.659  23.856  0.00  0.00    +0.010 A 
ATOM     27  C   UNL     1      -5.013   4.304  23.985  0.00  0.00    +0.026 A 
ATOM     30  C   UNL     1      -3.737   6.355  23.718  0.00  0.00    +0.001 A 
ATOM     32  C   UNL     1      -4.958   5.686  23.782  0.00  0.00    +0.002 A 
ATOM     40  H   UNL     1      -4.276   1.574  24.427  0.00  0.00    +0.166 HD
ENDROOT
BRANCH  11  19
ATOM     19  C   UNL     1       2.105  -0.405  24.077  0.00  0.00    -0.030 A 
ATOM     24  C   UNL     1       2.629   0.728  23.455  0.00  0.00    +0.006 A 
ATOM     25  C   UNL     1       2.920  -1.513  24.311  0.00  0.00    +0.006 A 
ATOM     28  C   UNL     1       3.969   0.753  23.066  0.00  0.00    +0.013 A 
ATOM     29  C   UNL     1       4.259  -1.487  23.922  0.00  0.00    +0.013 A 
ATOM     33  C   UNL     1       4.783  -0.355  23.300  0.00  0.00    +0.055 A 
BRANCH  33  36
ATOM      1  F   UNL     1       6.395  -0.200  21.539  0.00  0.00    -0.166 F 
ATOM      2  F   UNL     1       6.886  -1.462  23.240  0.00  0.00    -0.166 F 
ATOM      3  F   UNL     1       6.924   0.702  23.437  0.00  0.00    -0.166 F 
ATOM     36  C   UNL     1       6.216  -0.327  22.886  0.00  0.00    +0.417 C 
ENDBRANCH  33  36
ENDBRANCH  11  19
BRANCH  15  22
ATOM      5  O   UNL     1      -0.149   1.296  26.968  0.00  0.00    -0.249 OA
ATOM     22  C   UNL     1       0.575   2.019  26.296  0.00  0.00    +0.325 C 
BRANCH  22   4
ATOM      4  O   UNL     1       1.498   2.903  26.769  0.00  0.00    -0.467 OA
ATOM     34  C   UNL     1       1.776   2.813  28.170  0.00  0.00    +0.280 C 
ENDBRANCH  22   4
ENDBRANCH  15  22
BRANCH  13   8
ATOM      8  N   UNL     1      -2.156  -2.805  23.362  0.00  0.00    -0.309 NA
ATOM     41  H   UNL     1      -2.210  -2.531  22.380  0.00  0.00    +0.123 HD
BRANCH   8  23
ATOM     23  C   UNL     1      -3.502  -3.058  23.851  0.00  0.00    +0.118 C 
BRANCH  23  31
ATOM      9  N   UNL     1      -5.472   0.109  24.498  0.00  0.00    -0.263 NA
ATOM     31  C   UNL     1      -4.073  -1.861  24.564  0.00  0.00    -0.015 A 
ATOM     35  C   UNL     1      -3.758  -1.602  25.894  0.00  0.00    +0.008 A 
ATOM     37  C   UNL     1      -4.927  -0.983  23.917  0.00  0.00    +0.115 A 
ATOM     38  C   UNL     1      -4.299  -0.488  26.526  0.00  0.00    +0.020 A 
ATOM     39  C   UNL     1      -5.143   0.328  25.791  0.00  0.00    +0.111 A 
ENDBRANCH  23  31
ENDBRANCH   8  23
ENDBRANCH  13   8
TORSDOF 7
ENDMDL
