MODEL 1
REMARK VINA RESULT:       1.4      0.000      0.000
REMARK  Name = 7142696
REMARK  3 active torsions:
REMARK  status: ('A' for Active; 'I' for Inactive)
REMARK    1  A    between atoms: N_7  and  C_18
REMARK    2  A    between atoms: C_17  and  C_20
REMARK    3  A    between atoms: C_23  and  C_27
REMARK                            x       y       z     vdW  Elec       q    Type
REMARK                         _______ _______ _______ _____ _____    ______ ____
ROOT
ATOM      2  O   UNL     1       0.061   2.606  25.810  0.00  0.00    -0.266 OA
ATOM      3  O   UNL     1      -4.108  -0.124  27.201  0.00  0.00    -0.270 OA
ATOM      5  N   UNL     1      -4.732   1.273  25.432  0.00  0.00    -0.297 N 
ATOM      6  N   UNL     1      -1.984   2.670  24.682  0.00  0.00    -0.310 N 
ATOM      8  C   UNL     1      -4.106   3.666  25.717  0.00  0.00    +0.027 C 
ATOM      9  C   UNL     1      -4.188   2.683  23.461  0.00  0.00    +0.054 C 
ATOM     10  C   UNL     1      -4.512   3.937  24.273  0.00  0.00    +0.018 C 
ATOM     11  C   UNL     1      -4.882   2.460  26.276  0.00  0.00    +0.113 C 
ATOM     12  C   UNL     1      -2.588   3.451  25.771  0.00  0.00    +0.130 C 
ATOM     13  C   UNL     1      -5.005   1.492  24.002  0.00  0.00    +0.117 C 
ATOM     14  C   UNL     1      -2.707   2.360  23.526  0.00  0.00    +0.027 A 
ATOM     15  C   UNL     1      -2.103   1.746  22.494  0.00  0.00    +0.024 A 
ATOM     16  C   UNL     1      -0.621   2.340  24.819  0.00  0.00    +0.273 A 
ATOM     17  C   UNL     1      -4.336   0.064  26.008  0.00  0.00    +0.247 C 
ATOM     18  C   UNL     1       0.008   1.633  23.659  0.00  0.00    +0.099 A 
ATOM     19  C   UNL     1      -0.718   1.375  22.566  0.00  0.00    +0.030 A 
ENDROOT
BRANCH  17  20
ATOM     20  C   UNL     1      -4.153  -1.090  25.123  0.00  0.00    +0.037 A 
ATOM     21  C   UNL     1      -4.787  -1.122  23.883  0.00  0.00    +0.013 A 
ATOM     22  C   UNL     1      -3.346  -2.150  25.527  0.00  0.00    +0.013 A 
ATOM     24  C   UNL     1      -4.610  -2.221  23.041  0.00  0.00    +0.001 A 
ATOM     25  C   UNL     1      -3.169  -3.249  24.687  0.00  0.00    +0.001 A 
ATOM     26  C   UNL     1      -3.801  -3.284  23.444  0.00  0.00    +0.000 A 
ENDBRANCH  17  20
BRANCH  18   7
ATOM      4  O   UNL     1       1.278  -0.407  22.188  0.00  0.00    -0.270 OA
ATOM      7  N   UNL     1       1.321   1.279  23.760  0.00  0.00    -0.277 N 
ATOM     23  C   UNL     1       1.910   0.260  23.010  0.00  0.00    +0.248 C 
ATOM     33  H   UNL     1       1.823   1.710  24.528  0.00  0.00    +0.155 HD
BRANCH  23  27
ATOM      1  F   UNL     1       7.366  -0.530  23.893  0.00  0.00    -0.205 F 
ATOM     27  C   UNL     1       3.347   0.051  23.240  0.00  0.00    +0.037 A 
ATOM     28  C   UNL     1       4.234   1.090  22.996  0.00  0.00    +0.016 A 
ATOM     29  C   UNL     1       3.791  -1.179  23.701  0.00  0.00    +0.016 A 
ATOM     30  C   UNL     1       5.597   0.891  23.217  0.00  0.00    +0.039 A 
ATOM     31  C   UNL     1       5.155  -1.376  23.922  0.00  0.00    +0.039 A 
ATOM     32  C   UNL     1       6.057  -0.340  23.680  0.00  0.00    +0.123 A 
ENDBRANCH  23  27
ENDBRANCH  18   7
TORSDOF 3
ENDMDL
