MODEL 1
REMARK VINA RESULT:      -1.7      0.000      0.000
REMARK  Name = 26745445
REMARK  7 active torsions:
REMARK  status: ('A' for Active; 'I' for Inactive)
REMARK    1  A    between atoms: S_1  and  N_6
REMARK    2  A    between atoms: S_1  and  C_17
REMARK    3  A    between atoms: O_4  and  C_14
REMARK    4  A    between atoms: O_4  and  C_25
REMARK    5  A    between atoms: N_7  and  C_15
REMARK    6  A    between atoms: C_9  and  C_14
REMARK    7  A    between atoms: C_15  and  C_18
REMARK                            x       y       z     vdW  Elec       q    Type
REMARK                         _______ _______ _______ _____ _____    ______ ____
ROOT
ATOM      6  N   UNL     1      -0.541   0.861  25.103  0.00  0.00    -0.157 NA
ATOM      7  N   UNL     1      -3.823  -0.534  23.974  0.00  0.00    -0.328 N 
ATOM      8  N   UNL     1      -2.938  -2.496  24.576  0.00  0.00    -0.240 NA
ATOM      9  C   UNL     1       0.225  -0.415  24.865  0.00  0.00    +0.194 C 
ATOM     10  C   UNL     1      -1.834   1.018  24.338  0.00  0.00    +0.165 C 
ATOM     11  C   UNL     1      -0.625  -1.664  25.185  0.00  0.00    +0.089 C 
ATOM     12  C   UNL     1      -2.536  -0.279  24.344  0.00  0.00    +0.057 A 
ATOM     13  C   UNL     1      -2.014  -1.497  24.704  0.00  0.00    +0.066 A 
ATOM     16  C   UNL     1      -4.018  -1.883  24.132  0.00  0.00    +0.200 A 
ENDROOT
BRANCH   6   1
ATOM      1  S   UNL     1       0.387   2.292  25.272  0.00  0.00    +0.062 S 
ATOM      2  O   UNL     1       1.053   2.574  24.020  0.00  0.00    -0.153 OA
ATOM      3  O   UNL     1       1.128   2.224  26.513  0.00  0.00    -0.153 OA
BRANCH   1  17
ATOM     17  C   UNL     1      -0.906   3.475  25.476  0.00  0.00    +0.106 A 
ATOM     19  C   UNL     1      -0.886   4.663  24.745  0.00  0.00    +0.028 A 
ATOM     20  C   UNL     1      -1.949   3.223  26.368  0.00  0.00    +0.028 A 
ATOM     23  C   UNL     1      -1.908   5.599  24.906  0.00  0.00    +0.002 A 
ATOM     24  C   UNL     1      -2.971   4.158  26.529  0.00  0.00    +0.002 A 
ATOM     26  C   UNL     1      -2.951   5.346  25.798  0.00  0.00    +0.000 A 
ENDBRANCH   1  17
ENDBRANCH   6   1
BRANCH   9  14
ATOM      5  O   UNL     1       0.009  -0.296  22.473  0.00  0.00    -0.249 OA
ATOM     14  C   UNL     1       0.726  -0.423  23.456  0.00  0.00    +0.326 C 
BRANCH  14   4
ATOM      4  O   UNL     1       2.079  -0.592  23.455  0.00  0.00    -0.467 OA
ATOM     25  C   UNL     1       2.792   0.165  22.471  0.00  0.00    +0.280 C 
ENDBRANCH  14   4
ENDBRANCH   9  14
BRANCH   7  15
ATOM     15  C   UNL     1      -4.800   0.415  23.501  0.00  0.00    +0.158 C 
BRANCH  15  18
ATOM     18  C   UNL     1      -5.277   1.367  24.570  0.00  0.00    -0.028 A 
ATOM     21  C   UNL     1      -5.172   2.744  24.376  0.00  0.00    +0.005 A 
ATOM     22  C   UNL     1      -5.825   0.869  25.752  0.00  0.00    +0.005 A 
ATOM     27  C   UNL     1      -5.614   3.624  25.365  0.00  0.00    +0.000 A 
ATOM     28  C   UNL     1      -6.266   1.748  26.740  0.00  0.00    +0.000 A 
ATOM     29  C   UNL     1      -6.161   3.125  26.547  0.00  0.00    +0.000 A 
ENDBRANCH  15  18
ENDBRANCH   7  15
TORSDOF 6
ENDMDL
MODEL 2
REMARK VINA RESULT:      -1.5      2.333      4.763
REMARK  Name = 26745445
REMARK  7 active torsions:
REMARK  status: ('A' for Active; 'I' for Inactive)
REMARK    1  A    between atoms: S_1  and  N_6
REMARK    2  A    between atoms: S_1  and  C_17
REMARK    3  A    between atoms: O_4  and  C_14
REMARK    4  A    between atoms: O_4  and  C_25
REMARK    5  A    between atoms: N_7  and  C_15
REMARK    6  A    between atoms: C_9  and  C_14
REMARK    7  A    between atoms: C_15  and  C_18
REMARK                            x       y       z     vdW  Elec       q    Type
REMARK                         _______ _______ _______ _____ _____    ______ ____
ROOT
ATOM      6  N   UNL     1      -2.477  -0.316  24.361  0.00  0.00    -0.157 NA
ATOM      7  N   UNL     1       0.666   1.672  24.761  0.00  0.00    -0.328 N 
ATOM      8  N   UNL     1       1.401   0.429  23.055  0.00  0.00    -0.240 NA
ATOM      9  C   UNL     1      -1.791  -1.508  23.743  0.00  0.00    +0.194 C 
ATOM     10  C   UNL     1      -1.608   0.601  25.187  0.00  0.00    +0.165 C 
ATOM     11  C   UNL     1      -0.614  -1.089  22.836  0.00  0.00    +0.089 C 
ATOM     12  C   UNL     1      -0.316   0.767  24.493  0.00  0.00    +0.057 A 
ATOM     13  C   UNL     1       0.159   0.014  23.448  0.00  0.00    +0.066 A 
ATOM     16  C   UNL     1       1.680   1.430  23.867  0.00  0.00    +0.200 A 
ENDROOT
BRANCH   6   1
ATOM      1  S   UNL     1      -4.058  -0.570  24.969  0.00  0.00    +0.062 S 
ATOM      2  O   UNL     1      -3.969  -1.018  26.342  0.00  0.00    -0.153 OA
ATOM      3  O   UNL     1      -4.823  -1.313  23.991  0.00  0.00    -0.153 OA
BRANCH   1  17
ATOM     17  C   UNL     1      -4.655   1.090  24.979  0.00  0.00    +0.106 A 
ATOM     19  C   UNL     1      -5.582   1.493  25.941  0.00  0.00    +0.028 A 
ATOM     20  C   UNL     1      -4.201   2.001  24.025  0.00  0.00    +0.028 A 
ATOM     23  C   UNL     1      -6.055   2.805  25.949  0.00  0.00    +0.002 A 
ATOM     24  C   UNL     1      -4.673   3.313  24.033  0.00  0.00    +0.002 A 
ATOM     26  C   UNL     1      -5.600   3.716  24.995  0.00  0.00    +0.000 A 
ENDBRANCH   1  17
ENDBRANCH   6   1
BRANCH   9  14
ATOM      5  O   UNL     1      -0.288  -2.350  25.420  0.00  0.00    -0.249 OA
ATOM     14  C   UNL     1      -1.358  -2.435  24.833  0.00  0.00    +0.326 C 
BRANCH  14   4
ATOM      4  O   UNL     1      -2.331  -3.365  25.054  0.00  0.00    -0.467 OA
ATOM     25  C   UNL     1      -3.141  -3.689  23.918  0.00  0.00    +0.280 C 
ENDBRANCH  14   4
ENDBRANCH   9  14
BRANCH   7  15
ATOM     15  C   UNL     1       0.661   2.689  25.783  0.00  0.00    +0.158 C 
BRANCH  15  18
ATOM     18  C   UNL     1      -0.485   3.662  25.655  0.00  0.00    -0.028 A 
ATOM     21  C   UNL     1      -0.399   4.726  24.757  0.00  0.00    +0.005 A 
ATOM     22  C   UNL     1      -1.630   3.496  26.433  0.00  0.00    +0.005 A 
ATOM     27  C   UNL     1      -1.460   5.626  24.639  0.00  0.00    +0.000 A 
ATOM     28  C   UNL     1      -2.689   4.394  26.315  0.00  0.00    +0.000 A 
ATOM     29  C   UNL     1      -2.605   5.460  25.418  0.00  0.00    +0.000 A 
ENDBRANCH  15  18
ENDBRANCH   7  15
TORSDOF 6
ENDMDL
MODEL 3
REMARK VINA RESULT:      -0.8      1.983      5.373
REMARK  Name = 26745445
REMARK  7 active torsions:
REMARK  status: ('A' for Active; 'I' for Inactive)
REMARK    1  A    between atoms: S_1  and  N_6
REMARK    2  A    between atoms: S_1  and  C_17
REMARK    3  A    between atoms: O_4  and  C_14
REMARK    4  A    between atoms: O_4  and  C_25
REMARK    5  A    between atoms: N_7  and  C_15
REMARK    6  A    between atoms: C_9  and  C_14
REMARK    7  A    between atoms: C_15  and  C_18
REMARK                            x       y       z     vdW  Elec       q    Type
REMARK                         _______ _______ _______ _____ _____    ______ ____
ROOT
ATOM      6  N   UNL     1      -1.730   2.661  24.479  0.00  0.00    -0.157 NA
ATOM      7  N   UNL     1      -4.545   0.383  25.415  0.00  0.00    -0.328 N 
ATOM      8  N   UNL     1      -5.814   1.886  24.354  0.00  0.00    -0.240 NA
ATOM      9  C   UNL     1      -2.592   3.895  24.393  0.00  0.00    +0.194 C 
ATOM     10  C   UNL     1      -2.268   1.526  25.316  0.00  0.00    +0.165 C 
ATOM     11  C   UNL     1      -3.999   3.576  23.842  0.00  0.00    +0.089 C 
ATOM     12  C   UNL     1      -3.715   1.401  25.054  0.00  0.00    +0.057 A 
ATOM     13  C   UNL     1      -4.516   2.312  24.409  0.00  0.00    +0.066 A 
ATOM     16  C   UNL     1      -5.799   0.720  24.970  0.00  0.00    +0.200 A 
ENDROOT
BRANCH   6   1
ATOM      1  S   UNL     1      -0.039   2.914  24.589  0.00  0.00    +0.062 S 
ATOM      2  O   UNL     1       0.377   2.729  25.962  0.00  0.00    -0.153 OA
ATOM      3  O   UNL     1       0.304   4.117  23.861  0.00  0.00    -0.153 OA
BRANCH   1  17
ATOM     17  C   UNL     1       0.540   1.532  23.657  0.00  0.00    +0.106 A 
ATOM     19  C   UNL     1       1.911   1.317  23.506  0.00  0.00    +0.028 A 
ATOM     20  C   UNL     1      -0.371   0.653  23.072  0.00  0.00    +0.028 A 
ATOM     23  C   UNL     1       2.369   0.225  22.769  0.00  0.00    +0.002 A 
ATOM     24  C   UNL     1       0.087  -0.439  22.336  0.00  0.00    +0.002 A 
ATOM     26  C   UNL     1       1.457  -0.653  22.184  0.00  0.00    +0.000 A 
ENDBRANCH   1  17
ENDBRANCH   6   1
BRANCH   9  14
ATOM      5  O   UNL     1      -3.398   4.181  26.640  0.00  0.00    -0.249 OA
ATOM     14  C   UNL     1      -2.650   4.539  25.741  0.00  0.00    +0.326 C 
BRANCH  14   4
ATOM      4  O   UNL     1      -1.752   5.565  25.794  0.00  0.00    -0.467 OA
ATOM     25  C   UNL     1      -1.609   6.319  24.586  0.00  0.00    +0.280 C 
ENDBRANCH  14   4
ENDBRANCH   9  14
BRANCH   7  15
ATOM     15  C   UNL     1      -4.193  -0.819  26.130  0.00  0.00    +0.158 C 
BRANCH  15  18
ATOM     18  C   UNL     1      -3.002  -1.536  25.545  0.00  0.00    -0.028 A 
ATOM     21  C   UNL     1      -3.176  -2.431  24.489  0.00  0.00    +0.005 A 
ATOM     22  C   UNL     1      -1.727  -1.305  26.060  0.00  0.00    +0.005 A 
ATOM     27  C   UNL     1      -2.074  -3.095  23.949  0.00  0.00    +0.000 A 
ATOM     28  C   UNL     1      -0.626  -1.968  25.520  0.00  0.00    +0.000 A 
ATOM     29  C   UNL     1      -0.799  -2.863  24.464  0.00  0.00    +0.000 A 
ENDBRANCH  15  18
ENDBRANCH   7  15
TORSDOF 6
ENDMDL
MODEL 4
REMARK VINA RESULT:       0.5      1.959      2.468
REMARK  Name = 26745445
REMARK  7 active torsions:
REMARK  status: ('A' for Active; 'I' for Inactive)
REMARK    1  A    between atoms: S_1  and  N_6
REMARK    2  A    between atoms: S_1  and  C_17
REMARK    3  A    between atoms: O_4  and  C_14
REMARK    4  A    between atoms: O_4  and  C_25
REMARK    5  A    between atoms: N_7  and  C_15
REMARK    6  A    between atoms: C_9  and  C_14
REMARK    7  A    between atoms: C_15  and  C_18
REMARK                            x       y       z     vdW  Elec       q    Type
REMARK                         _______ _______ _______ _____ _____    ______ ____
ROOT
ATOM      6  N   UNL     1      -0.859   1.184  25.434  0.00  0.00    -0.157 NA
ATOM      7  N   UNL     1      -3.951  -0.772  24.655  0.00  0.00    -0.328 N 
ATOM      8  N   UNL     1      -2.654  -2.548  25.052  0.00  0.00    -0.240 NA
ATOM      9  C   UNL     1       0.088   0.077  25.045  0.00  0.00    +0.194 C 
ATOM     10  C   UNL     1      -2.246   1.115  24.843  0.00  0.00    +0.165 C 
ATOM     11  C   UNL     1      -0.472  -1.315  25.410  0.00  0.00    +0.089 C 
ATOM     12  C   UNL     1      -2.696  -0.290  24.875  0.00  0.00    +0.057 A 
ATOM     13  C   UNL     1      -1.919  -1.398  25.112  0.00  0.00    +0.066 A 
ATOM     16  C   UNL     1      -3.876  -2.137  24.774  0.00  0.00    +0.200 A 
ENDROOT
BRANCH   6   1
ATOM      1  S   UNL     1      -0.192   2.757  25.554  0.00  0.00    +0.062 S 
ATOM      2  O   UNL     1      -1.268   3.718  25.664  0.00  0.00    -0.153 OA
ATOM      3  O   UNL     1       0.842   2.906  24.553  0.00  0.00    -0.153 OA
BRANCH   1  17
ATOM     17  C   UNL     1       0.592   2.640  27.131  0.00  0.00    +0.106 A 
ATOM     19  C   UNL     1       1.935   2.991  27.270  0.00  0.00    +0.028 A 
ATOM     20  C   UNL     1      -0.130   2.196  28.238  0.00  0.00    +0.028 A 
ATOM     23  C   UNL     1       2.556   2.899  28.516  0.00  0.00    +0.002 A 
ATOM     24  C   UNL     1       0.490   2.103  29.484  0.00  0.00    +0.002 A 
ATOM     26  C   UNL     1       1.833   2.455  29.623  0.00  0.00    +0.000 A 
ENDBRANCH   1  17
ENDBRANCH   6   1
BRANCH   9  14
ATOM      5  O   UNL     1      -0.310   0.787  22.783  0.00  0.00    -0.249 OA
ATOM     14  C   UNL     1       0.396   0.194  23.587  0.00  0.00    +0.326 C 
BRANCH  14   4
ATOM      4  O   UNL     1       1.564  -0.455  23.314  0.00  0.00    -0.467 OA
ATOM     25  C   UNL     1       2.471   0.245  22.455  0.00  0.00    +0.280 C 
ENDBRANCH  14   4
ENDBRANCH   9  14
BRANCH   7  15
ATOM     15  C   UNL     1      -5.137  -0.010  24.349  0.00  0.00    +0.158 C 
BRANCH  15  18
ATOM     18  C   UNL     1      -5.007   1.457  24.677  0.00  0.00    -0.028 A 
ATOM     21  C   UNL     1      -4.383   2.320  23.776  0.00  0.00    +0.005 A 
ATOM     22  C   UNL     1      -5.513   1.949  25.880  0.00  0.00    +0.005 A 
ATOM     27  C   UNL     1      -4.263   3.677  24.080  0.00  0.00    +0.000 A 
ATOM     28  C   UNL     1      -5.394   3.305  26.183  0.00  0.00    +0.000 A 
ATOM     29  C   UNL     1      -4.769   4.169  25.283  0.00  0.00    +0.000 A 
ENDBRANCH  15  18
ENDBRANCH   7  15
TORSDOF 6
ENDMDL
MODEL 5
REMARK VINA RESULT:       1.2      2.370      6.451
REMARK  Name = 26745445
REMARK  7 active torsions:
REMARK  status: ('A' for Active; 'I' for Inactive)
REMARK    1  A    between atoms: S_1  and  N_6
REMARK    2  A    between atoms: S_1  and  C_17
REMARK    3  A    between atoms: O_4  and  C_14
REMARK    4  A    between atoms: O_4  and  C_25
REMARK    5  A    between atoms: N_7  and  C_15
REMARK    6  A    between atoms: C_9  and  C_14
REMARK    7  A    between atoms: C_15  and  C_18
REMARK                            x       y       z     vdW  Elec       q    Type
REMARK                         _______ _______ _______ _____ _____    ______ ____
ROOT
ATOM      6  N   UNL     1      -1.008   2.125  24.295  0.00  0.00    -0.157 NA
ATOM      7  N   UNL     1       1.920   0.577  22.555  0.00  0.00    -0.328 N 
ATOM      8  N   UNL     1       0.406  -0.875  21.784  0.00  0.00    -0.240 NA
ATOM      9  C   UNL     1      -1.815   0.852  24.334  0.00  0.00    +0.194 C 
ATOM     10  C   UNL     1       0.485   1.965  24.142  0.00  0.00    +0.165 C 
ATOM     11  C   UNL     1      -1.596  -0.008  23.071  0.00  0.00    +0.089 C 
ATOM     12  C   UNL     1       0.740   0.896  23.158  0.00  0.00    +0.057 A 
ATOM     13  C   UNL     1      -0.171  -0.011  22.673  0.00  0.00    +0.066 A 
ATOM     16  C   UNL     1       1.668  -0.495  21.736  0.00  0.00    +0.200 A 
ENDROOT
BRANCH   6   1
ATOM      1  S   UNL     1      -1.506   3.381  25.347  0.00  0.00    +0.062 S 
ATOM      2  O   UNL     1      -1.221   4.657  24.726  0.00  0.00    -0.153 OA
ATOM      3  O   UNL     1      -1.042   3.083  26.685  0.00  0.00    -0.153 OA
BRANCH   1  17
ATOM     17  C   UNL     1      -3.253   3.140  25.311  0.00  0.00    +0.106 A 
ATOM     19  C   UNL     1      -3.860   2.599  24.177  0.00  0.00    +0.028 A 
ATOM     20  C   UNL     1      -4.029   3.489  26.416  0.00  0.00    +0.028 A 
ATOM     23  C   UNL     1      -5.241   2.408  24.148  0.00  0.00    +0.002 A 
ATOM     24  C   UNL     1      -5.410   3.298  26.388  0.00  0.00    +0.002 A 
ATOM     26  C   UNL     1      -6.017   2.758  25.254  0.00  0.00    +0.000 A 
ENDBRANCH   1  17
ENDBRANCH   6   1
BRANCH   9  14
ATOM      5  O   UNL     1      -0.616   0.452  26.379  0.00  0.00    -0.249 OA
ATOM     14  C   UNL     1      -1.481   0.106  25.586  0.00  0.00    +0.326 C 
BRANCH  14   4
ATOM      4  O   UNL     1      -2.281  -0.993  25.689  0.00  0.00    -0.467 OA
ATOM     25  C   UNL     1      -3.689  -0.730  25.694  0.00  0.00    +0.280 C 
ENDBRANCH  14   4
ENDBRANCH   9  14
BRANCH   7  15
ATOM     15  C   UNL     1       3.195   1.225  22.737  0.00  0.00    +0.158 C 
BRANCH  15  18
ATOM     18  C   UNL     1       4.262   0.308  23.281  0.00  0.00    -0.028 A 
ATOM     21  C   UNL     1       5.547   0.796  23.518  0.00  0.00    +0.005 A 
ATOM     22  C   UNL     1       3.962  -1.028  23.549  0.00  0.00    +0.005 A 
ATOM     27  C   UNL     1       6.533  -0.054  24.022  0.00  0.00    +0.000 A 
ATOM     28  C   UNL     1       4.947  -1.876  24.052  0.00  0.00    +0.000 A 
ATOM     29  C   UNL     1       6.233  -1.390  24.289  0.00  0.00    +0.000 A 
ENDBRANCH  15  18
ENDBRANCH   7  15
TORSDOF 6
ENDMDL
MODEL 6
REMARK VINA RESULT:       1.3      2.302      4.799
REMARK  Name = 26745445
REMARK  7 active torsions:
REMARK  status: ('A' for Active; 'I' for Inactive)
REMARK    1  A    between atoms: S_1  and  N_6
REMARK    2  A    between atoms: S_1  and  C_17
REMARK    3  A    between atoms: O_4  and  C_14
REMARK    4  A    between atoms: O_4  and  C_25
REMARK    5  A    between atoms: N_7  and  C_15
REMARK    6  A    between atoms: C_9  and  C_14
REMARK    7  A    between atoms: C_15  and  C_18
REMARK                            x       y       z     vdW  Elec       q    Type
REMARK                         _______ _______ _______ _____ _____    ______ ____
ROOT
ATOM      6  N   UNL     1      -1.574   3.079  25.541  0.00  0.00    -0.157 NA
ATOM      7  N   UNL     1      -0.141  -0.269  24.688  0.00  0.00    -0.328 N 
ATOM      8  N   UNL     1       1.194   0.901  23.330  0.00  0.00    -0.240 NA
ATOM      9  C   UNL     1      -1.189   3.716  24.230  0.00  0.00    +0.194 C 
ATOM     10  C   UNL     1      -1.680   1.573  25.547  0.00  0.00    +0.165 C 
ATOM     11  C   UNL     1       0.161   3.182  23.705  0.00  0.00    +0.089 C 
ATOM     12  C   UNL     1      -0.560   1.025  24.759  0.00  0.00    +0.057 A 
ATOM     13  C   UNL     1       0.271   1.722  23.915  0.00  0.00    +0.066 A 
ATOM     16  C   UNL     1       0.918  -0.294  23.816  0.00  0.00    +0.200 A 
ENDROOT
BRANCH   6   1
ATOM      1  S   UNL     1      -2.753   3.899  26.475  0.00  0.00    +0.062 S 
ATOM      2  O   UNL     1      -2.807   5.283  26.057  0.00  0.00    -0.153 OA
ATOM      3  O   UNL     1      -2.575   3.547  27.868  0.00  0.00    -0.153 OA
BRANCH   1  17
ATOM     17  C   UNL     1      -4.216   3.100  25.896  0.00  0.00    +0.106 A 
ATOM     19  C   UNL     1      -4.184   1.748  25.555  0.00  0.00    +0.028 A 
ATOM     20  C   UNL     1      -5.404   3.821  25.779  0.00  0.00    +0.028 A 
ATOM     23  C   UNL     1      -5.340   1.116  25.097  0.00  0.00    +0.002 A 
ATOM     24  C   UNL     1      -6.561   3.189  25.321  0.00  0.00    +0.002 A 
ATOM     26  C   UNL     1      -6.528   1.837  24.980  0.00  0.00    +0.000 A 
ENDBRANCH   1  17
ENDBRANCH   6   1
BRANCH   9  14
ATOM      5  O   UNL     1      -3.242   4.270  23.107  0.00  0.00    -0.249 OA
ATOM     14  C   UNL     1      -2.296   3.506  23.247  0.00  0.00    +0.326 C 
BRANCH  14   4
ATOM      4  O   UNL     1      -2.078   2.351  22.555  0.00  0.00    -0.467 OA
ATOM     25  C   UNL     1      -2.780   2.238  21.312  0.00  0.00    +0.280 C 
ENDBRANCH  14   4
ENDBRANCH   9  14
BRANCH   7  15
ATOM     15  C   UNL     1      -0.696  -1.405  25.383  0.00  0.00    +0.158 C 
BRANCH  15  18
ATOM     18  C   UNL     1      -2.031  -1.848  24.837  0.00  0.00    -0.028 A 
ATOM     21  C   UNL     1      -2.533  -3.108  25.160  0.00  0.00    +0.005 A 
ATOM     22  C   UNL     1      -2.762  -0.995  24.010  0.00  0.00    +0.005 A 
ATOM     27  C   UNL     1      -3.768  -3.517  24.655  0.00  0.00    +0.000 A 
ATOM     28  C   UNL     1      -3.996  -1.404  23.506  0.00  0.00    +0.000 A 
ATOM     29  C   UNL     1      -4.500  -2.665  23.828  0.00  0.00    +0.000 A 
ENDBRANCH  15  18
ENDBRANCH   7  15
TORSDOF 6
ENDMDL
MODEL 7
REMARK VINA RESULT:       1.5      1.983      4.749
REMARK  Name = 26745445
REMARK  7 active torsions:
REMARK  status: ('A' for Active; 'I' for Inactive)
REMARK    1  A    between atoms: S_1  and  N_6
REMARK    2  A    between atoms: S_1  and  C_17
REMARK    3  A    between atoms: O_4  and  C_14
REMARK    4  A    between atoms: O_4  and  C_25
REMARK    5  A    between atoms: N_7  and  C_15
REMARK    6  A    between atoms: C_9  and  C_14
REMARK    7  A    between atoms: C_15  and  C_18
REMARK                            x       y       z     vdW  Elec       q    Type
REMARK                         _______ _______ _______ _____ _____    ______ ____
ROOT
ATOM      6  N   UNL     1      -0.399   1.496  24.076  0.00  0.00    -0.157 NA
ATOM      7  N   UNL     1      -2.964   4.214  24.246  0.00  0.00    -0.328 N 
ATOM      8  N   UNL     1      -1.300   5.418  25.127  0.00  0.00    -0.240 NA
ATOM      9  C   UNL     1       0.433   2.041  25.209  0.00  0.00    +0.194 C 
ATOM     10  C   UNL     1      -1.844   1.933  24.037  0.00  0.00    +0.165 C 
ATOM     11  C   UNL     1       0.444   3.585  25.225  0.00  0.00    +0.089 C 
ATOM     12  C   UNL     1      -1.905   3.367  24.378  0.00  0.00    +0.057 A 
ATOM     13  C   UNL     1      -0.899   4.127  24.925  0.00  0.00    +0.066 A 
ATOM     16  C   UNL     1      -2.551   5.438  24.709  0.00  0.00    +0.200 A 
ENDROOT
BRANCH   6   1
ATOM      1  S   UNL     1      -0.115  -0.133  23.630  0.00  0.00    +0.062 S 
ATOM      2  O   UNL     1       0.851  -0.710  24.539  0.00  0.00    -0.153 OA
ATOM      3  O   UNL     1       0.077  -0.200  22.197  0.00  0.00    -0.153 OA
BRANCH   1  17
ATOM     17  C   UNL     1      -1.692  -0.833  24.000  0.00  0.00    +0.106 A 
ATOM     19  C   UNL     1      -1.774  -2.049  24.678  0.00  0.00    +0.028 A 
ATOM     20  C   UNL     1      -2.857  -0.170  23.614  0.00  0.00    +0.028 A 
ATOM     23  C   UNL     1      -3.020  -2.603  24.971  0.00  0.00    +0.002 A 
ATOM     24  C   UNL     1      -4.104  -0.724  23.906  0.00  0.00    +0.002 A 
ATOM     26  C   UNL     1      -4.185  -1.940  24.585  0.00  0.00    +0.000 A 
ENDBRANCH   1  17
ENDBRANCH   6   1
BRANCH   9  14
ATOM      5  O   UNL     1      -0.513   0.336  26.615  0.00  0.00    -0.249 OA
ATOM     14  C   UNL     1      -0.069   1.470  26.496  0.00  0.00    +0.326 C 
BRANCH  14   4
ATOM      4  O   UNL     1       0.048   2.402  27.485  0.00  0.00    -0.467 OA
ATOM     25  C   UNL     1       1.184   2.248  28.343  0.00  0.00    +0.280 C 
ENDBRANCH  14   4
ENDBRANCH   9  14
BRANCH   7  15
ATOM     15  C   UNL     1      -4.273   3.900  23.727  0.00  0.00    +0.158 C 
BRANCH  15  18
ATOM     18  C   UNL     1      -5.105   3.064  24.668  0.00  0.00    -0.028 A 
ATOM     21  C   UNL     1      -5.855   1.996  24.174  0.00  0.00    +0.005 A 
ATOM     22  C   UNL     1      -5.123   3.358  26.031  0.00  0.00    +0.005 A 
ATOM     27  C   UNL     1      -6.625   1.224  25.045  0.00  0.00    +0.000 A 
ATOM     28  C   UNL     1      -5.891   2.586  26.901  0.00  0.00    +0.000 A 
ATOM     29  C   UNL     1      -6.643   1.518  26.408  0.00  0.00    +0.000 A 
ENDBRANCH  15  18
ENDBRANCH   7  15
TORSDOF 6
ENDMDL
MODEL 8
REMARK VINA RESULT:       1.7      1.863      4.923
REMARK  Name = 26745445
REMARK  7 active torsions:
REMARK  status: ('A' for Active; 'I' for Inactive)
REMARK    1  A    between atoms: S_1  and  N_6
REMARK    2  A    between atoms: S_1  and  C_17
REMARK    3  A    between atoms: O_4  and  C_14
REMARK    4  A    between atoms: O_4  and  C_25
REMARK    5  A    between atoms: N_7  and  C_15
REMARK    6  A    between atoms: C_9  and  C_14
REMARK    7  A    between atoms: C_15  and  C_18
REMARK                            x       y       z     vdW  Elec       q    Type
REMARK                         _______ _______ _______ _____ _____    ______ ____
ROOT
ATOM      6  N   UNL     1      -0.808   2.123  23.970  0.00  0.00    -0.157 NA
ATOM      7  N   UNL     1      -4.431   2.513  24.817  0.00  0.00    -0.328 N 
ATOM      8  N   UNL     1      -3.799   4.507  25.603  0.00  0.00    -0.240 NA
ATOM      9  C   UNL     1      -0.329   3.075  25.037  0.00  0.00    +0.194 C 
ATOM     10  C   UNL     1      -2.173   1.513  24.183  0.00  0.00    +0.165 C 
ATOM     11  C   UNL     1      -1.307   4.253  25.238  0.00  0.00    +0.089 C 
ATOM     12  C   UNL     1      -3.074   2.560  24.700  0.00  0.00    +0.057 A 
ATOM     13  C   UNL     1      -2.711   3.790  25.193  0.00  0.00    +0.066 A 
ATOM     16  C   UNL     1      -4.822   3.709  25.365  0.00  0.00    +0.200 A 
ENDROOT
BRANCH   6   1
ATOM      1  S   UNL     1       0.365   1.074  23.296  0.00  0.00    +0.062 S 
ATOM      2  O   UNL     1       1.668   1.425  23.816  0.00  0.00    -0.153 OA
ATOM      3  O   UNL     1       0.135   0.968  21.871  0.00  0.00    -0.153 OA
BRANCH   1  17
ATOM     17  C   UNL     1      -0.121  -0.451  24.039  0.00  0.00    +0.106 A 
ATOM     19  C   UNL     1      -0.670  -1.466  23.254  0.00  0.00    +0.028 A 
ATOM     20  C   UNL     1       0.042  -0.642  25.410  0.00  0.00    +0.028 A 
ATOM     23  C   UNL     1      -1.054  -2.672  23.841  0.00  0.00    +0.002 A 
ATOM     24  C   UNL     1      -0.342  -1.848  25.998  0.00  0.00    +0.002 A 
ATOM     26  C   UNL     1      -0.891  -2.862  25.213  0.00  0.00    +0.000 A 
ENDBRANCH   1  17
ENDBRANCH   6   1
BRANCH   9  14
ATOM      5  O   UNL     1      -0.885   1.482  26.750  0.00  0.00    -0.249 OA
ATOM     14  C   UNL     1      -0.103   2.310  26.302  0.00  0.00    +0.326 C 
BRANCH  14   4
ATOM      4  O   UNL     1       1.087   2.683  26.853  0.00  0.00    -0.467 OA
ATOM     25  C   UNL     1       1.187   2.514  28.271  0.00  0.00    +0.280 C 
ENDBRANCH  14   4
ENDBRANCH   9  14
BRANCH   7  15
ATOM     15  C   UNL     1      -5.301   1.423  24.448  0.00  0.00    +0.158 C 
BRANCH  15  18
ATOM     18  C   UNL     1      -4.717   0.064  24.742  0.00  0.00    -0.028 A 
ATOM     21  C   UNL     1      -4.168  -0.203  25.997  0.00  0.00    +0.005 A 
ATOM     22  C   UNL     1      -4.726  -0.926  23.759  0.00  0.00    +0.005 A 
ATOM     27  C   UNL     1      -3.628  -1.461  26.267  0.00  0.00    +0.000 A 
ATOM     28  C   UNL     1      -4.187  -2.182  24.030  0.00  0.00    +0.000 A 
ATOM     29  C   UNL     1      -3.637  -2.451  25.284  0.00  0.00    +0.000 A 
ENDBRANCH  15  18
ENDBRANCH   7  15
TORSDOF 6
ENDMDL
