MODEL 1
REMARK VINA RESULT:      14.7      0.000      0.000
REMARK  Name = 7050338
REMARK  7 active torsions:
REMARK  status: ('A' for Active; 'I' for Inactive)
REMARK    1  A    between atoms: S_2  and  C_29
REMARK    2  A    between atoms: S_2  and  C_31
REMARK    3  A    between atoms: O_6  and  C_24
REMARK    4  A    between atoms: O_6  and  C_30
REMARK    5  A    between atoms: N_8  and  C_17
REMARK    6  A    between atoms: N_9  and  C_11
REMARK    7  A    between atoms: C_18  and  C_21
REMARK                            x       y       z     vdW  Elec       q    Type
REMARK                         _______ _______ _______ _____ _____    ______ ____
ROOT
ATOM      3  O   UNL     1      -1.301   2.930  23.346  0.00  0.00    -0.273 OA
ATOM      4  O   UNL     1      -3.150   0.006  26.444  0.00  0.00    -0.252 OA
ATOM      7  N   UNL     1      -1.200   0.009  25.185  0.00  0.00    -0.273 N 
ATOM      8  N   UNL     1      -2.563   1.776  24.985  0.00  0.00    -0.193 N 
ATOM     10  C   UNL     1      -0.539   0.824  24.204  0.00  0.00    +0.166 C 
ATOM     11  C   UNL     1       0.261  -1.325  23.119  0.00  0.00    +0.077 C 
ATOM     12  C   UNL     1      -0.362   0.064  22.894  0.00  0.00    +0.054 C 
ATOM     13  C   UNL     1      -0.496  -2.111  24.205  0.00  0.00    +0.041 C 
ATOM     14  C   UNL     1      -0.667  -1.305  25.494  0.00  0.00    +0.112 C 
ATOM     15  C   UNL     1      -1.512   1.984  24.097  0.00  0.00    +0.248 C 
ATOM     16  C   UNL     1      -2.398   0.557  25.650  0.00  0.00    +0.316 C 
ENDROOT
BRANCH   8  17
ATOM      1 CL   UNL     1      -7.148   5.481  25.774  0.00  0.00    -0.084 Cl
ATOM     17  C   UNL     1      -3.666   2.668  25.175  0.00  0.00    +0.046 A 
ATOM     19  C   UNL     1      -3.440   3.997  25.539  0.00  0.00    +0.025 A 
ATOM     20  C   UNL     1      -4.975   2.213  24.998  0.00  0.00    +0.025 A 
ATOM     22  C   UNL     1      -4.515   4.867  25.724  0.00  0.00    +0.022 A 
ATOM     23  C   UNL     1      -6.051   3.082  25.183  0.00  0.00    +0.022 A 
ATOM     26  C   UNL     1      -5.821   4.408  25.546  0.00  0.00    +0.041 A 
ENDBRANCH   8  17
BRANCH  11   9
ATOM      5  O   UNL     1       2.248  -0.181  21.479  0.00  0.00    -0.270 OA
ATOM      9  N   UNL     1       1.665  -1.222  23.441  0.00  0.00    -0.308 N 
ATOM     18  C   UNL     1       2.585  -0.639  22.572  0.00  0.00    +0.248 C 
ATOM     32  H   UNL     1       1.985  -1.681  24.287  0.00  0.00    +0.149 HD
BRANCH  18  21
ATOM     21  C   UNL     1       3.971  -0.579  23.056  0.00  0.00    +0.078 A 
ATOM     24  C   UNL     1       4.684   0.611  22.997  0.00  0.00    +0.133 A 
ATOM     25  C   UNL     1       4.548  -1.733  23.569  0.00  0.00    +0.018 A 
ATOM     27  C   UNL     1       5.999   0.647  23.460  0.00  0.00    +0.061 A 
ATOM     28  C   UNL     1       5.863  -1.696  24.031  0.00  0.00    +0.015 A 
ATOM     29  C   UNL     1       6.588  -0.506  23.978  0.00  0.00    +0.011 A 
BRANCH  29   2
ATOM      2  S   UNL     1       8.268  -0.460  24.570  0.00  0.00    -0.128 S 
ATOM     31  C   UNL     1       9.182  -0.038  23.059  0.00  0.00    +0.090 C 
ENDBRANCH  29   2
BRANCH  24   6
ATOM      6  O   UNL     1       4.126   1.748  22.496  0.00  0.00    -0.494 OA
ATOM     30  C   UNL     1       2.872   2.150  23.042  0.00  0.00    +0.277 C 
ENDBRANCH  24   6
ENDBRANCH  18  21
ENDBRANCH  11   9
TORSDOF 5
ENDMDL
