MODEL 1
REMARK VINA RESULT:      -3.0      0.000      0.000
REMARK  Name = 11866321
REMARK  10 active torsions:
REMARK  status: ('A' for Active; 'I' for Inactive)
REMARK    1  A    between atoms: O_1  and  C_11
REMARK    2  A    between atoms: O_2  and  C_12
REMARK    3  A    between atoms: O_6  and  C_30
REMARK    4  A    between atoms: N_7  and  C_13
REMARK    5  A    between atoms: N_8  and  C_18
REMARK    6  A    between atoms: C_15  and  C_17
REMARK    7  A    between atoms: C_18  and  C_20
REMARK    8  A    between atoms: C_18  and  C_22
REMARK    9  A    between atoms: C_19  and  C_23
REMARK   10  A    between atoms: C_20  and  C_21
REMARK                            x       y       z     vdW  Elec       q    Type
REMARK                         _______ _______ _______ _____ _____    ______ ____
ROOT
ATOM     11  C   UNL     1      -1.531  -2.234  24.629  0.00  0.00    +0.167 C 
ATOM     12  C   UNL     1      -3.060  -2.287  24.742  0.00  0.00    +0.149 C 
ATOM     13  C   UNL     1      -1.072  -1.103  23.690  0.00  0.00    +0.128 C 
ATOM     14  C   UNL     1      -3.652  -0.942  25.198  0.00  0.00    +0.074 C 
ATOM     15  C   UNL     1      -2.961   0.248  24.596  0.00  0.00    +0.015 C 
ATOM     16  C   UNL     1      -1.810   0.190  23.912  0.00  0.00    +0.006 C 
ENDROOT
BRANCH  15  17
ATOM      3  O   UNL     1      -3.939   2.217  23.764  0.00  0.00    -0.271 OA
ATOM      8  N   UNL     1      -3.735   1.943  26.071  0.00  0.00    -0.300 N 
ATOM     17  C   UNL     1      -3.593   1.563  24.748  0.00  0.00    +0.241 C 
ATOM     36  H   UNL     1      -3.333   1.360  26.799  0.00  0.00    +0.150 HD
BRANCH   8  18
ATOM     18  C   UNL     1      -4.328   3.199  26.471  0.00  0.00    +0.163 C 
BRANCH  18  22
ATOM      5  O   UNL     1      -5.902   4.456  25.111  0.00  0.00    -0.274 OA
ATOM      9  N   UNL     1      -6.301   2.223  25.474  0.00  0.00    -0.328 N 
ATOM     22  C   UNL     1      -5.583   3.389  25.632  0.00  0.00    +0.231 C 
ATOM     37  H   UNL     1      -7.153   2.207  24.923  0.00  0.00    +0.145 HD
ATOM     38  H   UNL     1      -6.024   1.348  25.907  0.00  0.00    +0.145 HD
ENDBRANCH  18  22
BRANCH  18  20
ATOM     20  C   UNL     1      -3.371   4.381  26.275  0.00  0.00    +0.067 C 
BRANCH  20  21
ATOM     21  C   UNL     1      -2.068   3.975  25.631  0.00  0.00    -0.045 A 
ATOM     24  C   UNL     1      -1.694   4.524  24.405  0.00  0.00    +0.007 A 
ATOM     25  C   UNL     1      -1.237   3.049  26.263  0.00  0.00    +0.007 A 
ATOM     28  C   UNL     1      -0.490   4.148  23.810  0.00  0.00    +0.045 A 
ATOM     29  C   UNL     1      -0.033   2.672  25.667  0.00  0.00    +0.045 A 
ATOM     30  C   UNL     1       0.341   3.221  24.442  0.00  0.00    +0.117 A 
BRANCH  30   6
ATOM      6  O   UNL     1       1.516   2.855  23.861  0.00  0.00    -0.507 OA
ATOM     39  H   UNL     1       2.024   3.656  23.646  0.00  0.00    +0.292 HD
ENDBRANCH  30   6
ENDBRANCH  20  21
ENDBRANCH  18  20
ENDBRANCH   8  18
ENDBRANCH  15  17
BRANCH  13   7
ATOM      4  O   UNL     1       0.734  -0.438  21.558  0.00  0.00    -0.270 OA
ATOM      7  N   UNL     1       0.345  -0.857  23.806  0.00  0.00    -0.302 N 
ATOM     19  C   UNL     1       1.139  -0.540  22.713  0.00  0.00    +0.246 C 
ATOM     33  H   UNL     1       0.770  -1.013  24.715  0.00  0.00    +0.150 HD
BRANCH  19  23
ATOM     10  N   UNL     1       4.644  -1.204  23.923  0.00  0.00    -0.263 NA
ATOM     23  C   UNL     1       2.584  -0.343  22.995  0.00  0.00    +0.055 A 
ATOM     26  C   UNL     1       3.233   0.830  22.624  0.00  0.00    +0.016 A 
ATOM     27  C   UNL     1       3.327  -1.320  23.637  0.00  0.00    +0.123 A 
ATOM     31  C   UNL     1       4.587   0.986  22.901  0.00  0.00    +0.020 A 
ATOM     32  C   UNL     1       5.241  -0.051  23.546  0.00  0.00    +0.111 A 
ENDBRANCH  19  23
ENDBRANCH  13   7
BRANCH  11   1
ATOM      1  O   UNL     1      -0.981  -2.029  25.933  0.00  0.00    -0.387 OA
ATOM     34  H   UNL     1      -0.629  -2.882  26.239  0.00  0.00    +0.210 HD
ENDBRANCH  11   1
BRANCH  12   2
ATOM      2  O   UNL     1      -3.631  -2.676  23.494  0.00  0.00    -0.389 OA
ATOM     35  H   UNL     1      -4.472  -2.199  23.394  0.00  0.00    +0.210 HD
ENDBRANCH  12   2
TORSDOF 10
ENDMDL
MODEL 2
REMARK VINA RESULT:      -1.3      1.705      2.138
REMARK  Name = 11866321
REMARK  10 active torsions:
REMARK  status: ('A' for Active; 'I' for Inactive)
REMARK    1  A    between atoms: O_1  and  C_11
REMARK    2  A    between atoms: O_2  and  C_12
REMARK    3  A    between atoms: O_6  and  C_30
REMARK    4  A    between atoms: N_7  and  C_13
REMARK    5  A    between atoms: N_8  and  C_18
REMARK    6  A    between atoms: C_15  and  C_17
REMARK    7  A    between atoms: C_18  and  C_20
REMARK    8  A    between atoms: C_18  and  C_22
REMARK    9  A    between atoms: C_19  and  C_23
REMARK   10  A    between atoms: C_20  and  C_21
REMARK                            x       y       z     vdW  Elec       q    Type
REMARK                         _______ _______ _______ _____ _____    ______ ____
ROOT
ATOM     11  C   UNL     1      -1.229  -2.643  25.177  0.00  0.00    +0.167 C 
ATOM     12  C   UNL     1      -2.740  -2.771  25.406  0.00  0.00    +0.149 C 
ATOM     13  C   UNL     1      -0.915  -1.796  23.929  0.00  0.00    +0.128 C 
ATOM     14  C   UNL     1      -3.428  -1.398  25.505  0.00  0.00    +0.074 C 
ATOM     15  C   UNL     1      -2.872  -0.382  24.548  0.00  0.00    +0.015 C 
ATOM     16  C   UNL     1      -1.753  -0.551  23.830  0.00  0.00    +0.006 C 
ENDROOT
BRANCH  15  17
ATOM      3  O   UNL     1      -4.542   1.173  25.114  0.00  0.00    -0.271 OA
ATOM      8  N   UNL     1      -3.145   1.624  23.303  0.00  0.00    -0.300 N 
ATOM     17  C   UNL     1      -3.611   0.873  24.368  0.00  0.00    +0.241 C 
ATOM     36  H   UNL     1      -2.425   1.235  22.700  0.00  0.00    +0.150 HD
BRANCH   8  18
ATOM     18  C   UNL     1      -3.715   2.897  22.927  0.00  0.00    +0.163 C 
BRANCH  18  22
ATOM      5  O   UNL     1      -4.139   3.826  20.722  0.00  0.00    -0.274 OA
ATOM      9  N   UNL     1      -2.422   2.321  20.968  0.00  0.00    -0.328 N 
ATOM     22  C   UNL     1      -3.483   3.069  21.433  0.00  0.00    +0.231 C 
ATOM     37  H   UNL     1      -2.148   2.356  19.992  0.00  0.00    +0.145 HD
ATOM     38  H   UNL     1      -1.885   1.702  21.568  0.00  0.00    +0.145 HD
ENDBRANCH  18  22
BRANCH  18  20
ATOM     20  C   UNL     1      -3.090   4.064  23.702  0.00  0.00    +0.067 C 
BRANCH  20  21
ATOM     21  C   UNL     1      -1.959   3.626  24.601  0.00  0.00    -0.045 A 
ATOM     24  C   UNL     1      -0.772   3.146  24.048  0.00  0.00    +0.007 A 
ATOM     25  C   UNL     1      -2.103   3.701  25.987  0.00  0.00    +0.007 A 
ATOM     28  C   UNL     1       0.272   2.742  24.880  0.00  0.00    +0.045 A 
ATOM     29  C   UNL     1      -1.059   3.296  26.819  0.00  0.00    +0.045 A 
ATOM     30  C   UNL     1       0.128   2.817  26.266  0.00  0.00    +0.117 A 
BRANCH  30   6
ATOM      6  O   UNL     1       1.147   2.422  27.078  0.00  0.00    -0.507 OA
ATOM     39  H   UNL     1       0.772   2.044  27.892  0.00  0.00    +0.292 HD
ENDBRANCH  30   6
ENDBRANCH  20  21
ENDBRANCH  18  20
ENDBRANCH   8  18
ENDBRANCH  15  17
BRANCH  13   7
ATOM      4  O   UNL     1       0.227   0.365  22.422  0.00  0.00    -0.270 OA
ATOM      7  N   UNL     1       0.478  -1.426  23.874  0.00  0.00    -0.302 N 
ATOM     19  C   UNL     1       0.937  -0.360  23.113  0.00  0.00    +0.246 C 
ATOM     33  H   UNL     1       1.139  -2.035  24.345  0.00  0.00    +0.150 HD
BRANCH  19  23
ATOM     10  N   UNL     1       4.605  -0.885  23.792  0.00  0.00    -0.263 NA
ATOM     23  C   UNL     1       2.403  -0.126  23.142  0.00  0.00    +0.055 A 
ATOM     26  C   UNL     1       2.957   1.018  22.576  0.00  0.00    +0.016 A 
ATOM     27  C   UNL     1       3.263  -1.038  23.732  0.00  0.00    +0.123 A 
ATOM     31  C   UNL     1       4.334   1.210  22.617  0.00  0.00    +0.020 A 
ATOM     32  C   UNL     1       5.107   0.237  23.231  0.00  0.00    +0.111 A 
ENDBRANCH  19  23
ENDBRANCH  13   7
BRANCH  11   1
ATOM      1  O   UNL     1      -0.640  -2.035  26.330  0.00  0.00    -0.387 OA
ATOM     34  H   UNL     1       0.301  -1.886  26.133  0.00  0.00    +0.210 HD
ENDBRANCH  11   1
BRANCH  12   2
ATOM      2  O   UNL     1      -3.331  -3.539  24.360  0.00  0.00    -0.389 OA
ATOM     35  H   UNL     1      -3.909  -4.202  24.772  0.00  0.00    +0.210 HD
ENDBRANCH  12   2
TORSDOF 10
ENDMDL
MODEL 3
REMARK VINA RESULT:       0.4      1.830      4.231
REMARK  Name = 11866321
REMARK  10 active torsions:
REMARK  status: ('A' for Active; 'I' for Inactive)
REMARK    1  A    between atoms: O_1  and  C_11
REMARK    2  A    between atoms: O_2  and  C_12
REMARK    3  A    between atoms: O_6  and  C_30
REMARK    4  A    between atoms: N_7  and  C_13
REMARK    5  A    between atoms: N_8  and  C_18
REMARK    6  A    between atoms: C_15  and  C_17
REMARK    7  A    between atoms: C_18  and  C_20
REMARK    8  A    between atoms: C_18  and  C_22
REMARK    9  A    between atoms: C_19  and  C_23
REMARK   10  A    between atoms: C_20  and  C_21
REMARK                            x       y       z     vdW  Elec       q    Type
REMARK                         _______ _______ _______ _____ _____    ______ ____
ROOT
ATOM     11  C   UNL     1       0.053   4.302  24.544  0.00  0.00    +0.167 C 
ATOM     12  C   UNL     1      -1.338   4.938  24.660  0.00  0.00    +0.149 C 
ATOM     13  C   UNL     1       0.048   2.839  25.025  0.00  0.00    +0.128 C 
ATOM     14  C   UNL     1      -2.407   4.131  23.903  0.00  0.00    +0.074 C 
ATOM     15  C   UNL     1      -2.223   2.645  24.016  0.00  0.00    +0.015 C 
ATOM     16  C   UNL     1      -1.133   2.053  24.524  0.00  0.00    +0.006 C 
ENDROOT
BRANCH  15  17
ATOM      3  O   UNL     1      -3.373   1.392  22.393  0.00  0.00    -0.271 OA
ATOM      8  N   UNL     1      -4.218   1.476  24.565  0.00  0.00    -0.300 N 
ATOM     17  C   UNL     1      -3.315   1.778  23.560  0.00  0.00    +0.241 C 
ATOM     36  H   UNL     1      -4.118   1.923  25.471  0.00  0.00    +0.150 HD
BRANCH   8  18
ATOM     18  C   UNL     1      -5.379   0.640  24.356  0.00  0.00    +0.163 C 
BRANCH  18  22
ATOM      5  O   UNL     1      -6.521   1.306  26.395  0.00  0.00    -0.274 OA
ATOM      9  N   UNL     1      -7.522   1.758  24.378  0.00  0.00    -0.328 N 
ATOM     22  C   UNL     1      -6.516   1.242  25.168  0.00  0.00    +0.231 C 
ATOM     37  H   UNL     1      -8.333   2.203  24.792  0.00  0.00    +0.145 HD
ATOM     38  H   UNL     1      -7.503   1.702  23.364  0.00  0.00    +0.145 HD
ENDBRANCH  18  22
BRANCH  18  20
ATOM     20  C   UNL     1      -5.131  -0.812  24.781  0.00  0.00    +0.067 C 
BRANCH  20  21
ATOM     21  C   UNL     1      -3.668  -1.115  24.997  0.00  0.00    -0.045 A 
ATOM     24  C   UNL     1      -2.962  -1.856  24.049  0.00  0.00    +0.007 A 
ATOM     25  C   UNL     1      -3.024  -0.655  26.145  0.00  0.00    +0.007 A 
ATOM     28  C   UNL     1      -1.610  -2.136  24.250  0.00  0.00    +0.045 A 
ATOM     29  C   UNL     1      -1.672  -0.935  26.345  0.00  0.00    +0.045 A 
ATOM     30  C   UNL     1      -0.965  -1.675  25.398  0.00  0.00    +0.117 A 
BRANCH  30   6
ATOM      6  O   UNL     1       0.354  -1.948  25.593  0.00  0.00    -0.507 OA
ATOM     39  H   UNL     1       0.886  -1.306  25.092  0.00  0.00    +0.292 HD
ENDBRANCH  30   6
ENDBRANCH  20  21
ENDBRANCH  18  20
ENDBRANCH   8  18
ENDBRANCH  15  17
BRANCH  13   7
ATOM      4  O   UNL     1       0.286   0.699  23.124  0.00  0.00    -0.270 OA
ATOM      7  N   UNL     1       1.259   2.151  24.649  0.00  0.00    -0.302 N 
ATOM     19  C   UNL     1       1.275   1.124  23.715  0.00  0.00    +0.246 C 
ATOM     33  H   UNL     1       2.103   2.383  25.162  0.00  0.00    +0.150 HD
BRANCH  19  23
ATOM     10  N   UNL     1       3.999  -1.469  23.516  0.00  0.00    -0.263 NA
ATOM     23  C   UNL     1       2.598   0.500  23.458  0.00  0.00    +0.055 A 
ATOM     26  C   UNL     1       3.652   1.244  22.939  0.00  0.00    +0.016 A 
ATOM     27  C   UNL     1       2.821  -0.841  23.727  0.00  0.00    +0.123 A 
ATOM     31  C   UNL     1       4.879   0.632  22.708  0.00  0.00    +0.020 A 
ATOM     32  C   UNL     1       5.000  -0.715  23.010  0.00  0.00    +0.111 A 
ENDBRANCH  19  23
ENDBRANCH  13   7
BRANCH  11   1
ATOM      1  O   UNL     1       0.471   4.357  23.177  0.00  0.00    -0.387 OA
ATOM     34  H   UNL     1       0.027   5.119  22.767  0.00  0.00    +0.210 HD
ENDBRANCH  11   1
BRANCH  12   2
ATOM      2  O   UNL     1      -1.704   5.069  26.032  0.00  0.00    -0.389 OA
ATOM     35  H   UNL     1      -2.401   5.743  26.087  0.00  0.00    +0.210 HD
ENDBRANCH  12   2
TORSDOF 10
ENDMDL
