MODEL 1
REMARK VINA RESULT:       2.7      0.000      0.000
REMARK  Name = 7664036
REMARK  9 active torsions:
REMARK  status: ('A' for Active; 'I' for Inactive)
REMARK    1  A    between atoms: S_1  and  N_9
REMARK    2  A    between atoms: S_1  and  C_23
REMARK    3  A    between atoms: O_6  and  C_28
REMARK    4  A    between atoms: O_6  and  C_32
REMARK    5  A    between atoms: N_11  and  C_24
REMARK    6  A    between atoms: C_12  and  C_22
REMARK    7  A    between atoms: C_13  and  C_17
REMARK    8  A    between atoms: C_24  and  C_27
REMARK    9  A    between atoms: C_24  and  C_28
REMARK                            x       y       z     vdW  Elec       q    Type
REMARK                         _______ _______ _______ _____ _____    ______ ____
ROOT
ATOM      2  O   UNL     1       2.583   1.581  24.365  0.00  0.00    -0.275 OA
ATOM      8  N   UNL     1       0.616   0.435  23.877  0.00  0.00    -0.287 N 
ATOM      9  N   UNL     1      -1.958  -0.503  24.691  0.00  0.00    -0.173 NA
ATOM     12  C   UNL     1      -0.171   1.211  24.841  0.00  0.00    +0.177 C 
ATOM     14  C   UNL     1      -1.177   0.368  25.618  0.00  0.00    +0.141 C 
ATOM     15  C   UNL     1      -0.127  -0.534  23.057  0.00  0.00    +0.125 C 
ATOM     16  C   UNL     1      -1.061  -1.391  23.900  0.00  0.00    +0.128 C 
ATOM     17  C   UNL     1       1.962   0.767  23.676  0.00  0.00    +0.219 C 
ENDROOT
BRANCH  17  13
ATOM     10  N   UNL     1       5.381  -0.695  23.352  0.00  0.00    -0.316 NA
ATOM     13  C   UNL     1       2.667   0.071  22.547  0.00  0.00    +0.078 C 
ATOM     18  C   UNL     1       3.906   0.857  22.112  0.00  0.00    +0.028 C 
ATOM     19  C   UNL     1       3.036  -1.362  22.935  0.00  0.00    +0.028 C 
ATOM     20  C   UNL     1       5.061   0.711  23.103  0.00  0.00    +0.081 C 
ATOM     21  C   UNL     1       4.228  -1.415  23.892  0.00  0.00    +0.081 C 
ATOM     33  H   UNL     1       6.155  -0.753  24.013  0.00  0.00    +0.122 HD
ENDBRANCH  17  13
BRANCH  12  22
ATOM      5  O   UNL     1      -1.183   2.162  22.896  0.00  0.00    -0.274 OA
ATOM     11  N   UNL     1      -0.984   3.466  24.814  0.00  0.00    -0.301 N 
ATOM     22  C   UNL     1      -0.840   2.310  24.066  0.00  0.00    +0.236 C 
ATOM     34  H   UNL     1      -0.639   3.486  25.770  0.00  0.00    +0.150 HD
BRANCH  11  24
ATOM     24  C   UNL     1      -1.578   4.676  24.293  0.00  0.00    +0.179 C 
ATOM     27  C   UNL     1      -0.859   5.897  24.847  0.00  0.00    +0.040 C 
BRANCH  24  28
ATOM      7  O   UNL     1      -3.926   4.636  23.731  0.00  0.00    -0.249 OA
ATOM     28  C   UNL     1      -3.066   4.755  24.599  0.00  0.00    +0.327 C 
BRANCH  28   6
ATOM      6  O   UNL     1      -3.311   4.960  25.923  0.00  0.00    -0.467 OA
ATOM     32  C   UNL     1      -3.378   3.783  26.734  0.00  0.00    +0.280 C 
ENDBRANCH  28   6
ENDBRANCH  24  28
ENDBRANCH  11  24
ENDBRANCH  12  22
BRANCH   9   1
ATOM      1  S   UNL     1      -3.330  -1.264  25.378  0.00  0.00    +0.061 S 
ATOM      3  O   UNL     1      -3.053  -1.576  26.764  0.00  0.00    -0.153 OA
ATOM      4  O   UNL     1      -3.809  -2.281  24.466  0.00  0.00    -0.153 OA
BRANCH   1  23
ATOM     23  C   UNL     1      -4.476   0.079  25.346  0.00  0.00    +0.105 A 
ATOM     25  C   UNL     1      -4.520   0.931  24.241  0.00  0.00    +0.028 A 
ATOM     26  C   UNL     1      -5.336   0.288  26.423  0.00  0.00    +0.028 A 
ATOM     29  C   UNL     1      -5.425   1.992  24.216  0.00  0.00    +0.002 A 
ATOM     30  C   UNL     1      -6.241   1.349  26.397  0.00  0.00    +0.002 A 
ATOM     31  C   UNL     1      -6.285   2.201  25.293  0.00  0.00    +0.000 A 
ENDBRANCH   1  23
ENDBRANCH   9   1
TORSDOF 7
ENDMDL
MODEL 2
REMARK VINA RESULT:       3.9      1.872      4.461
REMARK  Name = 7664036
REMARK  9 active torsions:
REMARK  status: ('A' for Active; 'I' for Inactive)
REMARK    1  A    between atoms: S_1  and  N_9
REMARK    2  A    between atoms: S_1  and  C_23
REMARK    3  A    between atoms: O_6  and  C_28
REMARK    4  A    between atoms: O_6  and  C_32
REMARK    5  A    between atoms: N_11  and  C_24
REMARK    6  A    between atoms: C_12  and  C_22
REMARK    7  A    between atoms: C_13  and  C_17
REMARK    8  A    between atoms: C_24  and  C_27
REMARK    9  A    between atoms: C_24  and  C_28
REMARK                            x       y       z     vdW  Elec       q    Type
REMARK                         _______ _______ _______ _____ _____    ______ ____
ROOT
ATOM      2  O   UNL     1       1.257  -0.199  22.174  0.00  0.00    -0.275 OA
ATOM      8  N   UNL     1       0.289   1.213  23.752  0.00  0.00    -0.287 N 
ATOM      9  N   UNL     1      -1.865   2.918  24.542  0.00  0.00    -0.173 NA
ATOM     12  C   UNL     1      -1.073   0.929  23.288  0.00  0.00    +0.177 C 
ATOM     14  C   UNL     1      -1.972   2.162  23.260  0.00  0.00    +0.141 C 
ATOM     15  C   UNL     1       0.409   2.080  24.934  0.00  0.00    +0.125 C 
ATOM     16  C   UNL     1      -0.457   3.326  24.812  0.00  0.00    +0.128 C 
ATOM     17  C   UNL     1       1.361   0.529  23.166  0.00  0.00    +0.219 C 
ENDROOT
BRANCH  17  13
ATOM     10  N   UNL     1       4.828  -0.240  22.014  0.00  0.00    -0.316 NA
ATOM     13  C   UNL     1       2.708   0.713  23.803  0.00  0.00    +0.078 C 
ATOM     18  C   UNL     1       3.407  -0.633  24.001  0.00  0.00    +0.028 C 
ATOM     19  C   UNL     1       3.577   1.665  22.977  0.00  0.00    +0.028 C 
ATOM     20  C   UNL     1       3.955  -1.199  22.690  0.00  0.00    +0.081 C 
ATOM     21  C   UNL     1       4.118   1.002  21.709  0.00  0.00    +0.081 C 
ATOM     33  H   UNL     1       5.175  -0.652  21.148  0.00  0.00    +0.122 HD
ENDBRANCH  17  13
BRANCH  12  22
ATOM      5  O   UNL     1      -0.890  -0.963  24.737  0.00  0.00    -0.274 OA
ATOM     11  N   UNL     1      -3.000  -0.093  24.281  0.00  0.00    -0.301 N 
ATOM     22  C   UNL     1      -1.620  -0.143  24.187  0.00  0.00    +0.236 C 
ATOM     34  H   UNL     1      -3.510   0.615  23.760  0.00  0.00    +0.150 HD
BRANCH  11  24
ATOM     24  C   UNL     1      -3.773  -1.028  25.066  0.00  0.00    +0.179 C 
ATOM     27  C   UNL     1      -3.090  -1.290  26.400  0.00  0.00    +0.040 C 
BRANCH  24  28
ATOM      7  O   UNL     1      -4.903  -2.481  23.503  0.00  0.00    -0.249 OA
ATOM     28  C   UNL     1      -4.004  -2.336  24.325  0.00  0.00    +0.327 C 
BRANCH  28   6
ATOM      6  O   UNL     1      -3.102  -3.295  24.677  0.00  0.00    -0.467 OA
ATOM     32  C   UNL     1      -2.158  -3.663  23.666  0.00  0.00    +0.280 C 
ENDBRANCH  28   6
ENDBRANCH  24  28
ENDBRANCH  11  24
ENDBRANCH  12  22
BRANCH   9   1
ATOM      1  S   UNL     1      -3.043   4.138  24.778  0.00  0.00    +0.061 S 
ATOM      3  O   UNL     1      -3.322   4.777  23.509  0.00  0.00    -0.153 OA
ATOM      4  O   UNL     1      -2.687   4.918  25.944  0.00  0.00    -0.153 OA
BRANCH   1  23
ATOM     23  C   UNL     1      -4.439   3.140  25.196  0.00  0.00    +0.105 A 
ATOM     25  C   UNL     1      -5.076   2.384  24.211  0.00  0.00    +0.028 A 
ATOM     26  C   UNL     1      -4.905   3.108  26.510  0.00  0.00    +0.028 A 
ATOM     29  C   UNL     1      -6.178   1.596  24.542  0.00  0.00    +0.002 A 
ATOM     30  C   UNL     1      -6.008   2.320  26.840  0.00  0.00    +0.002 A 
ATOM     31  C   UNL     1      -6.644   1.565  25.855  0.00  0.00    +0.000 A 
ENDBRANCH   1  23
ENDBRANCH   9   1
TORSDOF 7
ENDMDL
MODEL 3
REMARK VINA RESULT:       4.0      2.233      7.254
REMARK  Name = 7664036
REMARK  9 active torsions:
REMARK  status: ('A' for Active; 'I' for Inactive)
REMARK    1  A    between atoms: S_1  and  N_9
REMARK    2  A    between atoms: S_1  and  C_23
REMARK    3  A    between atoms: O_6  and  C_28
REMARK    4  A    between atoms: O_6  and  C_32
REMARK    5  A    between atoms: N_11  and  C_24
REMARK    6  A    between atoms: C_12  and  C_22
REMARK    7  A    between atoms: C_13  and  C_17
REMARK    8  A    between atoms: C_24  and  C_27
REMARK    9  A    between atoms: C_24  and  C_28
REMARK                            x       y       z     vdW  Elec       q    Type
REMARK                         _______ _______ _______ _____ _____    ______ ____
ROOT
ATOM      2  O   UNL     1      -1.349   4.215  25.624  0.00  0.00    -0.275 OA
ATOM      8  N   UNL     1      -1.270   2.398  24.171  0.00  0.00    -0.287 N 
ATOM      9  N   UNL     1       0.234   0.342  22.873  0.00  0.00    -0.173 NA
ATOM     12  C   UNL     1      -0.112   1.804  24.848  0.00  0.00    +0.177 C 
ATOM     14  C   UNL     1       0.910   1.205  23.887  0.00  0.00    +0.141 C 
ATOM     15  C   UNL     1      -1.855   1.615  23.071  0.00  0.00    +0.125 C 
ATOM     16  C   UNL     1      -0.790   1.107  22.109  0.00  0.00    +0.128 C 
ATOM     17  C   UNL     1      -1.842   3.561  24.700  0.00  0.00    +0.219 C 
ENDROOT
BRANCH  17  13
ATOM     10  N   UNL     1      -5.413   2.750  25.425  0.00  0.00    -0.316 NA
ATOM     13  C   UNL     1      -3.133   4.018  24.084  0.00  0.00    +0.078 C 
ATOM     18  C   UNL     1      -3.893   2.839  23.474  0.00  0.00    +0.028 C 
ATOM     19  C   UNL     1      -3.997   4.754  25.111  0.00  0.00    +0.028 C 
ATOM     20  C   UNL     1      -4.555   1.963  24.540  0.00  0.00    +0.081 C 
ATOM     21  C   UNL     1      -4.654   3.798  26.107  0.00  0.00    +0.081 C 
ATOM     33  H   UNL     1      -5.838   2.135  26.118  0.00  0.00    +0.122 HD
ENDBRANCH  17  13
BRANCH  12  22
ATOM      5  O   UNL     1      -0.608   0.938  27.020  0.00  0.00    -0.274 OA
ATOM     11  N   UNL     1      -1.155  -0.333  25.148  0.00  0.00    -0.301 N 
ATOM     22  C   UNL     1      -0.651   0.777  25.803  0.00  0.00    +0.236 C 
ATOM     34  H   UNL     1      -1.117  -0.373  24.134  0.00  0.00    +0.150 HD
BRANCH  11  24
ATOM     24  C   UNL     1      -1.712  -1.473  25.840  0.00  0.00    +0.179 C 
ATOM     27  C   UNL     1      -1.049  -2.756  25.363  0.00  0.00    +0.040 C 
BRANCH  24  28
ATOM      7  O   UNL     1      -3.989  -0.720  26.120  0.00  0.00    -0.249 OA
ATOM     28  C   UNL     1      -3.221  -1.561  25.665  0.00  0.00    +0.327 C 
BRANCH  28   6
ATOM      6  O   UNL     1      -3.595  -2.660  24.951  0.00  0.00    -0.467 OA
ATOM     32  C   UNL     1      -4.306  -2.400  23.736  0.00  0.00    +0.280 C 
ENDBRANCH  28   6
ENDBRANCH  24  28
ENDBRANCH  11  24
ENDBRANCH  12  22
BRANCH   9   1
ATOM      1  S   UNL     1       1.275  -0.641  21.933  0.00  0.00    +0.061 S 
ATOM      3  O   UNL     1       1.301  -0.138  20.576  0.00  0.00    -0.153 OA
ATOM      4  O   UNL     1       0.983  -2.032  22.207  0.00  0.00    -0.153 OA
BRANCH   1  23
ATOM     23  C   UNL     1       2.826  -0.252  22.682  0.00  0.00    +0.105 A 
ATOM     25  C   UNL     1       3.390   1.011  22.500  0.00  0.00    +0.028 A 
ATOM     26  C   UNL     1       3.486  -1.207  23.454  0.00  0.00    +0.028 A 
ATOM     29  C   UNL     1       4.615   1.318  23.092  0.00  0.00    +0.002 A 
ATOM     30  C   UNL     1       4.712  -0.899  24.046  0.00  0.00    +0.002 A 
ATOM     31  C   UNL     1       5.276   0.363  23.864  0.00  0.00    +0.000 A 
ENDBRANCH   1  23
ENDBRANCH   9   1
TORSDOF 7
ENDMDL
MODEL 4
REMARK VINA RESULT:       4.3      2.268      7.263
REMARK  Name = 7664036
REMARK  9 active torsions:
REMARK  status: ('A' for Active; 'I' for Inactive)
REMARK    1  A    between atoms: S_1  and  N_9
REMARK    2  A    between atoms: S_1  and  C_23
REMARK    3  A    between atoms: O_6  and  C_28
REMARK    4  A    between atoms: O_6  and  C_32
REMARK    5  A    between atoms: N_11  and  C_24
REMARK    6  A    between atoms: C_12  and  C_22
REMARK    7  A    between atoms: C_13  and  C_17
REMARK    8  A    between atoms: C_24  and  C_27
REMARK    9  A    between atoms: C_24  and  C_28
REMARK                            x       y       z     vdW  Elec       q    Type
REMARK                         _______ _______ _______ _____ _____    ______ ____
ROOT
ATOM      2  O   UNL     1      -1.180   3.251  26.647  0.00  0.00    -0.275 OA
ATOM      8  N   UNL     1      -1.092   2.030  24.667  0.00  0.00    -0.287 N 
ATOM      9  N   UNL     1       0.250   0.141  22.992  0.00  0.00    -0.173 NA
ATOM     12  C   UNL     1      -0.300   0.953  25.271  0.00  0.00    +0.177 C 
ATOM     14  C   UNL     1       0.795   0.419  24.353  0.00  0.00    +0.141 C 
ATOM     15  C   UNL     1      -1.512   1.827  23.272  0.00  0.00    +0.125 C 
ATOM     16  C   UNL     1      -0.358   1.363  22.394  0.00  0.00    +0.128 C 
ATOM     17  C   UNL     1      -1.534   3.083  25.477  0.00  0.00    +0.219 C 
ENDROOT
BRANCH  17  13
ATOM     10  N   UNL     1      -5.142   3.815  26.096  0.00  0.00    -0.316 NA
ATOM     13  C   UNL     1      -2.495   4.055  24.854  0.00  0.00    +0.078 C 
ATOM     18  C   UNL     1      -3.655   3.318  24.182  0.00  0.00    +0.028 C 
ATOM     19  C   UNL     1      -3.010   5.054  25.893  0.00  0.00    +0.028 C 
ATOM     20  C   UNL     1      -4.658   2.767  25.197  0.00  0.00    +0.081 C 
ATOM     21  C   UNL     1      -4.041   4.430  26.836  0.00  0.00    +0.081 C 
ATOM     33  H   UNL     1      -5.808   3.413  26.755  0.00  0.00    +0.122 HD
ENDBRANCH  17  13
BRANCH  12  22
ATOM      5  O   UNL     1      -1.583  -0.308  26.845  0.00  0.00    -0.274 OA
ATOM     11  N   UNL     1      -1.717  -0.855  24.586  0.00  0.00    -0.301 N 
ATOM     22  C   UNL     1      -1.269  -0.122  25.672  0.00  0.00    +0.236 C 
ATOM     34  H   UNL     1      -1.370  -0.630  23.657  0.00  0.00    +0.150 HD
BRANCH  11  24
ATOM     24  C   UNL     1      -2.639  -1.961  24.704  0.00  0.00    +0.179 C 
ATOM     27  C   UNL     1      -2.007  -3.235  24.165  0.00  0.00    +0.040 C 
BRANCH  24  28
ATOM      7  O   UNL     1      -4.607  -2.562  23.440  0.00  0.00    -0.249 OA
ATOM     28  C   UNL     1      -3.954  -1.682  23.992  0.00  0.00    +0.327 C 
BRANCH  28   6
ATOM      6  O   UNL     1      -4.306  -0.367  24.054  0.00  0.00    -0.467 OA
ATOM     32  C   UNL     1      -4.844   0.076  25.304  0.00  0.00    +0.280 C 
ENDBRANCH  28   6
ENDBRANCH  24  28
ENDBRANCH  11  24
ENDBRANCH  12  22
BRANCH   9   1
ATOM      1  S   UNL     1       1.278  -0.753  21.956  0.00  0.00    +0.061 S 
ATOM      3  O   UNL     1       1.259  -0.154  20.638  0.00  0.00    -0.153 OA
ATOM      4  O   UNL     1       1.016  -2.165  22.137  0.00  0.00    -0.153 OA
BRANCH   1  23
ATOM     23  C   UNL     1       2.844  -0.392  22.689  0.00  0.00    +0.105 A 
ATOM     25  C   UNL     1       3.513  -1.373  23.422  0.00  0.00    +0.028 A 
ATOM     26  C   UNL     1       3.410   0.873  22.537  0.00  0.00    +0.028 A 
ATOM     29  C   UNL     1       4.749  -1.088  24.001  0.00  0.00    +0.002 A 
ATOM     30  C   UNL     1       4.647   1.157  23.116  0.00  0.00    +0.002 A 
ATOM     31  C   UNL     1       5.316   0.177  23.849  0.00  0.00    +0.000 A 
ENDBRANCH   1  23
ENDBRANCH   9   1
TORSDOF 7
ENDMDL
MODEL 5
REMARK VINA RESULT:       4.6      2.217      6.041
REMARK  Name = 7664036
REMARK  9 active torsions:
REMARK  status: ('A' for Active; 'I' for Inactive)
REMARK    1  A    between atoms: S_1  and  N_9
REMARK    2  A    between atoms: S_1  and  C_23
REMARK    3  A    between atoms: O_6  and  C_28
REMARK    4  A    between atoms: O_6  and  C_32
REMARK    5  A    between atoms: N_11  and  C_24
REMARK    6  A    between atoms: C_12  and  C_22
REMARK    7  A    between atoms: C_13  and  C_17
REMARK    8  A    between atoms: C_24  and  C_27
REMARK    9  A    between atoms: C_24  and  C_28
REMARK                            x       y       z     vdW  Elec       q    Type
REMARK                         _______ _______ _______ _____ _____    ______ ____
ROOT
ATOM      2  O   UNL     1      -0.212  -1.734  25.388  0.00  0.00    -0.275 OA
ATOM      8  N   UNL     1      -1.168   0.159  24.429  0.00  0.00    -0.287 N 
ATOM      9  N   UNL     1      -1.797   2.945  24.570  0.00  0.00    -0.173 NA
ATOM     12  C   UNL     1      -0.272   1.073  25.147  0.00  0.00    +0.177 C 
ATOM     14  C   UNL     1      -0.971   2.332  25.652  0.00  0.00    +0.141 C 
ATOM     15  C   UNL     1      -2.090   0.775  23.462  0.00  0.00    +0.125 C 
ATOM     16  C   UNL     1      -2.807   1.981  24.051  0.00  0.00    +0.128 C 
ATOM     17  C   UNL     1      -0.986  -1.221  24.575  0.00  0.00    +0.219 C 
ENDROOT
BRANCH  17  13
ATOM     10  N   UNL     1      -4.380  -2.737  24.923  0.00  0.00    -0.316 NA
ATOM     13  C   UNL     1      -1.800  -2.107  23.677  0.00  0.00    +0.078 C 
ATOM     18  C   UNL     1      -2.082  -3.453  24.348  0.00  0.00    +0.028 C 
ATOM     19  C   UNL     1      -3.103  -1.417  23.265  0.00  0.00    +0.028 C 
ATOM     20  C   UNL     1      -3.152  -3.345  25.436  0.00  0.00    +0.081 C 
ATOM     21  C   UNL     1      -4.130  -1.395  24.399  0.00  0.00    +0.081 C 
ATOM     33  H   UNL     1      -5.068  -2.684  25.673  0.00  0.00    +0.122 HD
ENDBRANCH  17  13
BRANCH  12  22
ATOM      5  O   UNL     1       1.236   2.551  24.027  0.00  0.00    -0.274 OA
ATOM     11  N   UNL     1       1.361   0.269  23.587  0.00  0.00    -0.301 N 
ATOM     22  C   UNL     1       0.855   1.398  24.208  0.00  0.00    +0.236 C 
ATOM     34  H   UNL     1       0.951  -0.638  23.792  0.00  0.00    +0.150 HD
BRANCH  11  24
ATOM     24  C   UNL     1       2.435   0.312  22.622  0.00  0.00    +0.179 C 
ATOM     27  C   UNL     1       2.023  -0.399  21.342  0.00  0.00    +0.040 C 
BRANCH  24  28
ATOM      7  O   UNL     1       3.781  -1.447  23.585  0.00  0.00    -0.249 OA
ATOM     28  C   UNL     1       3.717  -0.292  23.173  0.00  0.00    +0.327 C 
BRANCH  28   6
ATOM      6  O   UNL     1       4.757   0.587  23.143  0.00  0.00    -0.467 OA
ATOM     32  C   UNL     1       5.766   0.394  24.140  0.00  0.00    +0.280 C 
ENDBRANCH  28   6
ENDBRANCH  24  28
ENDBRANCH  11  24
ENDBRANCH  12  22
BRANCH   9   1
ATOM      1  S   UNL     1      -2.381   4.521  24.894  0.00  0.00    +0.061 S 
ATOM      3  O   UNL     1      -2.384   5.286  23.665  0.00  0.00    -0.153 OA
ATOM      4  O   UNL     1      -1.733   5.027  26.086  0.00  0.00    -0.153 OA
BRANCH   1  23
ATOM     23  C   UNL     1      -4.058   4.151  25.303  0.00  0.00    +0.105 A 
ATOM     25  C   UNL     1      -4.389   2.898  25.819  0.00  0.00    +0.028 A 
ATOM     26  C   UNL     1      -5.051   5.110  25.109  0.00  0.00    +0.028 A 
ATOM     29  C   UNL     1      -5.714   2.606  26.142  0.00  0.00    +0.002 A 
ATOM     30  C   UNL     1      -6.377   4.817  25.432  0.00  0.00    +0.002 A 
ATOM     31  C   UNL     1      -6.708   3.565  25.948  0.00  0.00    +0.000 A 
ENDBRANCH   1  23
ENDBRANCH   9   1
TORSDOF 7
ENDMDL
MODEL 6
REMARK VINA RESULT:       5.0      1.654      2.459
REMARK  Name = 7664036
REMARK  9 active torsions:
REMARK  status: ('A' for Active; 'I' for Inactive)
REMARK    1  A    between atoms: S_1  and  N_9
REMARK    2  A    between atoms: S_1  and  C_23
REMARK    3  A    between atoms: O_6  and  C_28
REMARK    4  A    between atoms: O_6  and  C_32
REMARK    5  A    between atoms: N_11  and  C_24
REMARK    6  A    between atoms: C_12  and  C_22
REMARK    7  A    between atoms: C_13  and  C_17
REMARK    8  A    between atoms: C_24  and  C_27
REMARK    9  A    between atoms: C_24  and  C_28
REMARK                            x       y       z     vdW  Elec       q    Type
REMARK                         _______ _______ _______ _____ _____    ______ ____
ROOT
ATOM      2  O   UNL     1       2.896   1.797  24.340  0.00  0.00    -0.275 OA
ATOM      8  N   UNL     1       0.809   0.803  24.072  0.00  0.00    -0.287 N 
ATOM      9  N   UNL     1      -1.738   0.085  25.154  0.00  0.00    -0.173 NA
ATOM     12  C   UNL     1       0.183   1.654  25.089  0.00  0.00    +0.177 C 
ATOM     14  C   UNL     1      -0.805   0.907  25.980  0.00  0.00    +0.141 C 
ATOM     15  C   UNL     1      -0.085  -0.118  23.352  0.00  0.00    +0.125 C 
ATOM     16  C   UNL     1      -0.994  -0.884  24.302  0.00  0.00    +0.128 C 
ATOM     17  C   UNL     1       2.149   1.024  23.734  0.00  0.00    +0.219 C 
ENDROOT
BRANCH  17  13
ATOM     10  N   UNL     1       5.302  -0.903  23.200  0.00  0.00    -0.316 NA
ATOM     13  C   UNL     1       2.684   0.256  22.560  0.00  0.00    +0.078 C 
ATOM     18  C   UNL     1       3.997   0.865  22.063  0.00  0.00    +0.028 C 
ATOM     19  C   UNL     1       2.866  -1.223  22.912  0.00  0.00    +0.028 C 
ATOM     20  C   UNL     1       5.173   0.539  22.984  0.00  0.00    +0.081 C 
ATOM     21  C   UNL     1       4.090  -1.461  23.798  0.00  0.00    +0.081 C 
ATOM     33  H   UNL     1       6.095  -1.082  23.815  0.00  0.00    +0.122 HD
ENDBRANCH  17  13
BRANCH  12  22
ATOM      5  O   UNL     1       0.073   3.351  23.409  0.00  0.00    -0.274 OA
ATOM     11  N   UNL     1      -1.707   3.116  24.891  0.00  0.00    -0.301 N 
ATOM     22  C   UNL     1      -0.473   2.790  24.356  0.00  0.00    +0.236 C 
ATOM     34  H   UNL     1      -2.053   2.600  25.695  0.00  0.00    +0.150 HD
BRANCH  11  24
ATOM     24  C   UNL     1      -2.532   4.188  24.381  0.00  0.00    +0.179 C 
ATOM     27  C   UNL     1      -2.425   5.410  25.281  0.00  0.00    +0.040 C 
BRANCH  24  28
ATOM      7  O   UNL     1      -4.404   3.164  23.249  0.00  0.00    -0.249 OA
ATOM     28  C   UNL     1      -3.986   3.765  24.235  0.00  0.00    +0.327 C 
BRANCH  28   6
ATOM      6  O   UNL     1      -4.738   4.121  25.313  0.00  0.00    -0.467 OA
ATOM     32  C   UNL     1      -5.763   3.195  25.691  0.00  0.00    +0.280 C 
ENDBRANCH  28   6
ENDBRANCH  24  28
ENDBRANCH  11  24
ENDBRANCH  12  22
BRANCH   9   1
ATOM      1  S   UNL     1      -3.091  -0.554  25.988  0.00  0.00    +0.061 S 
ATOM      3  O   UNL     1      -4.144   0.439  26.011  0.00  0.00    -0.153 OA
ATOM      4  O   UNL     1      -2.635  -1.186  27.208  0.00  0.00    -0.153 OA
BRANCH   1  23
ATOM     23  C   UNL     1      -3.574  -1.826  24.863  0.00  0.00    +0.105 A 
ATOM     25  C   UNL     1      -3.105  -3.128  25.041  0.00  0.00    +0.028 A 
ATOM     26  C   UNL     1      -4.422  -1.530  23.797  0.00  0.00    +0.028 A 
ATOM     29  C   UNL     1      -3.487  -4.133  24.153  0.00  0.00    +0.002 A 
ATOM     30  C   UNL     1      -4.804  -2.535  22.908  0.00  0.00    +0.002 A 
ATOM     31  C   UNL     1      -4.336  -3.837  23.087  0.00  0.00    +0.000 A 
ENDBRANCH   1  23
ENDBRANCH   9   1
TORSDOF 7
ENDMDL
MODEL 7
REMARK VINA RESULT:       6.7      1.947      4.322
REMARK  Name = 7664036
REMARK  9 active torsions:
REMARK  status: ('A' for Active; 'I' for Inactive)
REMARK    1  A    between atoms: S_1  and  N_9
REMARK    2  A    between atoms: S_1  and  C_23
REMARK    3  A    between atoms: O_6  and  C_28
REMARK    4  A    between atoms: O_6  and  C_32
REMARK    5  A    between atoms: N_11  and  C_24
REMARK    6  A    between atoms: C_12  and  C_22
REMARK    7  A    between atoms: C_13  and  C_17
REMARK    8  A    between atoms: C_24  and  C_27
REMARK    9  A    between atoms: C_24  and  C_28
REMARK                            x       y       z     vdW  Elec       q    Type
REMARK                         _______ _______ _______ _____ _____    ______ ____
ROOT
ATOM      2  O   UNL     1       2.767  -0.989  22.417  0.00  0.00    -0.275 OA
ATOM      8  N   UNL     1       1.147   0.454  23.261  0.00  0.00    -0.287 N 
ATOM      9  N   UNL     1      -1.524   1.472  23.196  0.00  0.00    -0.173 NA
ATOM     12  C   UNL     1       0.042  -0.425  22.863  0.00  0.00    +0.177 C 
ATOM     14  C   UNL     1      -1.161   0.330  22.305  0.00  0.00    +0.141 C 
ATOM     15  C   UNL     1       0.781   1.662  24.018  0.00  0.00    +0.125 C 
ATOM     16  C   UNL     1      -0.377   2.407  23.370  0.00  0.00    +0.128 C 
ATOM     17  C   UNL     1       2.463   0.025  23.052  0.00  0.00    +0.219 C 
ENDROOT
BRANCH  17  13
ATOM     10  N   UNL     1       6.178  -0.329  23.138  0.00  0.00    -0.316 NA
ATOM     13  C   UNL     1       3.551   0.872  23.647  0.00  0.00    +0.078 C 
ATOM     18  C   UNL     1       4.322   0.097  24.717  0.00  0.00    +0.028 C 
ATOM     19  C   UNL     1       4.495   1.390  22.560  0.00  0.00    +0.028 C 
ATOM     20  C   UNL     1       5.272  -0.937  24.112  0.00  0.00    +0.081 C 
ATOM     21  C   UNL     1       5.439   0.301  22.045  0.00  0.00    +0.081 C 
ATOM     33  H   UNL     1       6.797  -1.045  22.759  0.00  0.00    +0.122 HD
ENDBRANCH  17  13
BRANCH  12  22
ATOM      5  O   UNL     1       0.532  -1.648  24.857  0.00  0.00    -0.274 OA
ATOM     11  N   UNL     1      -1.682  -1.468  24.162  0.00  0.00    -0.301 N 
ATOM     22  C   UNL     1      -0.320  -1.237  24.074  0.00  0.00    +0.236 C 
ATOM     34  H   UNL     1      -2.297  -1.102  23.440  0.00  0.00    +0.150 HD
BRANCH  11  24
ATOM     24  C   UNL     1      -2.286  -2.243  25.222  0.00  0.00    +0.179 C 
ATOM     27  C   UNL     1      -3.275  -3.245  24.646  0.00  0.00    +0.040 C 
BRANCH  24  28
ATOM      7  O   UNL     1      -3.111  -1.694  27.424  0.00  0.00    -0.249 OA
ATOM     28  C   UNL     1      -2.970  -1.357  26.252  0.00  0.00    +0.327 C 
BRANCH  28   6
ATOM      6  O   UNL     1      -3.386  -0.173  25.721  0.00  0.00    -0.467 OA
ATOM     32  C   UNL     1      -4.707  -0.168  25.170  0.00  0.00    +0.280 C 
ENDBRANCH  28   6
ENDBRANCH  24  28
ENDBRANCH  11  24
ENDBRANCH  12  22
BRANCH   9   1
ATOM      1  S   UNL     1      -3.034   2.209  22.867  0.00  0.00    +0.061 S 
ATOM      3  O   UNL     1      -4.056   1.186  22.799  0.00  0.00    -0.153 OA
ATOM      4  O   UNL     1      -2.866   3.168  21.795  0.00  0.00    -0.153 OA
BRANCH   1  23
ATOM     23  C   UNL     1      -3.271   3.108  24.368  0.00  0.00    +0.105 A 
ATOM     25  C   UNL     1      -4.537   3.172  24.950  0.00  0.00    +0.028 A 
ATOM     26  C   UNL     1      -2.193   3.755  24.972  0.00  0.00    +0.028 A 
ATOM     29  C   UNL     1      -4.724   3.882  26.136  0.00  0.00    +0.002 A 
ATOM     30  C   UNL     1      -2.380   4.465  26.158  0.00  0.00    +0.002 A 
ATOM     31  C   UNL     1      -3.646   4.529  26.740  0.00  0.00    +0.000 A 
ENDBRANCH   1  23
ENDBRANCH   9   1
TORSDOF 7
ENDMDL
MODEL 8
REMARK VINA RESULT:       6.7      2.924      7.155
REMARK  Name = 7664036
REMARK  9 active torsions:
REMARK  status: ('A' for Active; 'I' for Inactive)
REMARK    1  A    between atoms: S_1  and  N_9
REMARK    2  A    between atoms: S_1  and  C_23
REMARK    3  A    between atoms: O_6  and  C_28
REMARK    4  A    between atoms: O_6  and  C_32
REMARK    5  A    between atoms: N_11  and  C_24
REMARK    6  A    between atoms: C_12  and  C_22
REMARK    7  A    between atoms: C_13  and  C_17
REMARK    8  A    between atoms: C_24  and  C_27
REMARK    9  A    between atoms: C_24  and  C_28
REMARK                            x       y       z     vdW  Elec       q    Type
REMARK                         _______ _______ _______ _____ _____    ______ ____
ROOT
ATOM      2  O   UNL     1      -1.040   5.061  25.140  0.00  0.00    -0.275 OA
ATOM      8  N   UNL     1      -1.140   2.872  24.356  0.00  0.00    -0.287 N 
ATOM      9  N   UNL     1       0.196   0.529  23.408  0.00  0.00    -0.173 NA
ATOM     12  C   UNL     1       0.203   2.549  24.849  0.00  0.00    +0.177 C 
ATOM     14  C   UNL     1       1.011   1.685  23.885  0.00  0.00    +0.141 C 
ATOM     15  C   UNL     1      -1.896   1.765  23.750  0.00  0.00    +0.125 C 
ATOM     16  C   UNL     1      -1.057   0.988  22.746  0.00  0.00    +0.128 C 
ATOM     17  C   UNL     1      -1.677   4.135  24.631  0.00  0.00    +0.219 C 
ENDROOT
BRANCH  17  13
ATOM     10  N   UNL     1      -4.855   2.739  26.007  0.00  0.00    -0.316 NA
ATOM     13  C   UNL     1      -3.120   4.346  24.271  0.00  0.00    +0.078 C 
ATOM     18  C   UNL     1      -3.763   3.038  23.807  0.00  0.00    +0.028 C 
ATOM     19  C   UNL     1      -3.893   4.948  25.447  0.00  0.00    +0.028 C 
ATOM     20  C   UNL     1      -4.052   2.089  24.970  0.00  0.00    +0.081 C 
ATOM     21  C   UNL     1      -4.177   3.918  26.542  0.00  0.00    +0.081 C 
ATOM     33  H   UNL     1      -5.030   2.077  26.762  0.00  0.00    +0.122 HD
ENDBRANCH  17  13
BRANCH  12  22
ATOM      5  O   UNL     1      -0.661   0.869  26.314  0.00  0.00    -0.274 OA
ATOM     11  N   UNL     1       0.686   2.550  27.197  0.00  0.00    -0.301 N 
ATOM     22  C   UNL     1       0.024   1.881  26.183  0.00  0.00    +0.236 C 
ATOM     34  H   UNL     1       1.204   3.396  26.979  0.00  0.00    +0.150 HD
BRANCH  11  24
ATOM     24  C   UNL     1       0.653   2.124  28.578  0.00  0.00    +0.179 C 
ATOM     27  C   UNL     1      -0.318   2.983  29.372  0.00  0.00    +0.040 C 
BRANCH  24  28
ATOM      7  O   UNL     1       2.291   1.586  30.269  0.00  0.00    -0.249 OA
ATOM     28  C   UNL     1       2.034   2.160  29.215  0.00  0.00    +0.327 C 
BRANCH  28   6
ATOM      6  O   UNL     1       2.924   2.884  28.480  0.00  0.00    -0.467 OA
ATOM     32  C   UNL     1       3.150   4.227  28.921  0.00  0.00    +0.280 C 
ENDBRANCH  28   6
ENDBRANCH  24  28
ENDBRANCH  11  24
ENDBRANCH  12  22
BRANCH   9   1
ATOM      1  S   UNL     1       1.065  -0.690  22.576  0.00  0.00    +0.061 S 
ATOM      3  O   UNL     1       0.910  -0.494  21.151  0.00  0.00    -0.153 OA
ATOM      4  O   UNL     1       0.781  -1.971  23.188  0.00  0.00    -0.153 OA
BRANCH   1  23
ATOM     23  C   UNL     1       2.717  -0.237  23.005  0.00  0.00    +0.105 A 
ATOM     25  C   UNL     1       3.212   1.017  22.646  0.00  0.00    +0.028 A 
ATOM     26  C   UNL     1       3.527  -1.133  23.703  0.00  0.00    +0.028 A 
ATOM     29  C   UNL     1       4.517   1.374  22.985  0.00  0.00    +0.002 A 
ATOM     30  C   UNL     1       4.833  -0.775  24.041  0.00  0.00    +0.002 A 
ATOM     31  C   UNL     1       5.327   0.479  23.682  0.00  0.00    +0.000 A 
ENDBRANCH   1  23
ENDBRANCH   9   1
TORSDOF 7
ENDMDL
