MODEL 1
REMARK VINA RESULT:       7.8      0.000      0.000
REMARK  Name = 51138023
REMARK  9 active torsions:
REMARK  status: ('A' for Active; 'I' for Inactive)
REMARK    1  A    between atoms: N_3  and  C_19
REMARK    2  A    between atoms: N_4  and  C_24
REMARK    3  A    between atoms: C_6  and  C_10
REMARK    4  A    between atoms: C_9  and  C_17
REMARK    5  A    between atoms: C_10  and  C_14
REMARK    6  A    between atoms: C_14  and  C_21
REMARK    7  A    between atoms: C_14  and  C_22
REMARK    8  A    between atoms: C_19  and  C_23
REMARK    9  A    between atoms: C_24  and  C_27
REMARK                            x       y       z     vdW  Elec       q    Type
REMARK                         _______ _______ _______ _____ _____    ______ ____
ROOT
ATOM      2  N   UNL     1       0.391  -1.002  23.803  0.00  0.00    -0.299 NA
ATOM      3  N   UNL     1      -1.813   3.451  24.704  0.00  0.00    -0.342 N 
ATOM      6  C   UNL     1      -1.035  -1.196  23.505  0.00  0.00    +0.085 C 
ATOM      7  C   UNL     1      -1.960  -0.033  23.876  0.00  0.00    -0.021 A 
ATOM      8  C   UNL     1      -1.534   1.298  24.153  0.00  0.00    +0.008 A 
ATOM      9  C   UNL     1       1.026   0.076  23.061  0.00  0.00    +0.145 C 
ATOM     11  C   UNL     1      -0.255   1.955  24.173  0.00  0.00    -0.020 A 
ATOM     12  C   UNL     1       1.083   1.364  23.880  0.00  0.00    +0.065 C 
ATOM     13  C   UNL     1      -2.485   2.276  24.467  0.00  0.00    +0.050 A 
ATOM     15  C   UNL     1      -0.474   3.272  24.524  0.00  0.00    +0.091 A 
ATOM     16  C   UNL     1      -3.362  -0.253  23.875  0.00  0.00    +0.006 A 
ATOM     18  C   UNL     1      -3.859   2.027  24.507  0.00  0.00    +0.026 A 
ATOM     20  C   UNL     1      -4.283   0.743  24.191  0.00  0.00    +0.002 A 
ATOM     35  H   UNL     1       0.542  -0.898  24.806  0.00  0.00    +0.123 HD
ENDROOT
BRANCH   9  17
ATOM      1  O   UNL     1       3.061  -0.015  21.819  0.00  0.00    -0.274 OA
ATOM      4  N   UNL     1       2.857  -1.305  23.746  0.00  0.00    -0.310 N 
ATOM     17  C   UNL     1       2.421  -0.399  22.795  0.00  0.00    +0.231 C 
ATOM     36  H   UNL     1       2.252  -1.535  24.529  0.00  0.00    +0.149 HD
BRANCH   4  24
ATOM     24  C   UNL     1       4.160  -1.930  23.704  0.00  0.00    +0.139 C 
BRANCH  24  27
ATOM     27  C   UNL     1       5.268  -0.918  23.716  0.00  0.00    -0.030 A 
ATOM     29  C   UNL     1       5.091   0.302  24.369  0.00  0.00    +0.005 A 
ATOM     30  C   UNL     1       6.475  -1.196  23.074  0.00  0.00    +0.005 A 
ATOM     32  C   UNL     1       6.120   1.243  24.380  0.00  0.00    +0.000 A 
ATOM     33  C   UNL     1       7.504  -0.255  23.085  0.00  0.00    +0.000 A 
ATOM     34  C   UNL     1       7.327   0.965  23.738  0.00  0.00    +0.000 A 
ENDBRANCH  24  27
ENDBRANCH   4  24
ENDBRANCH   9  17
BRANCH   6  10
ATOM     10  C   UNL     1      -1.410  -2.502  24.228  0.00  0.00    +0.026 C 
BRANCH  10  14
ATOM     14  C   UNL     1      -2.883  -2.554  24.645  0.00  0.00    -0.015 C 
ATOM     21  C   UNL     1      -2.973  -2.707  26.165  0.00  0.00    +0.007 C 
ATOM     22  C   UNL     1      -3.648  -3.691  23.965  0.00  0.00    +0.007 C 
ENDBRANCH  10  14
ENDBRANCH   6  10
BRANCH   3  19
ATOM     19  C   UNL     1      -2.423   4.711  25.072  0.00  0.00    +0.158 C 
BRANCH  19  23
ATOM      5  N   UNL     1      -5.631   3.563  26.729  0.00  0.00    -0.263 NA
ATOM     23  C   UNL     1      -3.890   4.591  25.404  0.00  0.00    -0.010 A 
ATOM     25  C   UNL     1      -4.840   5.353  24.734  0.00  0.00    +0.008 A 
ATOM     26  C   UNL     1      -4.332   3.718  26.384  0.00  0.00    +0.116 A 
ATOM     28  C   UNL     1      -6.185   5.222  25.061  0.00  0.00    +0.020 A 
ATOM     31  C   UNL     1      -6.525   4.320  26.056  0.00  0.00    +0.111 A 
ENDBRANCH  19  23
ENDBRANCH   3  19
TORSDOF 7
ENDMDL
MODEL 2
REMARK VINA RESULT:       8.9      1.211      1.729
REMARK  Name = 51138023
REMARK  9 active torsions:
REMARK  status: ('A' for Active; 'I' for Inactive)
REMARK    1  A    between atoms: N_3  and  C_19
REMARK    2  A    between atoms: N_4  and  C_24
REMARK    3  A    between atoms: C_6  and  C_10
REMARK    4  A    between atoms: C_9  and  C_17
REMARK    5  A    between atoms: C_10  and  C_14
REMARK    6  A    between atoms: C_14  and  C_21
REMARK    7  A    between atoms: C_14  and  C_22
REMARK    8  A    between atoms: C_19  and  C_23
REMARK    9  A    between atoms: C_24  and  C_27
REMARK                            x       y       z     vdW  Elec       q    Type
REMARK                         _______ _______ _______ _____ _____    ______ ____
ROOT
ATOM      2  N   UNL     1      -0.069  -0.850  23.398  0.00  0.00    -0.299 NA
ATOM      3  N   UNL     1      -2.497   2.877  25.791  0.00  0.00    -0.342 N 
ATOM      6  C   UNL     1      -1.501  -1.155  23.263  0.00  0.00    +0.085 C 
ATOM      7  C   UNL     1      -2.453  -0.265  24.067  0.00  0.00    -0.021 A 
ATOM      8  C   UNL     1      -2.114   0.996  24.636  0.00  0.00    +0.008 A 
ATOM      9  C   UNL     1       0.322   0.460  22.898  0.00  0.00    +0.145 C 
ATOM     11  C   UNL     1      -0.920   1.796  24.654  0.00  0.00    -0.020 A 
ATOM     12  C   UNL     1       0.398   1.490  24.024  0.00  0.00    +0.065 C 
ATOM     13  C   UNL     1      -3.085   1.719  25.338  0.00  0.00    +0.050 A 
ATOM     15  C   UNL     1      -1.198   2.936  25.381  0.00  0.00    +0.091 A 
ATOM     16  C   UNL     1      -3.807  -0.669  24.203  0.00  0.00    +0.006 A 
ATOM     18  C   UNL     1      -4.401   1.281  25.502  0.00  0.00    +0.026 A 
ATOM     20  C   UNL     1      -4.750   0.076  24.908  0.00  0.00    +0.002 A 
ATOM     35  H   UNL     1       0.243  -0.986  24.358  0.00  0.00    +0.123 HD
ENDROOT
BRANCH   9  17
ATOM      1  O   UNL     1       1.931  -0.633  21.517  0.00  0.00    -0.274 OA
ATOM      4  N   UNL     1       2.601   1.186  22.805  0.00  0.00    -0.310 N 
ATOM     17  C   UNL     1       1.689   0.267  22.317  0.00  0.00    +0.231 C 
ATOM     36  H   UNL     1       2.287   1.907  23.449  0.00  0.00    +0.149 HD
BRANCH   4  24
ATOM     24  C   UNL     1       3.994   1.199  22.418  0.00  0.00    +0.139 C 
BRANCH  24  27
ATOM     27  C   UNL     1       4.794   0.173  23.167  0.00  0.00    -0.030 A 
ATOM     29  C   UNL     1       6.119   0.438  23.512  0.00  0.00    +0.005 A 
ATOM     30  C   UNL     1       4.213  -1.046  23.516  0.00  0.00    +0.005 A 
ATOM     32  C   UNL     1       6.863  -0.515  24.207  0.00  0.00    +0.000 A 
ATOM     33  C   UNL     1       4.956  -2.000  24.210  0.00  0.00    +0.000 A 
ATOM     34  C   UNL     1       6.282  -1.735  24.556  0.00  0.00    +0.000 A 
ENDBRANCH  24  27
ENDBRANCH   4  24
ENDBRANCH   9  17
BRANCH   6  10
ATOM     10  C   UNL     1      -1.618  -2.642  23.645  0.00  0.00    +0.026 C 
BRANCH  10  14
ATOM     14  C   UNL     1      -1.492  -2.885  25.152  0.00  0.00    -0.015 C 
ATOM     21  C   UNL     1      -2.889  -2.931  25.775  0.00  0.00    +0.007 C 
ATOM     22  C   UNL     1      -0.649  -1.817  25.852  0.00  0.00    +0.007 C 
ENDBRANCH  10  14
ENDBRANCH   6  10
BRANCH   3  19
ATOM     19  C   UNL     1      -3.151   3.903  26.574  0.00  0.00    +0.158 C 
BRANCH  19  23
ATOM      5  N   UNL     1      -6.679   5.067  25.832  0.00  0.00    -0.263 NA
ATOM     23  C   UNL     1      -4.319   4.542  25.866  0.00  0.00    -0.010 A 
ATOM     25  C   UNL     1      -4.153   5.178  24.640  0.00  0.00    +0.008 A 
ATOM     26  C   UNL     1      -5.590   4.514  26.414  0.00  0.00    +0.116 A 
ATOM     28  C   UNL     1      -5.248   5.758  24.011  0.00  0.00    +0.020 A 
ATOM     31  C   UNL     1      -6.478   5.676  24.642  0.00  0.00    +0.111 A 
ENDBRANCH  19  23
ENDBRANCH   3  19
TORSDOF 7
ENDMDL
MODEL 3
REMARK VINA RESULT:      10.1      1.754      2.457
REMARK  Name = 51138023
REMARK  9 active torsions:
REMARK  status: ('A' for Active; 'I' for Inactive)
REMARK    1  A    between atoms: N_3  and  C_19
REMARK    2  A    between atoms: N_4  and  C_24
REMARK    3  A    between atoms: C_6  and  C_10
REMARK    4  A    between atoms: C_9  and  C_17
REMARK    5  A    between atoms: C_10  and  C_14
REMARK    6  A    between atoms: C_14  and  C_21
REMARK    7  A    between atoms: C_14  and  C_22
REMARK    8  A    between atoms: C_19  and  C_23
REMARK    9  A    between atoms: C_24  and  C_27
REMARK                            x       y       z     vdW  Elec       q    Type
REMARK                         _______ _______ _______ _____ _____    ______ ____
ROOT
ATOM      2  N   UNL     1      -1.215  -1.228  24.751  0.00  0.00    -0.299 NA
ATOM      3  N   UNL     1      -2.659   3.533  25.622  0.00  0.00    -0.342 N 
ATOM      6  C   UNL     1      -2.666  -1.203  24.520  0.00  0.00    +0.085 C 
ATOM      7  C   UNL     1      -3.382   0.098  24.898  0.00  0.00    -0.021 A 
ATOM      8  C   UNL     1      -2.743   1.351  25.120  0.00  0.00    +0.008 A 
ATOM      9  C   UNL     1      -0.456  -0.276  23.952  0.00  0.00    +0.145 C 
ATOM     11  C   UNL     1      -1.378   1.802  25.066  0.00  0.00    -0.020 A 
ATOM     12  C   UNL     1      -0.162   1.003  24.733  0.00  0.00    +0.065 C 
ATOM     13  C   UNL     1      -3.516   2.471  25.447  0.00  0.00    +0.050 A 
ATOM     15  C   UNL     1      -1.374   3.144  25.390  0.00  0.00    +0.091 A 
ATOM     16  C   UNL     1      -4.799   0.098  24.963  0.00  0.00    +0.006 A 
ATOM     18  C   UNL     1      -4.908   2.440  25.552  0.00  0.00    +0.026 A 
ATOM     20  C   UNL     1      -5.540   1.232  25.291  0.00  0.00    +0.002 A 
ATOM     35  H   UNL     1      -1.003  -1.128  25.743  0.00  0.00    +0.123 HD
ENDROOT
BRANCH   9  17
ATOM      1  O   UNL     1       1.276  -1.868  24.351  0.00  0.00    -0.274 OA
ATOM      4  N   UNL     1       1.442  -0.458  22.506  0.00  0.00    -0.310 N 
ATOM     17  C   UNL     1       0.835  -0.968  23.640  0.00  0.00    +0.231 C 
ATOM     36  H   UNL     1       0.976   0.274  21.977  0.00  0.00    +0.149 HD
BRANCH   4  24
ATOM     24  C   UNL     1       2.710  -0.939  22.004  0.00  0.00    +0.139 C 
BRANCH  24  27
ATOM     27  C   UNL     1       3.859  -0.486  22.856  0.00  0.00    -0.030 A 
ATOM     29  C   UNL     1       4.254   0.852  22.840  0.00  0.00    +0.005 A 
ATOM     30  C   UNL     1       4.533  -1.402  23.664  0.00  0.00    +0.005 A 
ATOM     32  C   UNL     1       5.323   1.273  23.632  0.00  0.00    +0.000 A 
ATOM     33  C   UNL     1       5.601  -0.982  24.455  0.00  0.00    +0.000 A 
ATOM     34  C   UNL     1       5.997   0.356  24.439  0.00  0.00    +0.000 A 
ENDBRANCH  24  27
ENDBRANCH   4  24
ENDBRANCH   9  17
BRANCH   6  10
ATOM     10  C   UNL     1      -3.204  -2.419  25.294  0.00  0.00    +0.026 C 
BRANCH  10  14
ATOM     14  C   UNL     1      -3.743  -3.522  24.378  0.00  0.00    -0.015 C 
ATOM     21  C   UNL     1      -2.608  -4.045  23.495  0.00  0.00    +0.007 C 
ATOM     22  C   UNL     1      -4.902  -3.044  23.500  0.00  0.00    +0.007 C 
ENDBRANCH  10  14
ENDBRANCH   6  10
BRANCH   3  19
ATOM     19  C   UNL     1      -3.050   4.879  25.981  0.00  0.00    +0.158 C 
BRANCH  19  23
ATOM      5  N   UNL     1      -4.184   6.517  22.759  0.00  0.00    -0.263 NA
ATOM     23  C   UNL     1      -3.100   5.821  24.804  0.00  0.00    -0.010 A 
ATOM     25  C   UNL     1      -2.157   6.833  24.656  0.00  0.00    +0.008 A 
ATOM     26  C   UNL     1      -4.084   5.706  23.837  0.00  0.00    +0.116 A 
ATOM     28  C   UNL     1      -2.228   7.687  23.562  0.00  0.00    +0.020 A 
ATOM     31  C   UNL     1      -3.251   7.488  22.649  0.00  0.00    +0.111 A 
ENDBRANCH  19  23
ENDBRANCH   3  19
TORSDOF 7
ENDMDL
