MODEL 1
REMARK VINA RESULT:      -2.8      0.000      0.000
REMARK  Name = 45360953
REMARK  8 active torsions:
REMARK  status: ('A' for Active; 'I' for Inactive)
REMARK    1  A    between atoms: N_4  and  C_17
REMARK    2  A    between atoms: N_5  and  C_15
REMARK    3  A    between atoms: N_7  and  C_24
REMARK    4  A    between atoms: C_12  and  C_16
REMARK    5  A    between atoms: C_15  and  C_19
REMARK    6  A    between atoms: C_16  and  C_18
REMARK    7  A    between atoms: C_18  and  C_20
REMARK    8  A    between atoms: C_24  and  C_25
REMARK                            x       y       z     vdW  Elec       q    Type
REMARK                         _______ _______ _______ _____ _____    ______ ____
ROOT
ATOM      2  O   UNL     1      -0.687   1.958  23.729  0.00  0.00    -0.274 OA
ATOM      4  N   UNL     1      -2.865  -0.757  25.423  0.00  0.00    -0.296 NA
ATOM      5  N   UNL     1       0.426  -0.500  23.845  0.00  0.00    -0.285 NA
ATOM      6  N   UNL     1      -2.804   1.200  23.306  0.00  0.00    -0.312 N 
ATOM      8  C   UNL     1      -1.692  -1.310  24.712  0.00  0.00    +0.084 C 
ATOM      9  C   UNL     1      -1.027  -0.449  23.598  0.00  0.00    +0.161 C 
ATOM     10  C   UNL     1      -0.496  -1.625  25.629  0.00  0.00    +0.036 C 
ATOM     11  C   UNL     1       0.678  -1.673  24.674  0.00  0.00    +0.087 C 
ATOM     12  C   UNL     1      -4.058  -0.528  24.560  0.00  0.00    +0.074 C 
ATOM     13  C   UNL     1      -1.461   1.015  23.568  0.00  0.00    +0.232 C 
ATOM     14  C   UNL     1      -3.755   0.112  23.192  0.00  0.00    +0.123 C 
ATOM     17  C   UNL     1      -3.224  -1.602  26.576  0.00  0.00    +0.105 C 
ATOM     31  H   UNL     1      -3.153   2.152  23.249  0.00  0.00    +0.149 HD
ENDROOT
BRANCH   5  15
ATOM     15  C   UNL     1       1.219  -0.512  22.623  0.00  0.00    +0.127 C 
BRANCH  15  19
ATOM      1  S   UNL     1       3.707  -1.327  23.553  0.00  0.00    -0.100 S 
ATOM     19  C   UNL     1       2.655  -0.156  22.881  0.00  0.00    +0.004 A 
ATOM     21  C   UNL     1       3.296   1.041  22.646  0.00  0.00    +0.012 A 
ATOM     22  C   UNL     1       4.669   0.995  23.024  0.00  0.00    +0.008 A 
ATOM     23  C   UNL     1       5.025  -0.235  23.532  0.00  0.00    +0.045 A 
ENDBRANCH  15  19
ENDBRANCH   5  15
BRANCH  12  16
ATOM     16  C   UNL     1      -5.080   0.377  25.281  0.00  0.00    +0.029 C 
BRANCH  16  18
ATOM     18  C   UNL     1      -5.595   1.454  24.345  0.00  0.00    +0.097 C 
BRANCH  18  20
ATOM      3  O   UNL     1      -4.467   3.462  23.596  0.00  0.00    -0.276 OA
ATOM      7  N   UNL     1      -4.656   3.054  25.875  0.00  0.00    -0.311 N 
ATOM     20  C   UNL     1      -4.848   2.763  24.532  0.00  0.00    +0.213 C 
ATOM     32  H   UNL     1      -5.011   2.408  26.575  0.00  0.00    +0.149 HD
BRANCH   7  24
ATOM     24  C   UNL     1      -3.970   4.246  26.314  0.00  0.00    +0.139 C 
BRANCH  24  25
ATOM     25  C   UNL     1      -2.509   4.214  25.968  0.00  0.00    -0.030 A 
ATOM     26  C   UNL     1      -1.698   3.194  26.464  0.00  0.00    +0.005 A 
ATOM     27  C   UNL     1      -1.964   5.203  25.148  0.00  0.00    +0.005 A 
ATOM     28  C   UNL     1      -0.341   3.163  26.142  0.00  0.00    +0.000 A 
ATOM     29  C   UNL     1      -0.608   5.172  24.827  0.00  0.00    +0.000 A 
ATOM     30  C   UNL     1       0.205   4.152  25.324  0.00  0.00    +0.000 A 
ENDBRANCH  24  25
ENDBRANCH   7  24
ENDBRANCH  18  20
ENDBRANCH  16  18
ENDBRANCH  12  16
TORSDOF 7
ENDMDL
MODEL 2
REMARK VINA RESULT:      -2.4      1.599      4.263
REMARK  Name = 45360953
REMARK  8 active torsions:
REMARK  status: ('A' for Active; 'I' for Inactive)
REMARK    1  A    between atoms: N_4  and  C_17
REMARK    2  A    between atoms: N_5  and  C_15
REMARK    3  A    between atoms: N_7  and  C_24
REMARK    4  A    between atoms: C_12  and  C_16
REMARK    5  A    between atoms: C_15  and  C_19
REMARK    6  A    between atoms: C_16  and  C_18
REMARK    7  A    between atoms: C_18  and  C_20
REMARK    8  A    between atoms: C_24  and  C_25
REMARK                            x       y       z     vdW  Elec       q    Type
REMARK                         _______ _______ _______ _____ _____    ______ ____
ROOT
ATOM      2  O   UNL     1      -0.861   0.283  26.502  0.00  0.00    -0.274 OA
ATOM      4  N   UNL     1      -1.886   2.898  23.837  0.00  0.00    -0.296 NA
ATOM      5  N   UNL     1      -0.157  -0.325  23.967  0.00  0.00    -0.285 NA
ATOM      6  N   UNL     1      -0.430   2.522  26.299  0.00  0.00    -0.312 N 
ATOM      8  C   UNL     1      -0.940   1.881  23.325  0.00  0.00    +0.084 C 
ATOM      9  C   UNL     1      -0.069   1.097  24.349  0.00  0.00    +0.161 C 
ATOM     10  C   UNL     1      -1.614   0.741  22.539  0.00  0.00    +0.036 C 
ATOM     11  C   UNL     1      -0.583  -0.367  22.573  0.00  0.00    +0.087 C 
ATOM     12  C   UNL     1      -1.238   4.050  24.525  0.00  0.00    +0.074 C 
ATOM     13  C   UNL     1      -0.504   1.233  25.806  0.00  0.00    +0.232 C 
ATOM     14  C   UNL     1      -0.092   3.672  25.484  0.00  0.00    +0.123 C 
ATOM     17  C   UNL     1      -2.771   3.378  22.762  0.00  0.00    +0.105 C 
ATOM     31  H   UNL     1      -0.684   2.677  27.270  0.00  0.00    +0.149 HD
ENDROOT
BRANCH   5  15
ATOM     15  C   UNL     1       1.083  -1.059  24.183  0.00  0.00    +0.127 C 
BRANCH  15  19
ATOM      1  S   UNL     1       3.816  -1.072  23.684  0.00  0.00    -0.100 S 
ATOM     19  C   UNL     1       2.268  -0.347  23.595  0.00  0.00    +0.004 A 
ATOM     21  C   UNL     1       2.304   0.873  22.957  0.00  0.00    +0.012 A 
ATOM     22  C   UNL     1       3.620   1.217  22.536  0.00  0.00    +0.008 A 
ATOM     23  C   UNL     1       4.540   0.247  22.868  0.00  0.00    +0.045 A 
ENDBRANCH  15  19
ENDBRANCH   5  15
BRANCH  12  16
ATOM     16  C   UNL     1      -2.280   4.848  25.338  0.00  0.00    +0.029 C 
BRANCH  16  18
ATOM     18  C   UNL     1      -2.961   3.956  26.359  0.00  0.00    +0.097 C 
BRANCH  18  20
ATOM      3  O   UNL     1      -5.214   3.794  25.486  0.00  0.00    -0.276 OA
ATOM      7  N   UNL     1      -3.898   1.883  25.577  0.00  0.00    -0.311 N 
ATOM     20  C   UNL     1      -4.157   3.234  25.762  0.00  0.00    +0.213 C 
ATOM     32  H   UNL     1      -2.988   1.516  25.839  0.00  0.00    +0.149 HD
BRANCH   7  24
ATOM     24  C   UNL     1      -4.879   0.981  25.023  0.00  0.00    +0.139 C 
BRANCH  24  25
ATOM     25  C   UNL     1      -4.342  -0.415  24.881  0.00  0.00    -0.030 A 
ATOM     26  C   UNL     1      -4.589  -1.141  23.716  0.00  0.00    +0.005 A 
ATOM     27  C   UNL     1      -3.594  -0.983  25.912  0.00  0.00    +0.005 A 
ATOM     28  C   UNL     1      -4.089  -2.437  23.584  0.00  0.00    +0.000 A 
ATOM     29  C   UNL     1      -3.095  -2.278  25.780  0.00  0.00    +0.000 A 
ATOM     30  C   UNL     1      -3.343  -3.006  24.615  0.00  0.00    +0.000 A 
ENDBRANCH  24  25
ENDBRANCH   7  24
ENDBRANCH  18  20
ENDBRANCH  16  18
ENDBRANCH  12  16
TORSDOF 7
ENDMDL
MODEL 3
REMARK VINA RESULT:      -1.5      1.419      2.167
REMARK  Name = 45360953
REMARK  8 active torsions:
REMARK  status: ('A' for Active; 'I' for Inactive)
REMARK    1  A    between atoms: N_4  and  C_17
REMARK    2  A    between atoms: N_5  and  C_15
REMARK    3  A    between atoms: N_7  and  C_24
REMARK    4  A    between atoms: C_12  and  C_16
REMARK    5  A    between atoms: C_15  and  C_19
REMARK    6  A    between atoms: C_16  and  C_18
REMARK    7  A    between atoms: C_18  and  C_20
REMARK    8  A    between atoms: C_24  and  C_25
REMARK                            x       y       z     vdW  Elec       q    Type
REMARK                         _______ _______ _______ _____ _____    ______ ____
ROOT
ATOM      2  O   UNL     1      -1.445  -2.659  23.631  0.00  0.00    -0.274 OA
ATOM      4  N   UNL     1      -3.134   0.824  23.692  0.00  0.00    -0.296 NA
ATOM      5  N   UNL     1       0.246  -0.559  23.465  0.00  0.00    -0.285 NA
ATOM      6  N   UNL     1      -2.858  -1.661  25.130  0.00  0.00    -0.312 N 
ATOM      8  C   UNL     1      -1.665   0.885  23.860  0.00  0.00    +0.084 C 
ATOM      9  C   UNL     1      -0.922  -0.393  24.350  0.00  0.00    +0.161 C 
ATOM     10  C   UNL     1      -0.902   1.221  22.565  0.00  0.00    +0.036 C 
ATOM     11  C   UNL     1       0.504   0.737  22.849  0.00  0.00    +0.087 C 
ATOM     12  C   UNL     1      -3.889   0.584  24.955  0.00  0.00    +0.074 C 
ATOM     13  C   UNL     1      -1.747  -1.676  24.308  0.00  0.00    +0.232 C 
ATOM     14  C   UNL     1      -3.285  -0.493  25.876  0.00  0.00    +0.123 C 
ATOM     17  C   UNL     1      -3.635   2.037  23.022  0.00  0.00    +0.105 C 
ATOM     31  H   UNL     1      -3.437  -2.494  25.166  0.00  0.00    +0.149 HD
ENDROOT
BRANCH   5  15
ATOM     15  C   UNL     1       1.420  -1.083  24.151  0.00  0.00    +0.127 C 
BRANCH  15  19
ATOM      1  S   UNL     1       4.174  -1.299  23.851  0.00  0.00    -0.100 S 
ATOM     19  C   UNL     1       2.691  -0.470  23.639  0.00  0.00    +0.004 A 
ATOM     21  C   UNL     1       2.860   0.731  22.985  0.00  0.00    +0.012 A 
ATOM     22  C   UNL     1       4.224   0.973  22.654  0.00  0.00    +0.008 A 
ATOM     23  C   UNL     1       5.046  -0.052  23.067  0.00  0.00    +0.045 A 
ENDBRANCH  15  19
ENDBRANCH   5  15
BRANCH  12  16
ATOM     16  C   UNL     1      -5.342   0.169  24.644  0.00  0.00    +0.029 C 
BRANCH  16  18
ATOM     18  C   UNL     1      -6.301   1.303  24.950  0.00  0.00    +0.097 C 
BRANCH  18  20
ATOM      3  O   UNL     1      -5.989   2.352  27.110  0.00  0.00    -0.276 OA
ATOM      7  N   UNL     1      -4.784   3.138  25.287  0.00  0.00    -0.311 N 
ATOM     20  C   UNL     1      -5.695   2.303  25.918  0.00  0.00    +0.213 C 
ATOM     32  H   UNL     1      -4.611   3.016  24.293  0.00  0.00    +0.149 HD
BRANCH   7  24
ATOM     24  C   UNL     1      -4.072   4.176  25.995  0.00  0.00    +0.139 C 
BRANCH  24  25
ATOM     25  C   UNL     1      -2.593   4.113  25.746  0.00  0.00    -0.030 A 
ATOM     26  C   UNL     1      -1.838   3.073  26.289  0.00  0.00    +0.005 A 
ATOM     27  C   UNL     1      -1.973   5.092  24.969  0.00  0.00    +0.005 A 
ATOM     28  C   UNL     1      -0.464   3.014  26.058  0.00  0.00    +0.000 A 
ATOM     29  C   UNL     1      -0.599   5.033  24.738  0.00  0.00    +0.000 A 
ATOM     30  C   UNL     1       0.156   3.993  25.282  0.00  0.00    +0.000 A 
ENDBRANCH  24  25
ENDBRANCH   7  24
ENDBRANCH  18  20
ENDBRANCH  16  18
ENDBRANCH  12  16
TORSDOF 7
ENDMDL
MODEL 4
REMARK VINA RESULT:      -1.3      1.717      4.003
REMARK  Name = 45360953
REMARK  8 active torsions:
REMARK  status: ('A' for Active; 'I' for Inactive)
REMARK    1  A    between atoms: N_4  and  C_17
REMARK    2  A    between atoms: N_5  and  C_15
REMARK    3  A    between atoms: N_7  and  C_24
REMARK    4  A    between atoms: C_12  and  C_16
REMARK    5  A    between atoms: C_15  and  C_19
REMARK    6  A    between atoms: C_16  and  C_18
REMARK    7  A    between atoms: C_18  and  C_20
REMARK    8  A    between atoms: C_24  and  C_25
REMARK                            x       y       z     vdW  Elec       q    Type
REMARK                         _______ _______ _______ _____ _____    ______ ____
ROOT
ATOM      2  O   UNL     1       0.923   1.873  26.131  0.00  0.00    -0.274 OA
ATOM      4  N   UNL     1      -2.281   2.171  23.978  0.00  0.00    -0.296 NA
ATOM      5  N   UNL     1       1.204   1.141  23.547  0.00  0.00    -0.285 NA
ATOM      6  N   UNL     1      -0.477   3.630  25.692  0.00  0.00    -0.312 N 
ATOM      8  C   UNL     1      -1.058   1.940  23.177  0.00  0.00    +0.084 C 
ATOM      9  C   UNL     1       0.320   2.292  23.810  0.00  0.00    +0.161 C 
ATOM     10  C   UNL     1      -0.853   0.473  22.759  0.00  0.00    +0.036 C 
ATOM     11  C   UNL     1       0.623   0.403  22.431  0.00  0.00    +0.087 C 
ATOM     12  C   UNL     1      -2.536   3.600  24.316  0.00  0.00    +0.074 C 
ATOM     13  C   UNL     1       0.293   2.546  25.316  0.00  0.00    +0.232 C 
ATOM     14  C   UNL     1      -1.293   4.391  24.767  0.00  0.00    +0.123 C 
ATOM     17  C   UNL     1      -3.460   1.586  23.315  0.00  0.00    +0.105 C 
ATOM     31  H   UNL     1      -0.518   3.867  26.678  0.00  0.00    +0.149 HD
ENDROOT
BRANCH   5  15
ATOM     15  C   UNL     1       2.587   1.523  23.291  0.00  0.00    +0.127 C 
BRANCH  15  19
ATOM      1  S   UNL     1       5.211   0.678  23.638  0.00  0.00    -0.100 S 
ATOM     19  C   UNL     1       3.533   0.373  23.490  0.00  0.00    +0.004 A 
ATOM     21  C   UNL     1       3.242  -0.970  23.576  0.00  0.00    +0.012 A 
ATOM     22  C   UNL     1       4.412  -1.759  23.767  0.00  0.00    +0.008 A 
ATOM     23  C   UNL     1       5.553  -0.989  23.819  0.00  0.00    +0.045 A 
ENDBRANCH  15  19
ENDBRANCH   5  15
BRANCH  12  16
ATOM     16  C   UNL     1      -3.589   3.709  25.439  0.00  0.00    +0.029 C 
BRANCH  16  18
ATOM     18  C   UNL     1      -4.989   3.554  24.878  0.00  0.00    +0.097 C 
BRANCH  18  20
ATOM      3  O   UNL     1      -6.676   1.817  24.828  0.00  0.00    -0.276 OA
ATOM      7  N   UNL     1      -4.539   1.295  25.571  0.00  0.00    -0.311 N 
ATOM     20  C   UNL     1      -5.519   2.144  25.077  0.00  0.00    +0.213 C 
ATOM     32  H   UNL     1      -3.608   1.665  25.745  0.00  0.00    +0.149 HD
BRANCH   7  24
ATOM     24  C   UNL     1      -4.795  -0.099  25.845  0.00  0.00    +0.139 C 
BRANCH  24  25
ATOM     25  C   UNL     1      -3.645  -0.973  25.434  0.00  0.00    -0.030 A 
ATOM     26  C   UNL     1      -3.861  -2.048  24.572  0.00  0.00    +0.005 A 
ATOM     27  C   UNL     1      -2.361  -0.710  25.913  0.00  0.00    +0.005 A 
ATOM     28  C   UNL     1      -2.793  -2.860  24.189  0.00  0.00    +0.000 A 
ATOM     29  C   UNL     1      -1.294  -1.521  25.530  0.00  0.00    +0.000 A 
ATOM     30  C   UNL     1      -1.510  -2.597  24.667  0.00  0.00    +0.000 A 
ENDBRANCH  24  25
ENDBRANCH   7  24
ENDBRANCH  18  20
ENDBRANCH  16  18
ENDBRANCH  12  16
TORSDOF 7
ENDMDL
MODEL 5
REMARK VINA RESULT:      -0.9      2.147      2.930
REMARK  Name = 45360953
REMARK  8 active torsions:
REMARK  status: ('A' for Active; 'I' for Inactive)
REMARK    1  A    between atoms: N_4  and  C_17
REMARK    2  A    between atoms: N_5  and  C_15
REMARK    3  A    between atoms: N_7  and  C_24
REMARK    4  A    between atoms: C_12  and  C_16
REMARK    5  A    between atoms: C_15  and  C_19
REMARK    6  A    between atoms: C_16  and  C_18
REMARK    7  A    between atoms: C_18  and  C_20
REMARK    8  A    between atoms: C_24  and  C_25
REMARK                            x       y       z     vdW  Elec       q    Type
REMARK                         _______ _______ _______ _____ _____    ______ ____
ROOT
ATOM      2  O   UNL     1       0.620   2.398  23.868  0.00  0.00    -0.274 OA
ATOM      4  N   UNL     1      -2.759   0.774  24.835  0.00  0.00    -0.296 NA
ATOM      5  N   UNL     1       0.553  -0.297  23.706  0.00  0.00    -0.285 NA
ATOM      6  N   UNL     1      -1.510   2.700  23.088  0.00  0.00    -0.312 N 
ATOM      8  C   UNL     1      -1.824  -0.168  24.181  0.00  0.00    +0.084 C 
ATOM      9  C   UNL     1      -0.675   0.415  23.307  0.00  0.00    +0.161 C 
ATOM     10  C   UNL     1      -1.053  -1.067  25.165  0.00  0.00    +0.036 C 
ATOM     11  C   UNL     1       0.137  -1.535  24.355  0.00  0.00    +0.087 C 
ATOM     12  C   UNL     1      -3.574   1.590  23.891  0.00  0.00    +0.074 C 
ATOM     13  C   UNL     1      -0.438   1.915  23.468  0.00  0.00    +0.232 C 
ATOM     14  C   UNL     1      -2.796   2.160  22.689  0.00  0.00    +0.123 C 
ATOM     17  C   UNL     1      -3.636   0.067  25.785  0.00  0.00    +0.105 C 
ATOM     31  H   UNL     1      -1.409   3.708  23.148  0.00  0.00    +0.149 HD
ENDROOT
BRANCH   5  15
ATOM     15  C   UNL     1       1.466  -0.539  22.598  0.00  0.00    +0.127 C 
BRANCH  15  19
ATOM      1  S   UNL     1       3.742   1.053  22.662  0.00  0.00    -0.100 S 
ATOM     19  C   UNL     1       2.903  -0.398  23.012  0.00  0.00    +0.004 A 
ATOM     21  C   UNL     1       3.699  -1.310  23.669  0.00  0.00    +0.012 A 
ATOM     22  C   UNL     1       5.015  -0.811  23.889  0.00  0.00    +0.008 A 
ATOM     23  C   UNL     1       5.175   0.463  23.390  0.00  0.00    +0.045 A 
ENDBRANCH  15  19
ENDBRANCH   5  15
BRANCH  12  16
ATOM     16  C   UNL     1      -4.226   2.778  24.628  0.00  0.00    +0.029 C 
BRANCH  16  18
ATOM     18  C   UNL     1      -3.575   2.992  25.981  0.00  0.00    +0.097 C 
BRANCH  18  20
ATOM      3  O   UNL     1      -1.997   4.701  25.306  0.00  0.00    -0.276 OA
ATOM      7  N   UNL     1      -1.215   2.811  26.405  0.00  0.00    -0.311 N 
ATOM     20  C   UNL     1      -2.197   3.616  25.847  0.00  0.00    +0.213 C 
ATOM     32  H   UNL     1      -1.484   1.928  26.830  0.00  0.00    +0.149 HD
BRANCH   7  24
ATOM     24  C   UNL     1       0.180   3.184  26.403  0.00  0.00    +0.139 C 
BRANCH  24  25
ATOM     25  C   UNL     1       0.842   2.889  27.718  0.00  0.00    -0.030 A 
ATOM     26  C   UNL     1       2.231   2.939  27.826  0.00  0.00    +0.005 A 
ATOM     27  C   UNL     1       0.067   2.568  28.834  0.00  0.00    +0.005 A 
ATOM     28  C   UNL     1       2.847   2.667  29.048  0.00  0.00    +0.000 A 
ATOM     29  C   UNL     1       0.683   2.295  30.054  0.00  0.00    +0.000 A 
ATOM     30  C   UNL     1       2.073   2.345  30.162  0.00  0.00    +0.000 A 
ENDBRANCH  24  25
ENDBRANCH   7  24
ENDBRANCH  18  20
ENDBRANCH  16  18
ENDBRANCH  12  16
TORSDOF 7
ENDMDL
MODEL 6
REMARK VINA RESULT:      -0.7      1.672      2.759
REMARK  Name = 45360953
REMARK  8 active torsions:
REMARK  status: ('A' for Active; 'I' for Inactive)
REMARK    1  A    between atoms: N_4  and  C_17
REMARK    2  A    between atoms: N_5  and  C_15
REMARK    3  A    between atoms: N_7  and  C_24
REMARK    4  A    between atoms: C_12  and  C_16
REMARK    5  A    between atoms: C_15  and  C_19
REMARK    6  A    between atoms: C_16  and  C_18
REMARK    7  A    between atoms: C_18  and  C_20
REMARK    8  A    between atoms: C_24  and  C_25
REMARK                            x       y       z     vdW  Elec       q    Type
REMARK                         _______ _______ _______ _____ _____    ______ ____
ROOT
ATOM      2  O   UNL     1      -0.832  -1.097  21.961  0.00  0.00    -0.274 OA
ATOM      4  N   UNL     1      -1.165   0.353  25.535  0.00  0.00    -0.296 NA
ATOM      5  N   UNL     1       1.238   0.434  22.776  0.00  0.00    -0.285 NA
ATOM      6  N   UNL     1      -1.165  -2.088  23.997  0.00  0.00    -0.312 N 
ATOM      8  C   UNL     1       0.192   0.508  24.966  0.00  0.00    +0.084 C 
ATOM      9  C   UNL     1       0.618  -0.430  23.798  0.00  0.00    +0.161 C 
ATOM     10  C   UNL     1       0.464   1.903  24.371  0.00  0.00    +0.036 C 
ATOM     11  C   UNL     1       1.637   1.667  23.444  0.00  0.00    +0.087 C 
ATOM     12  C   UNL     1      -1.412  -0.963  26.190  0.00  0.00    +0.074 C 
ATOM     13  C   UNL     1      -0.523  -1.208  23.146  0.00  0.00    +0.232 C 
ATOM     14  C   UNL     1      -0.878  -2.183  25.415  0.00  0.00    +0.123 C 
ATOM     17  C   UNL     1      -1.471   1.452  26.468  0.00  0.00    +0.105 C 
ATOM     31  H   UNL     1      -1.918  -2.653  23.619  0.00  0.00    +0.149 HD
ENDROOT
BRANCH   5  15
ATOM     15  C   UNL     1       2.352  -0.200  22.083  0.00  0.00    +0.127 C 
BRANCH  15  19
ATOM      1  S   UNL     1       4.142  -1.462  23.793  0.00  0.00    -0.100 S 
ATOM     19  C   UNL     1       3.627  -0.114  22.872  0.00  0.00    +0.004 A 
ATOM     21  C   UNL     1       4.500   0.947  22.976  0.00  0.00    +0.012 A 
ATOM     22  C   UNL     1       5.605   0.648  23.823  0.00  0.00    +0.008 A 
ATOM     23  C   UNL     1       5.536  -0.629  24.334  0.00  0.00    +0.045 A 
ENDBRANCH  15  19
ENDBRANCH   5  15
BRANCH  12  16
ATOM     16  C   UNL     1      -2.923  -1.179  26.413  0.00  0.00    +0.029 C 
BRANCH  16  18
ATOM     18  C   UNL     1      -3.624  -1.463  25.099  0.00  0.00    +0.097 C 
BRANCH  18  20
ATOM      3  O   UNL     1      -3.659   0.029  23.192  0.00  0.00    -0.276 OA
ATOM      7  N   UNL     1      -4.672   0.700  25.171  0.00  0.00    -0.311 N 
ATOM     20  C   UNL     1      -3.971  -0.182  24.361  0.00  0.00    +0.213 C 
ATOM     32  H   UNL     1      -4.882   0.430  26.128  0.00  0.00    +0.149 HD
BRANCH   7  24
ATOM     24  C   UNL     1      -5.116   1.991  24.700  0.00  0.00    +0.139 C 
BRANCH  24  25
ATOM     25  C   UNL     1      -4.077   3.054  24.909  0.00  0.00    -0.030 A 
ATOM     26  C   UNL     1      -3.150   3.330  23.904  0.00  0.00    +0.005 A 
ATOM     27  C   UNL     1      -4.039   3.767  26.107  0.00  0.00    +0.005 A 
ATOM     28  C   UNL     1      -2.184   4.318  24.097  0.00  0.00    +0.000 A 
ATOM     29  C   UNL     1      -3.074   4.754  26.301  0.00  0.00    +0.000 A 
ATOM     30  C   UNL     1      -2.146   5.030  25.295  0.00  0.00    +0.000 A 
ENDBRANCH  24  25
ENDBRANCH   7  24
ENDBRANCH  18  20
ENDBRANCH  16  18
ENDBRANCH  12  16
TORSDOF 7
ENDMDL
MODEL 7
REMARK VINA RESULT:       0.6      1.493      4.191
REMARK  Name = 45360953
REMARK  8 active torsions:
REMARK  status: ('A' for Active; 'I' for Inactive)
REMARK    1  A    between atoms: N_4  and  C_17
REMARK    2  A    between atoms: N_5  and  C_15
REMARK    3  A    between atoms: N_7  and  C_24
REMARK    4  A    between atoms: C_12  and  C_16
REMARK    5  A    between atoms: C_15  and  C_19
REMARK    6  A    between atoms: C_16  and  C_18
REMARK    7  A    between atoms: C_18  and  C_20
REMARK    8  A    between atoms: C_24  and  C_25
REMARK                            x       y       z     vdW  Elec       q    Type
REMARK                         _______ _______ _______ _____ _____    ______ ____
ROOT
ATOM      2  O   UNL     1      -1.338  -0.078  23.263  0.00  0.00    -0.274 OA
ATOM      4  N   UNL     1      -0.578   3.384  24.819  0.00  0.00    -0.296 NA
ATOM      5  N   UNL     1       1.237   0.718  23.090  0.00  0.00    -0.285 NA
ATOM      6  N   UNL     1      -1.671   0.771  25.362  0.00  0.00    -0.312 N 
ATOM      8  C   UNL     1       0.640   2.615  24.483  0.00  0.00    +0.084 C 
ATOM      9  C   UNL     1       0.523   1.070  24.332  0.00  0.00    +0.161 C 
ATOM     10  C   UNL     1       1.285   3.019  23.144  0.00  0.00    +0.036 C 
ATOM     11  C   UNL     1       2.142   1.822  22.790  0.00  0.00    +0.087 C 
ATOM     12  C   UNL     1      -1.162   3.063  26.151  0.00  0.00    +0.074 C 
ATOM     13  C   UNL     1      -0.904   0.537  24.236  0.00  0.00    +0.232 C 
ATOM     14  C   UNL     1      -1.217   1.560  26.490  0.00  0.00    +0.123 C 
ATOM     17  C   UNL     1      -0.330   4.833  24.707  0.00  0.00    +0.105 C 
ATOM     31  H   UNL     1      -2.624   0.421  25.371  0.00  0.00    +0.149 HD
ENDROOT
BRANCH   5  15
ATOM     15  C   UNL     1       1.936  -0.558  23.168  0.00  0.00    +0.127 C 
BRANCH  15  19
ATOM      1  S   UNL     1       4.356  -1.671  23.960  0.00  0.00    -0.100 S 
ATOM     19  C   UNL     1       3.417  -0.378  23.346  0.00  0.00    +0.004 A 
ATOM     21  C   UNL     1       4.183   0.734  23.075  0.00  0.00    +0.012 A 
ATOM     22  C   UNL     1       5.559   0.521  23.376  0.00  0.00    +0.008 A 
ATOM     23  C   UNL     1       5.792  -0.745  23.865  0.00  0.00    +0.045 A 
ENDBRANCH  15  19
ENDBRANCH   5  15
BRANCH  12  16
ATOM     16  C   UNL     1      -2.599   3.615  26.258  0.00  0.00    +0.029 C 
BRANCH  16  18
ATOM     18  C   UNL     1      -3.128   4.002  24.890  0.00  0.00    +0.097 C 
BRANCH  18  20
ATOM      3  O   UNL     1      -3.827   2.611  23.035  0.00  0.00    -0.276 OA
ATOM      7  N   UNL     1      -4.630   2.144  25.163  0.00  0.00    -0.311 N 
ATOM     20  C   UNL     1      -3.883   2.857  24.237  0.00  0.00    +0.213 C 
ATOM     32  H   UNL     1      -4.609   2.429  26.138  0.00  0.00    +0.149 HD
BRANCH   7  24
ATOM     24  C   UNL     1      -5.438   1.007  24.789  0.00  0.00    +0.139 C 
BRANCH  24  25
ATOM     25  C   UNL     1      -4.663  -0.278  24.852  0.00  0.00    -0.030 A 
ATOM     26  C   UNL     1      -4.575  -1.094  23.725  0.00  0.00    +0.005 A 
ATOM     27  C   UNL     1      -4.029  -0.654  26.037  0.00  0.00    +0.005 A 
ATOM     28  C   UNL     1      -3.854  -2.288  23.782  0.00  0.00    +0.000 A 
ATOM     29  C   UNL     1      -3.309  -1.847  26.094  0.00  0.00    +0.000 A 
ATOM     30  C   UNL     1      -3.221  -2.664  24.966  0.00  0.00    +0.000 A 
ENDBRANCH  24  25
ENDBRANCH   7  24
ENDBRANCH  18  20
ENDBRANCH  16  18
ENDBRANCH  12  16
TORSDOF 7
ENDMDL
MODEL 8
REMARK VINA RESULT:       0.6      2.604      5.048
REMARK  Name = 45360953
REMARK  8 active torsions:
REMARK  status: ('A' for Active; 'I' for Inactive)
REMARK    1  A    between atoms: N_4  and  C_17
REMARK    2  A    between atoms: N_5  and  C_15
REMARK    3  A    between atoms: N_7  and  C_24
REMARK    4  A    between atoms: C_12  and  C_16
REMARK    5  A    between atoms: C_15  and  C_19
REMARK    6  A    between atoms: C_16  and  C_18
REMARK    7  A    between atoms: C_18  and  C_20
REMARK    8  A    between atoms: C_24  and  C_25
REMARK                            x       y       z     vdW  Elec       q    Type
REMARK                         _______ _______ _______ _____ _____    ______ ____
ROOT
ATOM      2  O   UNL     1      -1.806   2.882  27.419  0.00  0.00    -0.274 OA
ATOM      4  N   UNL     1      -2.624   2.496  23.655  0.00  0.00    -0.296 NA
ATOM      5  N   UNL     1       0.329   2.471  25.816  0.00  0.00    -0.285 NA
ATOM      6  N   UNL     1      -2.912   4.233  25.940  0.00  0.00    -0.312 N 
ATOM      8  C   UNL     1      -1.179   2.667  23.924  0.00  0.00    +0.084 C 
ATOM      9  C   UNL     1      -0.748   3.319  25.271  0.00  0.00    +0.161 C 
ATOM     10  C   UNL     1      -0.385   1.348  23.938  0.00  0.00    +0.036 C 
ATOM     11  C   UNL     1       0.873   1.702  24.703  0.00  0.00    +0.087 C 
ATOM     12  C   UNL     1      -3.388   3.771  23.553  0.00  0.00    +0.074 C 
ATOM     13  C   UNL     1      -1.854   3.428  26.318  0.00  0.00    +0.232 C 
ATOM     14  C   UNL     1      -3.036   4.824  24.622  0.00  0.00    +0.123 C 
ATOM     17  C   UNL     1      -2.839   1.676  22.450  0.00  0.00    +0.105 C 
ATOM     31  H   UNL     1      -3.670   4.366  26.601  0.00  0.00    +0.149 HD
ENDROOT
BRANCH   5  15
ATOM     15  C   UNL     1       1.360   3.227  26.515  0.00  0.00    +0.127 C 
BRANCH  15  19
ATOM      1  S   UNL     1       3.039   2.764  28.679  0.00  0.00    -0.100 S 
ATOM     19  C   UNL     1       1.491   2.806  27.950  0.00  0.00    +0.004 A 
ATOM     21  C   UNL     1       0.497   2.424  28.824  0.00  0.00    +0.012 A 
ATOM     22  C   UNL     1       1.014   2.093  30.110  0.00  0.00    +0.008 A 
ATOM     23  C   UNL     1       2.383   2.234  30.169  0.00  0.00    +0.045 A 
ENDBRANCH  15  19
ENDBRANCH   5  15
BRANCH  12  16
ATOM     16  C   UNL     1      -4.904   3.501  23.649  0.00  0.00    +0.029 C 
BRANCH  16  18
ATOM     18  C   UNL     1      -5.351   3.458  25.097  0.00  0.00    +0.097 C 
BRANCH  18  20
ATOM      3  O   UNL     1      -6.353   1.756  26.498  0.00  0.00    -0.276 OA
ATOM      7  N   UNL     1      -4.903   1.114  24.802  0.00  0.00    -0.311 N 
ATOM     20  C   UNL     1      -5.609   2.035  25.562  0.00  0.00    +0.213 C 
ATOM     32  H   UNL     1      -4.312   1.448  24.046  0.00  0.00    +0.149 HD
BRANCH   7  24
ATOM     24  C   UNL     1      -4.980  -0.307  25.047  0.00  0.00    +0.139 C 
BRANCH  24  25
ATOM     25  C   UNL     1      -3.622  -0.947  25.072  0.00  0.00    -0.030 A 
ATOM     26  C   UNL     1      -2.619  -0.423  25.886  0.00  0.00    +0.005 A 
ATOM     27  C   UNL     1      -3.365  -2.069  24.283  0.00  0.00    +0.005 A 
ATOM     28  C   UNL     1      -1.358  -1.018  25.910  0.00  0.00    +0.000 A 
ATOM     29  C   UNL     1      -2.105  -2.664  24.307  0.00  0.00    +0.000 A 
ATOM     30  C   UNL     1      -1.100  -2.139  25.121  0.00  0.00    +0.000 A 
ENDBRANCH  24  25
ENDBRANCH   7  24
ENDBRANCH  18  20
ENDBRANCH  16  18
ENDBRANCH  12  16
TORSDOF 7
ENDMDL
