MODEL 1
REMARK VINA RESULT:       5.1      0.000      0.000
REMARK  Name = 11883078
REMARK  12 active torsions:
REMARK  status: ('A' for Active; 'I' for Inactive)
REMARK    1  A    between atoms: O_2  and  C_16
REMARK    2  A    between atoms: O_3  and  C_21
REMARK    3  A    between atoms: O_6  and  C_29
REMARK    4  A    between atoms: O_6  and  C_32
REMARK    5  A    between atoms: N_9  and  C_27
REMARK    6  A    between atoms: C_11  and  C_19
REMARK    7  A    between atoms: C_13  and  C_21
REMARK    8  A    between atoms: C_13  and  C_22
REMARK    9  A    between atoms: C_14  and  C_24
REMARK   10  A    between atoms: C_24  and  C_25
REMARK   11  A    between atoms: C_27  and  C_29
REMARK   12  A    between atoms: C_28  and  C_30
REMARK                            x       y       z     vdW  Elec       q    Type
REMARK                         _______ _______ _______ _____ _____    ______ ____
ROOT
ATOM      1  S   UNL     1       0.391   2.161  25.769  0.00  0.00    -0.057 S 
ATOM      5  O   UNL     1       1.862  -0.106  22.019  0.00  0.00    -0.266 OA
ATOM      8  N   UNL     1      -0.316   1.156  23.491  0.00  0.00    -0.229 NA
ATOM     10  N   UNL     1       2.003   0.930  24.107  0.00  0.00    -0.258 N 
ATOM     11  C   UNL     1      -3.966   2.009  24.396  0.00  0.00    -0.019 C 
ATOM     12  C   UNL     1      -3.539   3.280  25.255  0.00  0.00    +0.011 C 
ATOM     13  C   UNL     1      -4.684   4.035  26.035  0.00  0.00    +0.021 C 
ATOM     14  C   UNL     1      -2.780   1.684  23.375  0.00  0.00    +0.054 C 
ATOM     15  C   UNL     1      -5.239   2.347  23.575  0.00  0.00    +0.010 C 
ATOM     16  C   UNL     1      -5.895   4.251  25.083  0.00  0.00    +0.123 C 
ATOM     17  C   UNL     1      -2.282   2.982  26.124  0.00  0.00    +0.049 C 
ATOM     18  C   UNL     1      -6.357   2.968  24.398  0.00  0.00    +0.032 C 
ATOM     19  C   UNL     1      -4.254   0.762  25.266  0.00  0.00    +0.012 C 
ATOM     20  C   UNL     1      -1.444   1.706  24.072  0.00  0.00    +0.058 A 
ATOM     22  C   UNL     1      -4.171   5.441  26.454  0.00  0.00    +0.016 C 
ATOM     23  C   UNL     1      -1.239   2.309  25.296  0.00  0.00    +0.015 A 
ATOM     26  C   UNL     1       0.707   1.331  24.299  0.00  0.00    +0.165 A 
ATOM     28  C   UNL     1       2.527   0.238  22.993  0.00  0.00    +0.285 C 
ATOM     38  H   UNL     1       2.641   1.163  24.865  0.00  0.00    +0.157 HD
ENDROOT
BRANCH  28  30
ATOM      7  O   UNL     1       4.294  -1.289  23.658  0.00  0.00    -0.458 OA
ATOM     30  C   UNL     1       3.958  -0.103  23.087  0.00  0.00    +0.189 A 
ATOM     31  C   UNL     1       5.086   0.579  22.690  0.00  0.00    +0.054 A 
ATOM     33  C   UNL     1       6.184  -0.242  23.040  0.00  0.00    +0.042 A 
ATOM     34  C   UNL     1       5.651  -1.367  23.625  0.00  0.00    +0.196 A 
ENDBRANCH  28  30
BRANCH  16   2
ATOM      2  O   UNL     1      -6.998   4.816  25.792  0.00  0.00    -0.391 OA
ATOM     35  H   UNL     1      -6.652   5.537  26.345  0.00  0.00    +0.210 HD
ENDBRANCH  16   2
BRANCH  13  21
ATOM     21  C   UNL     1      -5.130   3.348  27.344  0.00  0.00    +0.165 C 
BRANCH  21   3
ATOM      3  O   UNL     1      -6.236   2.528  27.047  0.00  0.00    -0.394 OA
ATOM     36  H   UNL     1      -6.122   2.206  26.136  0.00  0.00    +0.209 HD
ENDBRANCH  21   3
ENDBRANCH  13  21
BRANCH  14  24
ATOM     24  C   UNL     1      -2.971   0.394  22.566  0.00  0.00    +0.106 C 
BRANCH  24  25
ATOM      4  O   UNL     1      -4.115  -1.275  23.894  0.00  0.00    -0.276 OA
ATOM      9  N   UNL     1      -1.800  -1.350  23.704  0.00  0.00    -0.313 N 
ATOM     25  C   UNL     1      -3.060  -0.825  23.455  0.00  0.00    +0.214 C 
ATOM     37  H   UNL     1      -0.986  -0.908  23.285  0.00  0.00    +0.149 HD
BRANCH   9  27
ATOM     27  C   UNL     1      -1.579  -2.516  24.528  0.00  0.00    +0.132 C 
BRANCH  27  29
ATOM     29  C   UNL     1      -0.403  -2.320  25.468  0.00  0.00    +0.178 C 
BRANCH  29   6
ATOM      6  O   UNL     1      -0.540  -1.076  26.141  0.00  0.00    -0.381 OA
ATOM     32  C   UNL     1      -1.790  -0.981  26.810  0.00  0.00    +0.194 C 
ENDBRANCH  29   6
ENDBRANCH  27  29
ENDBRANCH   9  27
ENDBRANCH  24  25
ENDBRANCH  14  24
TORSDOF 9
ENDMDL
