MODEL 1
REMARK VINA RESULT:      -4.5      0.000      0.000
REMARK  Name = 75536935
REMARK  6 active torsions:
REMARK  status: ('A' for Active; 'I' for Inactive)
REMARK    1  A    between atoms: O_2  and  C_6
REMARK    2  A    between atoms: O_2  and  C_14
REMARK    3  A    between atoms: O_3  and  C_17
REMARK    4  A    between atoms: O_3  and  C_18
REMARK    5  A    between atoms: N_4  and  C_8
REMARK    6  A    between atoms: C_8  and  C_11
REMARK                            x       y       z     vdW  Elec       q    Type
REMARK                         _______ _______ _______ _____ _____    ______ ____
ROOT
ATOM      1  O   UNL     1      -3.877  -3.057  24.382  0.00  0.00    -0.376 OA
ATOM      4  N   UNL     1      -1.537  -0.996  24.321  0.00  0.00    -0.293 NA
ATOM      5  C   UNL     1      -2.634  -0.086  24.666  0.00  0.00    +0.118 C 
ATOM      6  C   UNL     1      -4.031  -0.692  24.869  0.00  0.00    +0.157 C 
ATOM      7  C   UNL     1      -1.603  -2.300  24.983  0.00  0.00    +0.113 C 
ATOM      9  C   UNL     1      -4.376  -1.815  23.901  0.00  0.00    +0.192 C 
ATOM     10  C   UNL     1      -2.485  -3.253  24.175  0.00  0.00    +0.175 C 
ENDROOT
BRANCH   6   2
ATOM      2  O   UNL     1      -4.995   0.349  24.700  0.00  0.00    -0.376 OA
ATOM     14  C   UNL     1      -4.389   1.629  24.775  0.00  0.00    +0.194 C 
ENDBRANCH   6   2
BRANCH   4   8
ATOM      8  C   UNL     1      -0.248  -0.343  24.551  0.00  0.00    +0.119 C 
BRANCH   8  11
ATOM     11  C   UNL     1      -0.394   1.148  24.702  0.00  0.00    -0.033 A 
ATOM     12  C   UNL     1      -0.266   1.738  25.959  0.00  0.00    +0.008 A 
ATOM     13  C   UNL     1      -0.657   1.939  23.584  0.00  0.00    +0.008 A 
ATOM     15  C   UNL     1      -0.401   3.119  26.099  0.00  0.00    +0.046 A 
ATOM     16  C   UNL     1      -0.791   3.321  23.724  0.00  0.00    +0.046 A 
ATOM     17  C   UNL     1      -0.663   3.910  24.981  0.00  0.00    +0.120 A 
BRANCH  17   3
ATOM      3  O   UNL     1      -0.795   5.258  25.117  0.00  0.00    -0.495 OA
ATOM     18  C   UNL     1      -2.121   5.782  25.136  0.00  0.00    +0.277 C 
ENDBRANCH  17   3
ENDBRANCH   8  11
ENDBRANCH   4   8
TORSDOF 4
ENDMDL
MODEL 2
REMARK VINA RESULT:      -4.4      1.821      3.016
REMARK  Name = 75536935
REMARK  6 active torsions:
REMARK  status: ('A' for Active; 'I' for Inactive)
REMARK    1  A    between atoms: O_2  and  C_6
REMARK    2  A    between atoms: O_2  and  C_14
REMARK    3  A    between atoms: O_3  and  C_17
REMARK    4  A    between atoms: O_3  and  C_18
REMARK    5  A    between atoms: N_4  and  C_8
REMARK    6  A    between atoms: C_8  and  C_11
REMARK                            x       y       z     vdW  Elec       q    Type
REMARK                         _______ _______ _______ _____ _____    ______ ____
ROOT
ATOM      1  O   UNL     1      -2.604  -3.257  24.080  0.00  0.00    -0.376 OA
ATOM      4  N   UNL     1      -3.909  -0.523  24.821  0.00  0.00    -0.293 NA
ATOM      5  C   UNL     1      -2.515  -0.084  24.700  0.00  0.00    +0.118 C 
ATOM      6  C   UNL     1      -1.470  -1.127  24.274  0.00  0.00    +0.157 C 
ATOM      7  C   UNL     1      -4.324  -1.502  23.815  0.00  0.00    +0.113 C 
ATOM      9  C   UNL     1      -1.684  -2.512  24.870  0.00  0.00    +0.192 C 
ATOM     10  C   UNL     1      -3.967  -2.914  24.282  0.00  0.00    +0.175 C 
ENDROOT
BRANCH   6   2
ATOM      2  O   UNL     1      -0.184  -0.662  24.689  0.00  0.00    -0.376 OA
ATOM     14  C   UNL     1       0.262   0.412  23.878  0.00  0.00    +0.194 C 
ENDBRANCH   6   2
BRANCH   4   8
ATOM      8  C   UNL     1      -4.802   0.636  24.841  0.00  0.00    +0.119 C 
BRANCH   8  11
ATOM     11  C   UNL     1      -4.038   1.931  24.904  0.00  0.00    -0.033 A 
ATOM     12  C   UNL     1      -4.229   2.803  25.976  0.00  0.00    +0.008 A 
ATOM     13  C   UNL     1      -3.138   2.260  23.890  0.00  0.00    +0.008 A 
ATOM     15  C   UNL     1      -3.521   4.003  26.035  0.00  0.00    +0.046 A 
ATOM     16  C   UNL     1      -2.430   3.461  23.949  0.00  0.00    +0.046 A 
ATOM     17  C   UNL     1      -2.621   4.332  25.021  0.00  0.00    +0.120 A 
BRANCH  17   3
ATOM      3  O   UNL     1      -1.930   5.502  25.078  0.00  0.00    -0.495 OA
ATOM     18  C   UNL     1      -0.544   5.455  24.741  0.00  0.00    +0.277 C 
ENDBRANCH  17   3
ENDBRANCH   8  11
ENDBRANCH   4   8
TORSDOF 4
ENDMDL
MODEL 3
REMARK VINA RESULT:      -4.3      1.756      6.187
REMARK  Name = 75536935
REMARK  6 active torsions:
REMARK  status: ('A' for Active; 'I' for Inactive)
REMARK    1  A    between atoms: O_2  and  C_6
REMARK    2  A    between atoms: O_2  and  C_14
REMARK    3  A    between atoms: O_3  and  C_17
REMARK    4  A    between atoms: O_3  and  C_18
REMARK    5  A    between atoms: N_4  and  C_8
REMARK    6  A    between atoms: C_8  and  C_11
REMARK                            x       y       z     vdW  Elec       q    Type
REMARK                         _______ _______ _______ _____ _____    ______ ____
ROOT
ATOM      1  O   UNL     1      -0.605   5.076  25.030  0.00  0.00    -0.376 OA
ATOM      4  N   UNL     1      -2.936   3.007  24.938  0.00  0.00    -0.293 NA
ATOM      5  C   UNL     1      -1.807   2.085  24.778  0.00  0.00    +0.118 C 
ATOM      6  C   UNL     1      -0.389   2.674  24.823  0.00  0.00    +0.157 C 
ATOM      7  C   UNL     1      -2.700   4.092  25.893  0.00  0.00    +0.113 C 
ATOM      9  C   UNL     1      -0.248   4.027  24.138  0.00  0.00    +0.192 C 
ATOM     10  C   UNL     1      -2.004   5.260  25.195  0.00  0.00    +0.175 C 
ENDROOT
BRANCH   6   2
ATOM      2  O   UNL     1       0.494   1.757  24.174  0.00  0.00    -0.376 OA
ATOM     14  C   UNL     1      -0.169   0.545  23.851  0.00  0.00    +0.194 C 
ENDBRANCH   6   2
BRANCH   4   8
ATOM      8  C   UNL     1      -4.153   2.262  25.263  0.00  0.00    +0.119 C 
BRANCH   8  11
ATOM     11  C   UNL     1      -3.993   0.788  25.007  0.00  0.00    -0.033 A 
ATOM     12  C   UNL     1      -3.676  -0.073  26.058  0.00  0.00    +0.008 A 
ATOM     13  C   UNL     1      -4.162   0.282  23.718  0.00  0.00    +0.008 A 
ATOM     15  C   UNL     1      -3.528  -1.440  25.820  0.00  0.00    +0.046 A 
ATOM     16  C   UNL     1      -4.014  -1.085  23.481  0.00  0.00    +0.046 A 
ATOM     17  C   UNL     1      -3.697  -1.946  24.532  0.00  0.00    +0.120 A 
BRANCH  17   3
ATOM      3  O   UNL     1      -3.554  -3.278  24.300  0.00  0.00    -0.495 OA
ATOM     18  C   UNL     1      -2.354  -3.699  23.652  0.00  0.00    +0.277 C 
ENDBRANCH  17   3
ENDBRANCH   8  11
ENDBRANCH   4   8
TORSDOF 4
ENDMDL
MODEL 4
REMARK VINA RESULT:      -4.2      1.600      5.593
REMARK  Name = 75536935
REMARK  6 active torsions:
REMARK  status: ('A' for Active; 'I' for Inactive)
REMARK    1  A    between atoms: O_2  and  C_6
REMARK    2  A    between atoms: O_2  and  C_14
REMARK    3  A    between atoms: O_3  and  C_17
REMARK    4  A    between atoms: O_3  and  C_18
REMARK    5  A    between atoms: N_4  and  C_8
REMARK    6  A    between atoms: C_8  and  C_11
REMARK                            x       y       z     vdW  Elec       q    Type
REMARK                         _______ _______ _______ _____ _____    ______ ____
ROOT
ATOM      1  O   UNL     1      -2.122   5.215  24.553  0.00  0.00    -0.376 OA
ATOM      4  N   UNL     1      -1.315   2.361  25.520  0.00  0.00    -0.293 NA
ATOM      5  C   UNL     1      -2.618   2.041  24.927  0.00  0.00    +0.118 C 
ATOM      6  C   UNL     1      -3.395   3.179  24.246  0.00  0.00    +0.157 C 
ATOM      7  C   UNL     1      -0.530   3.337  24.761  0.00  0.00    +0.113 C 
ATOM      9  C   UNL     1      -3.297   4.521  24.958  0.00  0.00    +0.192 C 
ATOM     10  C   UNL     1      -0.926   4.756  25.168  0.00  0.00    +0.175 C 
ENDROOT
BRANCH   6   2
ATOM      2  O   UNL     1      -4.773   2.806  24.194  0.00  0.00    -0.376 OA
ATOM     14  C   UNL     1      -5.334   2.724  25.493  0.00  0.00    +0.194 C 
ENDBRANCH   6   2
BRANCH   4   8
ATOM      8  C   UNL     1      -0.557   1.134  25.761  0.00  0.00    +0.119 C 
BRANCH   8  11
ATOM     11  C   UNL     1      -1.346  -0.094  25.397  0.00  0.00    -0.033 A 
ATOM     12  C   UNL     1      -2.613  -0.298  25.944  0.00  0.00    +0.008 A 
ATOM     13  C   UNL     1      -0.812  -1.030  24.511  0.00  0.00    +0.008 A 
ATOM     15  C   UNL     1      -3.346  -1.435  25.606  0.00  0.00    +0.046 A 
ATOM     16  C   UNL     1      -1.544  -2.168  24.173  0.00  0.00    +0.046 A 
ATOM     17  C   UNL     1      -2.811  -2.371  24.720  0.00  0.00    +0.120 A 
BRANCH  17   3
ATOM      3  O   UNL     1      -3.525  -3.480  24.390  0.00  0.00    -0.495 OA
ATOM     18  C   UNL     1      -4.642  -3.300  23.520  0.00  0.00    +0.277 C 
ENDBRANCH  17   3
ENDBRANCH   8  11
ENDBRANCH   4   8
TORSDOF 4
ENDMDL
MODEL 5
REMARK VINA RESULT:      -4.1      2.465      4.227
REMARK  Name = 75536935
REMARK  6 active torsions:
REMARK  status: ('A' for Active; 'I' for Inactive)
REMARK    1  A    between atoms: O_2  and  C_6
REMARK    2  A    between atoms: O_2  and  C_14
REMARK    3  A    between atoms: O_3  and  C_17
REMARK    4  A    between atoms: O_3  and  C_18
REMARK    5  A    between atoms: N_4  and  C_8
REMARK    6  A    between atoms: C_8  and  C_11
REMARK                            x       y       z     vdW  Elec       q    Type
REMARK                         _______ _______ _______ _____ _____    ______ ____
ROOT
ATOM      1  O   UNL     1       1.450  -0.848  23.344  0.00  0.00    -0.376 OA
ATOM      4  N   UNL     1      -0.219   1.728  23.893  0.00  0.00    -0.293 NA
ATOM      5  C   UNL     1      -0.922   0.805  24.791  0.00  0.00    +0.118 C 
ATOM      6  C   UNL     1      -0.391  -0.632  24.900  0.00  0.00    +0.157 C 
ATOM      7  C   UNL     1       1.235   1.556  23.869  0.00  0.00    +0.113 C 
ATOM      9  C   UNL     1       0.099  -1.223  23.585  0.00  0.00    +0.192 C 
ATOM     10  C   UNL     1       1.616   0.476  22.857  0.00  0.00    +0.175 C 
ENDROOT
BRANCH   6   2
ATOM      2  O   UNL     1      -1.448  -1.460  25.390  0.00  0.00    -0.376 OA
ATOM     14  C   UNL     1      -2.695  -0.788  25.336  0.00  0.00    +0.194 C 
ENDBRANCH   6   2
BRANCH   4   8
ATOM      8  C   UNL     1      -0.590   3.110  24.200  0.00  0.00    +0.119 C 
BRANCH   8  11
ATOM     11  C   UNL     1      -2.023   3.220  24.648  0.00  0.00    -0.033 A 
ATOM     12  C   UNL     1      -3.041   2.661  23.874  0.00  0.00    +0.008 A 
ATOM     13  C   UNL     1      -2.333   3.879  25.837  0.00  0.00    +0.008 A 
ATOM     15  C   UNL     1      -4.368   2.762  24.289  0.00  0.00    +0.046 A 
ATOM     16  C   UNL     1      -3.661   3.980  26.252  0.00  0.00    +0.046 A 
ATOM     17  C   UNL     1      -4.678   3.422  25.478  0.00  0.00    +0.120 A 
BRANCH  17   3
ATOM      3  O   UNL     1      -5.973   3.520  25.884  0.00  0.00    -0.495 OA
ATOM     18  C   UNL     1      -6.617   2.317  26.301  0.00  0.00    +0.277 C 
ENDBRANCH  17   3
ENDBRANCH   8  11
ENDBRANCH   4   8
TORSDOF 4
ENDMDL
MODEL 6
REMARK VINA RESULT:      -3.9     14.027     17.005
REMARK  Name = 75536935
REMARK  6 active torsions:
REMARK  status: ('A' for Active; 'I' for Inactive)
REMARK    1  A    between atoms: O_2  and  C_6
REMARK    2  A    between atoms: O_2  and  C_14
REMARK    3  A    between atoms: O_3  and  C_17
REMARK    4  A    between atoms: O_3  and  C_18
REMARK    5  A    between atoms: N_4  and  C_8
REMARK    6  A    between atoms: C_8  and  C_11
REMARK                            x       y       z     vdW  Elec       q    Type
REMARK                         _______ _______ _______ _____ _____    ______ ____
ROOT
ATOM      1  O   UNL     1      -4.081  -9.182  10.189  0.00  0.00    -0.376 OA
ATOM      4  N   UNL     1      -6.608  -9.924  11.859  0.00  0.00    -0.293 NA
ATOM      5  C   UNL     1      -7.266  -9.242  10.740  0.00  0.00    +0.118 C 
ATOM      6  C   UNL     1      -6.383  -8.733   9.591  0.00  0.00    +0.157 C 
ATOM      7  C   UNL     1      -5.476 -10.767  11.471  0.00  0.00    +0.113 C 
ATOM      9  C   UNL     1      -5.048  -8.150  10.035  0.00  0.00    +0.192 C 
ATOM     10  C   UNL     1      -4.201  -9.927  11.392  0.00  0.00    +0.175 C 
ENDROOT
BRANCH   6   2
ATOM      2  O   UNL     1      -7.102  -7.712   8.896  0.00  0.00    -0.376 OA
ATOM     14  C   UNL     1      -8.502  -7.866   9.060  0.00  0.00    +0.194 C 
ENDBRANCH   6   2
BRANCH   4   8
ATOM      8  C   UNL     1      -7.591 -10.673  12.642  0.00  0.00    +0.119 C 
BRANCH   8  11
ATOM     11  C   UNL     1      -7.486 -10.371  14.112  0.00  0.00    -0.033 A 
ATOM     12  C   UNL     1      -8.632 -10.368  14.908  0.00  0.00    +0.008 A 
ATOM     13  C   UNL     1      -6.243 -10.094  14.680  0.00  0.00    +0.008 A 
ATOM     15  C   UNL     1      -8.534 -10.089  16.271  0.00  0.00    +0.046 A 
ATOM     16  C   UNL     1      -6.145  -9.814  16.043  0.00  0.00    +0.046 A 
ATOM     17  C   UNL     1      -7.291  -9.812  16.839  0.00  0.00    +0.120 A 
BRANCH  17   3
ATOM      3  O   UNL     1      -7.195  -9.539  18.168  0.00  0.00    -0.495 OA
ATOM     18  C   UNL     1      -6.462 -10.465  18.969  0.00  0.00    +0.277 C 
ENDBRANCH  17   3
ENDBRANCH   8  11
ENDBRANCH   4   8
TORSDOF 4
ENDMDL
MODEL 7
REMARK VINA RESULT:      -3.7      2.887      4.995
REMARK  Name = 75536935
REMARK  6 active torsions:
REMARK  status: ('A' for Active; 'I' for Inactive)
REMARK    1  A    between atoms: O_2  and  C_6
REMARK    2  A    between atoms: O_2  and  C_14
REMARK    3  A    between atoms: O_3  and  C_17
REMARK    4  A    between atoms: O_3  and  C_18
REMARK    5  A    between atoms: N_4  and  C_8
REMARK    6  A    between atoms: C_8  and  C_11
REMARK                            x       y       z     vdW  Elec       q    Type
REMARK                         _______ _______ _______ _____ _____    ______ ____
ROOT
ATOM      1  O   UNL     1      -2.075   4.860  25.332  0.00  0.00    -0.376 OA
ATOM      4  N   UNL     1      -1.837   1.799  24.789  0.00  0.00    -0.293 NA
ATOM      5  C   UNL     1      -3.285   1.879  25.008  0.00  0.00    +0.118 C 
ATOM      6  C   UNL     1      -3.895   3.266  25.264  0.00  0.00    +0.157 C 
ATOM      7  C   UNL     1      -1.277   2.918  24.029  0.00  0.00    +0.113 C 
ATOM      9  C   UNL     1      -3.038   4.180  26.129  0.00  0.00    +0.192 C 
ATOM     10  C   UNL     1      -0.947   4.076  24.972  0.00  0.00    +0.175 C 
ENDROOT
BRANCH   6   2
ATOM      2  O   UNL     1      -5.150   3.084  25.923  0.00  0.00    -0.376 OA
ATOM     14  C   UNL     1      -5.841   1.956  25.411  0.00  0.00    +0.194 C 
ENDBRANCH   6   2
BRANCH   4   8
ATOM      8  C   UNL     1      -1.490   0.513  24.183  0.00  0.00    +0.119 C 
BRANCH   8  11
ATOM     11  C   UNL     1      -0.079   0.502  23.659  0.00  0.00    -0.033 A 
ATOM     12  C   UNL     1       0.866   1.387  24.179  0.00  0.00    +0.008 A 
ATOM     13  C   UNL     1       0.285  -0.394  22.654  0.00  0.00    +0.008 A 
ATOM     15  C   UNL     1       2.173   1.377  23.695  0.00  0.00    +0.046 A 
ATOM     16  C   UNL     1       1.593  -0.404  22.169  0.00  0.00    +0.046 A 
ATOM     17  C   UNL     1       2.537   0.481  22.690  0.00  0.00    +0.120 A 
BRANCH  17   3
ATOM      3  O   UNL     1       3.812   0.470  22.217  0.00  0.00    -0.495 OA
ATOM     18  C   UNL     1       4.862   0.386  23.180  0.00  0.00    +0.277 C 
ENDBRANCH  17   3
ENDBRANCH   8  11
ENDBRANCH   4   8
TORSDOF 4
ENDMDL
MODEL 8
REMARK VINA RESULT:      -3.4      2.455      4.303
REMARK  Name = 75536935
REMARK  6 active torsions:
REMARK  status: ('A' for Active; 'I' for Inactive)
REMARK    1  A    between atoms: O_2  and  C_6
REMARK    2  A    between atoms: O_2  and  C_14
REMARK    3  A    between atoms: O_3  and  C_17
REMARK    4  A    between atoms: O_3  and  C_18
REMARK    5  A    between atoms: N_4  and  C_8
REMARK    6  A    between atoms: C_8  and  C_11
REMARK                            x       y       z     vdW  Elec       q    Type
REMARK                         _______ _______ _______ _____ _____    ______ ____
ROOT
ATOM      1  O   UNL     1      -5.903   2.365  24.754  0.00  0.00    -0.376 OA
ATOM      4  N   UNL     1      -2.935   2.220  25.701  0.00  0.00    -0.293 NA
ATOM      5  C   UNL     1      -3.034   0.904  25.062  0.00  0.00    +0.118 C 
ATOM      6  C   UNL     1      -4.359   0.540  24.373  0.00  0.00    +0.157 C 
ATOM      7  C   UNL     1      -3.625   3.294  24.984  0.00  0.00    +0.113 C 
ATOM      9  C   UNL     1      -5.602   1.020  25.109  0.00  0.00    +0.192 C 
ATOM     10  C   UNL     1      -5.095   3.339  25.400  0.00  0.00    +0.175 C 
ENDROOT
BRANCH   6   2
ATOM      2  O   UNL     1      -4.428  -0.883  24.269  0.00  0.00    -0.376 OA
ATOM     14  C   UNL     1      -3.685  -1.512  25.300  0.00  0.00    +0.194 C 
ENDBRANCH   6   2
BRANCH   4   8
ATOM      8  C   UNL     1      -1.532   2.556  25.948  0.00  0.00    +0.119 C 
BRANCH   8  11
ATOM     11  C   UNL     1      -0.604   1.784  25.049  0.00  0.00    -0.033 A 
ATOM     12  C   UNL     1      -0.718   0.397  24.953  0.00  0.00    +0.008 A 
ATOM     13  C   UNL     1       0.370   2.456  24.311  0.00  0.00    +0.008 A 
ATOM     15  C   UNL     1       0.141  -0.318  24.120  0.00  0.00    +0.046 A 
ATOM     16  C   UNL     1       1.230   1.740  23.477  0.00  0.00    +0.046 A 
ATOM     17  C   UNL     1       1.115   0.353  23.382  0.00  0.00    +0.120 A 
BRANCH  17   3
ATOM      3  O   UNL     1       1.954  -0.343  22.568  0.00  0.00    -0.495 OA
ATOM     18  C   UNL     1       3.233   0.232  22.307  0.00  0.00    +0.277 C 
ENDBRANCH  17   3
ENDBRANCH   8  11
ENDBRANCH   4   8
TORSDOF 4
ENDMDL
MODEL 9
REMARK VINA RESULT:      -2.9      2.749      5.178
REMARK  Name = 75536935
REMARK  6 active torsions:
REMARK  status: ('A' for Active; 'I' for Inactive)
REMARK    1  A    between atoms: O_2  and  C_6
REMARK    2  A    between atoms: O_2  and  C_14
REMARK    3  A    between atoms: O_3  and  C_17
REMARK    4  A    between atoms: O_3  and  C_18
REMARK    5  A    between atoms: N_4  and  C_8
REMARK    6  A    between atoms: C_8  and  C_11
REMARK                            x       y       z     vdW  Elec       q    Type
REMARK                         _______ _______ _______ _____ _____    ______ ____
ROOT
ATOM      1  O   UNL     1       1.294   2.003  24.846  0.00  0.00    -0.376 OA
ATOM      4  N   UNL     1      -1.443   0.787  23.979  0.00  0.00    -0.293 NA
ATOM      5  C   UNL     1      -0.549  -0.141  23.278  0.00  0.00    +0.118 C 
ATOM      6  C   UNL     1       0.965   0.042  23.467  0.00  0.00    +0.157 C 
ATOM      7  C   UNL     1      -0.985   1.173  25.315  0.00  0.00    +0.113 C 
ATOM      9  C   UNL     1       1.421   1.494  23.524  0.00  0.00    +0.192 C 
ATOM     10  C   UNL     1      -0.030   2.363  25.215  0.00  0.00    +0.175 C 
ENDROOT
BRANCH   6   2
ATOM      2  O   UNL     1       1.629  -0.587  22.369  0.00  0.00    -0.376 OA
ATOM     14  C   UNL     1       2.851   0.065  22.064  0.00  0.00    +0.194 C 
ENDBRANCH   6   2
BRANCH   4   8
ATOM      8  C   UNL     1      -2.802   0.246  24.013  0.00  0.00    +0.119 C 
BRANCH   8  11
ATOM     11  C   UNL     1      -3.796   1.259  24.516  0.00  0.00    -0.033 A 
ATOM     12  C   UNL     1      -3.589   2.618  24.278  0.00  0.00    +0.008 A 
ATOM     13  C   UNL     1      -4.924   0.838  25.219  0.00  0.00    +0.008 A 
ATOM     15  C   UNL     1      -4.510   3.556  24.743  0.00  0.00    +0.046 A 
ATOM     16  C   UNL     1      -5.846   1.777  25.685  0.00  0.00    +0.046 A 
ATOM     17  C   UNL     1      -5.638   3.136  25.447  0.00  0.00    +0.120 A 
BRANCH  17   3
ATOM      3  O   UNL     1      -6.537   4.050  25.900  0.00  0.00    -0.495 OA
ATOM     18  C   UNL     1      -6.312   5.414  25.545  0.00  0.00    +0.277 C 
ENDBRANCH  17   3
ENDBRANCH   8  11
ENDBRANCH   4   8
TORSDOF 4
ENDMDL
MODEL 10
REMARK VINA RESULT:      -2.9     15.603     18.483
REMARK  Name = 75536935
REMARK  6 active torsions:
REMARK  status: ('A' for Active; 'I' for Inactive)
REMARK    1  A    between atoms: O_2  and  C_6
REMARK    2  A    between atoms: O_2  and  C_14
REMARK    3  A    between atoms: O_3  and  C_17
REMARK    4  A    between atoms: O_3  and  C_18
REMARK    5  A    between atoms: N_4  and  C_8
REMARK    6  A    between atoms: C_8  and  C_11
REMARK                            x       y       z     vdW  Elec       q    Type
REMARK                         _______ _______ _______ _____ _____    ______ ____
ROOT
ATOM      1  O   UNL     1      -2.182 -10.733  13.056  0.00  0.00    -0.376 OA
ATOM      4  N   UNL     1      -3.317  -9.345  10.504  0.00  0.00    -0.293 NA
ATOM      5  C   UNL     1      -1.921  -8.908  10.399  0.00  0.00    +0.118 C 
ATOM      6  C   UNL     1      -0.929  -9.418  11.456  0.00  0.00    +0.157 C 
ATOM      7  C   UNL     1      -3.485 -10.727  10.957  0.00  0.00    +0.113 C 
ATOM      9  C   UNL     1      -1.499  -9.499  12.865  0.00  0.00    +0.192 C 
ATOM     10  C   UNL     1      -3.482 -10.781  12.485  0.00  0.00    +0.175 C 
ENDROOT
BRANCH   6   2
ATOM      2  O   UNL     1       0.188  -8.528  11.481  0.00  0.00    -0.376 OA
ATOM     14  C   UNL     1       0.144  -7.677  12.614  0.00  0.00    +0.194 C 
ENDBRANCH   6   2
BRANCH   4   8
ATOM      8  C   UNL     1      -4.016  -9.106   9.241  0.00  0.00    +0.119 C 
BRANCH   8  11
ATOM     11  C   UNL     1      -5.496  -9.350   9.364  0.00  0.00    -0.033 A 
ATOM     12  C   UNL     1      -6.230  -8.705  10.360  0.00  0.00    +0.008 A 
ATOM     13  C   UNL     1      -6.135 -10.221   8.482  0.00  0.00    +0.008 A 
ATOM     15  C   UNL     1      -7.602  -8.930  10.473  0.00  0.00    +0.046 A 
ATOM     16  C   UNL     1      -7.507 -10.447   8.595  0.00  0.00    +0.046 A 
ATOM     17  C   UNL     1      -8.240  -9.801   9.591  0.00  0.00    +0.120 A 
BRANCH  17   3
ATOM      3  O   UNL     1      -9.578 -10.021   9.701  0.00  0.00    -0.495 OA
ATOM     18  C   UNL     1     -10.049 -10.557  10.937  0.00  0.00    +0.277 C 
ENDBRANCH  17   3
ENDBRANCH   8  11
ENDBRANCH   4   8
TORSDOF 4
ENDMDL
