MODEL 1
REMARK VINA RESULT:      -3.5      0.000      0.000
REMARK  Name = 38028541
REMARK  11 active torsions:
REMARK  status: ('A' for Active; 'I' for Inactive)
REMARK    1  A    between atoms: N_4  and  C_14
REMARK    2  A    between atoms: N_5  and  C_21
REMARK    3  A    between atoms: C_7  and  C_11
REMARK    4  A    between atoms: C_8  and  C_14
REMARK    5  A    between atoms: C_10  and  C_15
REMARK    6  A    between atoms: C_11  and  C_16
REMARK    7  A    between atoms: C_11  and  C_17
REMARK    8  A    between atoms: C_12  and  C_18
REMARK    9  A    between atoms: C_15  and  C_19
REMARK   10  A    between atoms: C_20  and  C_22
REMARK   11  A    between atoms: C_21  and  C_23
REMARK                            x       y       z     vdW  Elec       q    Type
REMARK                         _______ _______ _______ _____ _____    ______ ____
ROOT
ATOM      7  C   UNL     1      -3.624  -0.798  25.029  0.00  0.00    +0.000 C 
ATOM      8  C   UNL     1      -2.319  -0.119  24.543  0.00  0.00    +0.032 C 
ATOM      9  C   UNL     1      -4.774  -0.513  24.050  0.00  0.00    +0.012 C 
ATOM     10  C   UNL     1      -5.040   0.994  23.886  0.00  0.00    +0.023 C 
ATOM     12  C   UNL     1      -3.757   1.772  23.668  0.00  0.00    -0.073 C 
ATOM     13  C   UNL     1      -2.551   1.254  23.956  0.00  0.00    -0.022 C 
ATOM     18  C   UNL     1      -3.891   3.145  23.070  0.00  0.00    +0.039 C 
ENDROOT
BRANCH   7  11
ATOM     11  C   UNL     1      -3.449  -2.310  25.199  0.00  0.00    -0.013 C 
ATOM     16  C   UNL     1      -1.968  -2.672  25.242  0.00  0.00    +0.007 C 
ATOM     17  C   UNL     1      -4.158  -3.058  24.074  0.00  0.00    +0.007 C 
ENDBRANCH   7  11
BRANCH   8  14
ATOM     14  C   UNL     1      -1.291  -0.023  25.677  0.00  0.00    +0.112 C 
BRANCH  14   4
ATOM      3  O   UNL     1      -0.259  -1.118  23.233  0.00  0.00    -0.270 OA
ATOM      4  N   UNL     1       0.027   0.152  25.153  0.00  0.00    -0.311 N 
ATOM     20  C   UNL     1       0.448  -0.417  23.952  0.00  0.00    +0.244 C 
ATOM     33  H   UNL     1       0.639   0.796  25.645  0.00  0.00    +0.149 HD
BRANCH  20  22
ATOM      1  F   UNL     1       5.105  -1.794  23.704  0.00  0.00    -0.205 F 
ATOM     22  C   UNL     1       1.857  -0.161  23.558  0.00  0.00    +0.039 A 
ATOM     24  C   UNL     1       2.839  -1.116  23.821  0.00  0.00    +0.051 A 
ATOM     25  C   UNL     1       2.199   1.034  22.924  0.00  0.00    +0.013 A 
ATOM     28  C   UNL     1       4.162  -0.877  23.451  0.00  0.00    +0.124 A 
ATOM     29  C   UNL     1       3.523   1.273  22.554  0.00  0.00    +0.004 A 
ATOM     30  C   UNL     1       4.504   0.318  22.818  0.00  0.00    +0.038 A 
ENDBRANCH  20  22
ENDBRANCH  14   4
ENDBRANCH   8  14
BRANCH  10  15
ATOM     15  C   UNL     1      -5.823   1.550  25.080  0.00  0.00    +0.103 C 
BRANCH  15  19
ATOM      2  O   UNL     1      -5.842   3.961  25.295  0.00  0.00    -0.276 OA
ATOM      5  N   UNL     1      -4.110   2.741  26.248  0.00  0.00    -0.311 N 
ATOM     19  C   UNL     1      -5.290   2.890  25.535  0.00  0.00    +0.214 C 
ATOM     34  H   UNL     1      -3.725   1.811  26.390  0.00  0.00    +0.149 HD
BRANCH   5  21
ATOM     21  C   UNL     1      -3.376   3.855  26.804  0.00  0.00    +0.141 C 
BRANCH  21  23
ATOM      6  N   UNL     1       0.052   3.505  25.247  0.00  0.00    -0.263 NA
ATOM     23  C   UNL     1      -2.146   4.171  26.005  0.00  0.00    -0.012 A 
ATOM     26  C   UNL     1      -2.033   5.366  25.304  0.00  0.00    +0.008 A 
ATOM     27  C   UNL     1      -1.084   3.282  25.945  0.00  0.00    +0.115 A 
ATOM     31  C   UNL     1      -0.879   5.632  24.575  0.00  0.00    +0.020 A 
ATOM     32  C   UNL     1       0.124   4.678  24.578  0.00  0.00    +0.111 A 
ENDBRANCH  21  23
ENDBRANCH   5  21
ENDBRANCH  15  19
ENDBRANCH  10  15
TORSDOF 8
ENDMDL
MODEL 2
REMARK VINA RESULT:      -3.4      1.981      6.121
REMARK  Name = 38028541
REMARK  11 active torsions:
REMARK  status: ('A' for Active; 'I' for Inactive)
REMARK    1  A    between atoms: N_4  and  C_14
REMARK    2  A    between atoms: N_5  and  C_21
REMARK    3  A    between atoms: C_7  and  C_11
REMARK    4  A    between atoms: C_8  and  C_14
REMARK    5  A    between atoms: C_10  and  C_15
REMARK    6  A    between atoms: C_11  and  C_16
REMARK    7  A    between atoms: C_11  and  C_17
REMARK    8  A    between atoms: C_12  and  C_18
REMARK    9  A    between atoms: C_15  and  C_19
REMARK   10  A    between atoms: C_20  and  C_22
REMARK   11  A    between atoms: C_21  and  C_23
REMARK                            x       y       z     vdW  Elec       q    Type
REMARK                         _______ _______ _______ _____ _____    ______ ____
ROOT
ATOM      7  C   UNL     1      -3.399   3.372  25.553  0.00  0.00    +0.000 C 
ATOM      8  C   UNL     1      -3.536   3.832  24.080  0.00  0.00    +0.032 C 
ATOM      9  C   UNL     1      -2.291   4.165  26.263  0.00  0.00    +0.012 C 
ATOM     10  C   UNL     1      -0.925   4.004  25.572  0.00  0.00    +0.023 C 
ATOM     12  C   UNL     1      -1.028   4.181  24.070  0.00  0.00    -0.073 C 
ATOM     13  C   UNL     1      -2.205   4.113  23.423  0.00  0.00    -0.022 C 
ATOM     18  C   UNL     1       0.248   4.482  23.334  0.00  0.00    +0.039 C 
ENDROOT
BRANCH   7  11
ATOM     11  C   UNL     1      -4.716   3.519  26.320  0.00  0.00    -0.013 C 
ATOM     16  C   UNL     1      -5.405   2.165  26.460  0.00  0.00    +0.007 C 
ATOM     17  C   UNL     1      -5.630   4.521  25.621  0.00  0.00    +0.007 C 
ENDBRANCH   7  11
BRANCH   8  14
ATOM     14  C   UNL     1      -4.309   2.801  23.248  0.00  0.00    +0.112 C 
BRANCH  14   4
ATOM      3  O   UNL     1      -5.653   0.592  24.492  0.00  0.00    -0.270 OA
ATOM      4  N   UNL     1      -3.783   1.488  23.452  0.00  0.00    -0.311 N 
ATOM     20  C   UNL     1      -4.508   0.468  24.068  0.00  0.00    +0.244 C 
ATOM     33  H   UNL     1      -2.876   1.284  23.044  0.00  0.00    +0.149 HD
BRANCH  20  22
ATOM      1  F   UNL     1      -0.640  -2.136  25.447  0.00  0.00    -0.205 F 
ATOM     22  C   UNL     1      -3.810  -0.834  24.228  0.00  0.00    +0.039 A 
ATOM     24  C   UNL     1      -2.527  -0.875  24.773  0.00  0.00    +0.051 A 
ATOM     25  C   UNL     1      -4.439  -2.015  23.834  0.00  0.00    +0.013 A 
ATOM     28  C   UNL     1      -1.872  -2.097  24.924  0.00  0.00    +0.124 A 
ATOM     29  C   UNL     1      -3.783  -3.237  23.985  0.00  0.00    +0.004 A 
ATOM     30  C   UNL     1      -2.500  -3.278  24.530  0.00  0.00    +0.038 A 
ENDBRANCH  20  22
ENDBRANCH  14   4
ENDBRANCH   8  14
BRANCH  10  15
ATOM     15  C   UNL     1      -0.284   2.657  25.922  0.00  0.00    +0.103 C 
BRANCH  15  19
ATOM      2  O   UNL     1      -1.138   1.181  24.206  0.00  0.00    -0.276 OA
ATOM      5  N   UNL     1       1.137   1.646  24.286  0.00  0.00    -0.311 N 
ATOM     19  C   UNL     1      -0.177   1.747  24.718  0.00  0.00    +0.214 C 
ATOM     34  H   UNL     1       1.867   2.149  24.782  0.00  0.00    +0.149 HD
BRANCH   5  21
ATOM     21  C   UNL     1       1.535   0.841  23.154  0.00  0.00    +0.141 C 
BRANCH  21  23
ATOM      6  N   UNL     1       4.372  -1.567  23.825  0.00  0.00    -0.263 NA
ATOM     23  C   UNL     1       2.927   0.303  23.310  0.00  0.00    -0.012 A 
ATOM     26  C   UNL     1       4.037   1.113  23.106  0.00  0.00    +0.008 A 
ATOM     27  C   UNL     1       3.146  -1.019  23.666  0.00  0.00    +0.115 A 
ATOM     31  C   UNL     1       5.315   0.586  23.260  0.00  0.00    +0.020 A 
ATOM     32  C   UNL     1       5.427  -0.747  23.617  0.00  0.00    +0.111 A 
ENDBRANCH  21  23
ENDBRANCH   5  21
ENDBRANCH  15  19
ENDBRANCH  10  15
TORSDOF 8
ENDMDL
MODEL 3
REMARK VINA RESULT:      -3.2      1.550      3.146
REMARK  Name = 38028541
REMARK  11 active torsions:
REMARK  status: ('A' for Active; 'I' for Inactive)
REMARK    1  A    between atoms: N_4  and  C_14
REMARK    2  A    between atoms: N_5  and  C_21
REMARK    3  A    between atoms: C_7  and  C_11
REMARK    4  A    between atoms: C_8  and  C_14
REMARK    5  A    between atoms: C_10  and  C_15
REMARK    6  A    between atoms: C_11  and  C_16
REMARK    7  A    between atoms: C_11  and  C_17
REMARK    8  A    between atoms: C_12  and  C_18
REMARK    9  A    between atoms: C_15  and  C_19
REMARK   10  A    between atoms: C_20  and  C_22
REMARK   11  A    between atoms: C_21  and  C_23
REMARK                            x       y       z     vdW  Elec       q    Type
REMARK                         _______ _______ _______ _____ _____    ______ ____
ROOT
ATOM      7  C   UNL     1      -1.932   0.481  24.877  0.00  0.00    +0.000 C 
ATOM      8  C   UNL     1      -1.039  -0.737  24.537  0.00  0.00    +0.032 C 
ATOM      9  C   UNL     1      -3.014   0.087  25.894  0.00  0.00    +0.012 C 
ATOM     10  C   UNL     1      -3.915  -1.049  25.375  0.00  0.00    +0.023 C 
ATOM     12  C   UNL     1      -3.105  -2.181  24.775  0.00  0.00    -0.073 C 
ATOM     13  C   UNL     1      -1.818  -2.027  24.418  0.00  0.00    -0.022 C 
ATOM     18  C   UNL     1      -3.797  -3.508  24.635  0.00  0.00    +0.039 C 
ENDROOT
BRANCH   7  11
ATOM     11  C   UNL     1      -1.111   1.654  25.421  0.00  0.00    -0.013 C 
ATOM     16  C   UNL     1      -0.285   2.288  24.306  0.00  0.00    +0.007 C 
ATOM     17  C   UNL     1      -0.212   1.190  26.564  0.00  0.00    +0.007 C 
ENDBRANCH   7  11
BRANCH   8  14
ATOM     14  C   UNL     1      -0.246  -0.499  23.246  0.00  0.00    +0.112 C 
BRANCH  14   4
ATOM      3  O   UNL     1       1.867  -0.232  21.323  0.00  0.00    -0.270 OA
ATOM      4  N   UNL     1       1.149  -0.366  23.525  0.00  0.00    -0.311 N 
ATOM     20  C   UNL     1       2.114  -0.240  22.526  0.00  0.00    +0.244 C 
ATOM     33  H   UNL     1       1.420  -0.271  24.499  0.00  0.00    +0.149 HD
BRANCH  20  22
ATOM      1  F   UNL     1       6.090  -2.208  24.515  0.00  0.00    -0.205 F 
ATOM     22  C   UNL     1       3.524  -0.137  22.979  0.00  0.00    +0.039 A 
ATOM     24  C   UNL     1       4.158  -1.243  23.546  0.00  0.00    +0.051 A 
ATOM     25  C   UNL     1       4.216   1.066  22.837  0.00  0.00    +0.013 A 
ATOM     28  C   UNL     1       5.482  -1.146  23.971  0.00  0.00    +0.124 A 
ATOM     29  C   UNL     1       5.541   1.163  23.263  0.00  0.00    +0.004 A 
ATOM     30  C   UNL     1       6.174   0.057  23.830  0.00  0.00    +0.038 A 
ENDBRANCH  20  22
ENDBRANCH  14   4
ENDBRANCH   8  14
BRANCH  10  15
ATOM     15  C   UNL     1      -4.947  -0.521  24.373  0.00  0.00    +0.103 C 
BRANCH  15  19
ATOM      2  O   UNL     1      -4.282   1.577  23.367  0.00  0.00    -0.276 OA
ATOM      5  N   UNL     1      -5.642   1.591  25.251  0.00  0.00    -0.311 N 
ATOM     19  C   UNL     1      -4.901   0.985  24.248  0.00  0.00    +0.214 C 
ATOM     34  H   UNL     1      -6.115   1.014  25.942  0.00  0.00    +0.149 HD
BRANCH   5  21
ATOM     21  C   UNL     1      -5.774   3.024  25.380  0.00  0.00    +0.141 C 
BRANCH  21  23
ATOM      6  N   UNL     1      -2.710   4.894  24.190  0.00  0.00    -0.263 NA
ATOM     23  C   UNL     1      -4.440   3.711  25.397  0.00  0.00    -0.012 A 
ATOM     26  C   UNL     1      -3.701   3.813  26.570  0.00  0.00    +0.008 A 
ATOM     27  C   UNL     1      -3.905   4.263  24.245  0.00  0.00    +0.115 A 
ATOM     31  C   UNL     1      -2.467   4.454  26.555  0.00  0.00    +0.020 A 
ATOM     32  C   UNL     1      -2.021   4.973  25.351  0.00  0.00    +0.111 A 
ENDBRANCH  21  23
ENDBRANCH   5  21
ENDBRANCH  15  19
ENDBRANCH  10  15
TORSDOF 8
ENDMDL
MODEL 4
REMARK VINA RESULT:      -3.1      1.844      4.341
REMARK  Name = 38028541
REMARK  11 active torsions:
REMARK  status: ('A' for Active; 'I' for Inactive)
REMARK    1  A    between atoms: N_4  and  C_14
REMARK    2  A    between atoms: N_5  and  C_21
REMARK    3  A    between atoms: C_7  and  C_11
REMARK    4  A    between atoms: C_8  and  C_14
REMARK    5  A    between atoms: C_10  and  C_15
REMARK    6  A    between atoms: C_11  and  C_16
REMARK    7  A    between atoms: C_11  and  C_17
REMARK    8  A    between atoms: C_12  and  C_18
REMARK    9  A    between atoms: C_15  and  C_19
REMARK   10  A    between atoms: C_20  and  C_22
REMARK   11  A    between atoms: C_21  and  C_23
REMARK                            x       y       z     vdW  Elec       q    Type
REMARK                         _______ _______ _______ _____ _____    ______ ____
ROOT
ATOM      7  C   UNL     1      -2.900   2.033  24.225  0.00  0.00    +0.000 C 
ATOM      8  C   UNL     1      -1.909   2.151  23.041  0.00  0.00    +0.032 C 
ATOM      9  C   UNL     1      -3.191   3.419  24.821  0.00  0.00    +0.012 C 
ATOM     10  C   UNL     1      -1.914   4.118  25.321  0.00  0.00    +0.023 C 
ATOM     12  C   UNL     1      -0.794   4.042  24.303  0.00  0.00    -0.073 C 
ATOM     13  C   UNL     1      -0.815   3.164  23.284  0.00  0.00    -0.022 C 
ATOM     18  C   UNL     1       0.332   5.026  24.458  0.00  0.00    +0.039 C 
ENDROOT
BRANCH   7  11
ATOM     11  C   UNL     1      -4.211   1.363  23.805  0.00  0.00    -0.013 C 
ATOM     16  C   UNL     1      -5.217   1.396  24.952  0.00  0.00    +0.007 C 
ATOM     17  C   UNL     1      -3.954  -0.071  23.351  0.00  0.00    +0.007 C 
ENDBRANCH   7  11
BRANCH   8  14
ATOM     14  C   UNL     1      -1.281   0.792  22.709  0.00  0.00    +0.112 C 
BRANCH  14   4
ATOM      3  O   UNL     1       0.740  -0.773  21.404  0.00  0.00    -0.270 OA
ATOM      4  N   UNL     1       0.119   0.796  22.995  0.00  0.00    -0.311 N 
ATOM     20  C   UNL     1       1.037   0.001  22.310  0.00  0.00    +0.244 C 
ATOM     33  H   UNL     1       0.452   1.480  23.669  0.00  0.00    +0.149 HD
BRANCH  20  22
ATOM      1  F   UNL     1       5.041  -1.981  24.226  0.00  0.00    -0.205 F 
ATOM     22  C   UNL     1       2.453   0.102  22.745  0.00  0.00    +0.039 A 
ATOM     24  C   UNL     1       3.095  -1.009  23.292  0.00  0.00    +0.051 A 
ATOM     25  C   UNL     1       3.142   1.307  22.606  0.00  0.00    +0.013 A 
ATOM     28  C   UNL     1       4.426  -0.915  23.701  0.00  0.00    +0.124 A 
ATOM     29  C   UNL     1       4.472   1.401  23.015  0.00  0.00    +0.004 A 
ATOM     30  C   UNL     1       5.114   0.290  23.563  0.00  0.00    +0.038 A 
ENDBRANCH  20  22
ENDBRANCH  14   4
ENDBRANCH   8  14
BRANCH  10  15
ATOM     15  C   UNL     1      -1.467   3.552  26.673  0.00  0.00    +0.103 C 
BRANCH  15  19
ATOM      2  O   UNL     1       0.710   2.507  26.520  0.00  0.00    -0.276 OA
ATOM      5  N   UNL     1      -1.202   1.196  26.364  0.00  0.00    -0.311 N 
ATOM     19  C   UNL     1      -0.512   2.390  26.515  0.00  0.00    +0.214 C 
ATOM     34  H   UNL     1      -2.218   1.201  26.364  0.00  0.00    +0.149 HD
BRANCH   5  21
ATOM     21  C   UNL     1      -0.544  -0.079  26.191  0.00  0.00    +0.141 C 
BRANCH  21  23
ATOM      6  N   UNL     1      -1.866  -2.984  24.164  0.00  0.00    -0.263 NA
ATOM     23  C   UNL     1      -1.480  -1.127  25.663  0.00  0.00    -0.012 A 
ATOM     26  C   UNL     1      -2.782  -1.232  26.140  0.00  0.00    +0.008 A 
ATOM     27  C   UNL     1      -1.075  -2.019  24.684  0.00  0.00    +0.115 A 
ATOM     31  C   UNL     1      -3.626  -2.212  25.631  0.00  0.00    +0.020 A 
ATOM     32  C   UNL     1      -3.125  -3.055  24.653  0.00  0.00    +0.111 A 
ENDBRANCH  21  23
ENDBRANCH   5  21
ENDBRANCH  15  19
ENDBRANCH  10  15
TORSDOF 8
ENDMDL
MODEL 5
REMARK VINA RESULT:      -2.7      1.435      4.068
REMARK  Name = 38028541
REMARK  11 active torsions:
REMARK  status: ('A' for Active; 'I' for Inactive)
REMARK    1  A    between atoms: N_4  and  C_14
REMARK    2  A    between atoms: N_5  and  C_21
REMARK    3  A    between atoms: C_7  and  C_11
REMARK    4  A    between atoms: C_8  and  C_14
REMARK    5  A    between atoms: C_10  and  C_15
REMARK    6  A    between atoms: C_11  and  C_16
REMARK    7  A    between atoms: C_11  and  C_17
REMARK    8  A    between atoms: C_12  and  C_18
REMARK    9  A    between atoms: C_15  and  C_19
REMARK   10  A    between atoms: C_20  and  C_22
REMARK   11  A    between atoms: C_21  and  C_23
REMARK                            x       y       z     vdW  Elec       q    Type
REMARK                         _______ _______ _______ _____ _____    ______ ____
ROOT
ATOM      7  C   UNL     1      -2.881   2.695  23.457  0.00  0.00    +0.000 C 
ATOM      8  C   UNL     1      -1.511   2.485  24.148  0.00  0.00    +0.032 C 
ATOM      9  C   UNL     1      -3.516   4.017  23.916  0.00  0.00    +0.012 C 
ATOM     10  C   UNL     1      -3.726   4.063  25.441  0.00  0.00    +0.023 C 
ATOM     12  C   UNL     1      -2.492   3.609  26.194  0.00  0.00    -0.073 C 
ATOM     13  C   UNL     1      -1.507   2.915  25.596  0.00  0.00    -0.022 C 
ATOM     18  C   UNL     1      -2.396   4.007  27.640  0.00  0.00    +0.039 C 
ENDROOT
BRANCH   7  11
ATOM     11  C   UNL     1      -2.756   2.682  21.931  0.00  0.00    -0.013 C 
ATOM     16  C   UNL     1      -3.978   3.334  21.291  0.00  0.00    +0.007 C 
ATOM     17  C   UNL     1      -2.577   1.254  21.423  0.00  0.00    +0.007 C 
ENDBRANCH   7  11
BRANCH   8  14
ATOM     14  C   UNL     1      -1.061   1.022  24.048  0.00  0.00    +0.112 C 
BRANCH  14   4
ATOM      3  O   UNL     1       0.471  -0.625  22.265  0.00  0.00    -0.270 OA
ATOM      4  N   UNL     1       0.364   0.934  23.980  0.00  0.00    -0.311 N 
ATOM     20  C   UNL     1       1.031   0.104  23.079  0.00  0.00    +0.244 C 
ATOM     33  H   UNL     1       0.896   1.577  24.559  0.00  0.00    +0.149 HD
BRANCH  20  22
ATOM      1  F   UNL     1       5.234  -2.102  24.132  0.00  0.00    -0.205 F 
ATOM     22  C   UNL     1       2.514   0.106  23.152  0.00  0.00    +0.039 A 
ATOM     24  C   UNL     1       3.192  -1.021  23.617  0.00  0.00    +0.051 A 
ATOM     25  C   UNL     1       3.231   1.236  22.756  0.00  0.00    +0.013 A 
ATOM     28  C   UNL     1       4.585  -1.019  23.685  0.00  0.00    +0.124 A 
ATOM     29  C   UNL     1       4.624   1.238  22.825  0.00  0.00    +0.004 A 
ATOM     30  C   UNL     1       5.301   0.110  23.289  0.00  0.00    +0.038 A 
ENDBRANCH  20  22
ENDBRANCH  14   4
ENDBRANCH   8  14
BRANCH  10  15
ATOM     15  C   UNL     1      -4.954   3.246  25.855  0.00  0.00    +0.103 C 
BRANCH  15  19
ATOM      2  O   UNL     1      -5.788   2.095  23.897  0.00  0.00    -0.276 OA
ATOM      5  N   UNL     1      -4.581   0.913  25.491  0.00  0.00    -0.311 N 
ATOM     19  C   UNL     1      -5.170   2.049  24.956  0.00  0.00    +0.214 C 
ATOM     34  H   UNL     1      -4.095   0.972  26.382  0.00  0.00    +0.149 HD
BRANCH   5  21
ATOM     21  C   UNL     1      -4.630  -0.380  24.847  0.00  0.00    +0.141 C 
BRANCH  21  23
ATOM      6  N   UNL     1      -1.165  -1.336  26.017  0.00  0.00    -0.263 NA
ATOM     23  C   UNL     1      -3.324  -1.111  24.953  0.00  0.00    -0.012 A 
ATOM     26  C   UNL     1      -3.041  -2.196  24.133  0.00  0.00    +0.008 A 
ATOM     27  C   UNL     1      -2.361  -0.724  25.871  0.00  0.00    +0.115 A 
ATOM     31  C   UNL     1      -1.821  -2.853  24.253  0.00  0.00    +0.020 A 
ATOM     32  C   UNL     1      -0.926  -2.388  25.201  0.00  0.00    +0.111 A 
ENDBRANCH  21  23
ENDBRANCH   5  21
ENDBRANCH  15  19
ENDBRANCH  10  15
TORSDOF 8
ENDMDL
MODEL 6
REMARK VINA RESULT:      -2.4      1.439      4.189
REMARK  Name = 38028541
REMARK  11 active torsions:
REMARK  status: ('A' for Active; 'I' for Inactive)
REMARK    1  A    between atoms: N_4  and  C_14
REMARK    2  A    between atoms: N_5  and  C_21
REMARK    3  A    between atoms: C_7  and  C_11
REMARK    4  A    between atoms: C_8  and  C_14
REMARK    5  A    between atoms: C_10  and  C_15
REMARK    6  A    between atoms: C_11  and  C_16
REMARK    7  A    between atoms: C_11  and  C_17
REMARK    8  A    between atoms: C_12  and  C_18
REMARK    9  A    between atoms: C_15  and  C_19
REMARK   10  A    between atoms: C_20  and  C_22
REMARK   11  A    between atoms: C_21  and  C_23
REMARK                            x       y       z     vdW  Elec       q    Type
REMARK                         _______ _______ _______ _____ _____    ______ ____
ROOT
ATOM      7  C   UNL     1      -2.601   2.486  23.398  0.00  0.00    +0.000 C 
ATOM      8  C   UNL     1      -1.072   2.254  23.313  0.00  0.00    +0.032 C 
ATOM      9  C   UNL     1      -2.907   3.978  23.603  0.00  0.00    +0.012 C 
ATOM     10  C   UNL     1      -2.257   4.535  24.882  0.00  0.00    +0.023 C 
ATOM     12  C   UNL     1      -0.804   4.120  25.003  0.00  0.00    -0.073 C 
ATOM     13  C   UNL     1      -0.290   3.107  24.285  0.00  0.00    -0.022 C 
ATOM     18  C   UNL     1       0.055   4.925  25.938  0.00  0.00    +0.039 C 
ENDROOT
BRANCH   7  11
ATOM     11  C   UNL     1      -3.324   1.974  22.149  0.00  0.00    -0.013 C 
ATOM     16  C   UNL     1      -2.318   1.449  21.130  0.00  0.00    +0.007 C 
ATOM     17  C   UNL     1      -4.184   3.079  21.541  0.00  0.00    +0.007 C 
ENDBRANCH   7  11
BRANCH   8  14
ATOM     14  C   UNL     1      -0.723   0.777  23.534  0.00  0.00    +0.112 C 
BRANCH  14   4
ATOM      3  O   UNL     1       1.112  -0.297  21.607  0.00  0.00    -0.270 OA
ATOM      4  N   UNL     1       0.686   0.608  23.700  0.00  0.00    -0.311 N 
ATOM     20  C   UNL     1       1.509   0.076  22.708  0.00  0.00    +0.244 C 
ATOM     33  H   UNL     1       1.100   0.980  24.550  0.00  0.00    +0.149 HD
BRANCH  20  22
ATOM      1  F   UNL     1       5.279  -2.583  24.243  0.00  0.00    -0.205 F 
ATOM     22  C   UNL     1       2.949  -0.059  23.046  0.00  0.00    +0.039 A 
ATOM     24  C   UNL     1       3.448  -1.282  23.495  0.00  0.00    +0.051 A 
ATOM     25  C   UNL     1       3.802   1.036  22.914  0.00  0.00    +0.013 A 
ATOM     28  C   UNL     1       4.800  -1.409  23.812  0.00  0.00    +0.124 A 
ATOM     29  C   UNL     1       5.154   0.909  23.232  0.00  0.00    +0.004 A 
ATOM     30  C   UNL     1       5.654  -0.313  23.681  0.00  0.00    +0.038 A 
ENDBRANCH  20  22
ENDBRANCH  14   4
ENDBRANCH   8  14
BRANCH  10  15
ATOM     15  C   UNL     1      -3.050   4.127  26.128  0.00  0.00    +0.103 C 
BRANCH  15  19
ATOM      2  O   UNL     1      -5.387   3.761  25.618  0.00  0.00    -0.276 OA
ATOM      5  N   UNL     1      -3.932   1.950  25.682  0.00  0.00    -0.311 N 
ATOM     19  C   UNL     1      -4.263   3.294  25.783  0.00  0.00    +0.214 C 
ATOM     34  H   UNL     1      -2.972   1.658  25.844  0.00  0.00    +0.149 HD
BRANCH   5  21
ATOM     21  C   UNL     1      -4.895   0.921  25.364  0.00  0.00    +0.141 C 
BRANCH  21  23
ATOM      6  N   UNL     1      -2.567  -2.047  25.619  0.00  0.00    -0.263 NA
ATOM     23  C   UNL     1      -4.235  -0.390  25.054  0.00  0.00    -0.012 A 
ATOM     26  C   UNL     1      -4.635  -1.154  23.964  0.00  0.00    +0.008 A 
ATOM     27  C   UNL     1      -3.205  -0.876  25.843  0.00  0.00    +0.115 A 
ATOM     31  C   UNL     1      -4.003  -2.364  23.700  0.00  0.00    +0.020 A 
ATOM     32  C   UNL     1      -2.984  -2.762  24.550  0.00  0.00    +0.111 A 
ENDBRANCH  21  23
ENDBRANCH   5  21
ENDBRANCH  15  19
ENDBRANCH  10  15
TORSDOF 8
ENDMDL
MODEL 7
REMARK VINA RESULT:      -2.0      2.546      6.680
REMARK  Name = 38028541
REMARK  11 active torsions:
REMARK  status: ('A' for Active; 'I' for Inactive)
REMARK    1  A    between atoms: N_4  and  C_14
REMARK    2  A    between atoms: N_5  and  C_21
REMARK    3  A    between atoms: C_7  and  C_11
REMARK    4  A    between atoms: C_8  and  C_14
REMARK    5  A    between atoms: C_10  and  C_15
REMARK    6  A    between atoms: C_11  and  C_16
REMARK    7  A    between atoms: C_11  and  C_17
REMARK    8  A    between atoms: C_12  and  C_18
REMARK    9  A    between atoms: C_15  and  C_19
REMARK   10  A    between atoms: C_20  and  C_22
REMARK   11  A    between atoms: C_21  and  C_23
REMARK                            x       y       z     vdW  Elec       q    Type
REMARK                         _______ _______ _______ _____ _____    ______ ____
ROOT
ATOM      7  C   UNL     1      -2.988   3.606  25.382  0.00  0.00    +0.000 C 
ATOM      8  C   UNL     1      -3.973   3.303  24.225  0.00  0.00    +0.032 C 
ATOM      9  C   UNL     1      -1.611   3.997  24.825  0.00  0.00    +0.012 C 
ATOM     10  C   UNL     1      -1.003   2.891  23.944  0.00  0.00    +0.023 C 
ATOM     12  C   UNL     1      -2.007   2.351  22.945  0.00  0.00    -0.073 C 
ATOM     13  C   UNL     1      -3.329   2.555  23.081  0.00  0.00    -0.022 C 
ATOM     18  C   UNL     1      -1.453   1.606  21.763  0.00  0.00    +0.039 C 
ENDROOT
BRANCH   7  11
ATOM     11  C   UNL     1      -3.512   4.715  26.299  0.00  0.00    -0.013 C 
ATOM     16  C   UNL     1      -3.439   4.276  27.759  0.00  0.00    +0.007 C 
ATOM     17  C   UNL     1      -4.940   5.091  25.918  0.00  0.00    +0.007 C 
ENDBRANCH   7  11
BRANCH   8  14
ATOM     14  C   UNL     1      -5.191   2.518  24.727  0.00  0.00    +0.112 C 
BRANCH  14   4
ATOM      3  O   UNL     1      -3.145   0.947  25.985  0.00  0.00    -0.270 OA
ATOM      4  N   UNL     1      -4.984   1.112  24.580  0.00  0.00    -0.311 N 
ATOM     20  C   UNL     1      -3.961   0.423  25.231  0.00  0.00    +0.244 C 
ATOM     33  H   UNL     1      -5.676   0.595  24.046  0.00  0.00    +0.149 HD
BRANCH  20  22
ATOM      1  F   UNL     1      -4.906  -3.438  22.432  0.00  0.00    -0.205 F 
ATOM     22  C   UNL     1      -3.863  -1.033  24.953  0.00  0.00    +0.039 A 
ATOM     24  C   UNL     1      -4.442  -1.563  23.800  0.00  0.00    +0.051 A 
ATOM     25  C   UNL     1      -3.192  -1.870  25.845  0.00  0.00    +0.013 A 
ATOM     28  C   UNL     1      -4.350  -2.930  23.538  0.00  0.00    +0.124 A 
ATOM     29  C   UNL     1      -3.101  -3.237  25.583  0.00  0.00    +0.004 A 
ATOM     30  C   UNL     1      -3.680  -3.767  24.431  0.00  0.00    +0.038 A 
ENDBRANCH  20  22
ENDBRANCH  14   4
ENDBRANCH   8  14
BRANCH  10  15
ATOM     15  C   UNL     1      -0.417   1.762  24.798  0.00  0.00    +0.103 C 
BRANCH  15  19
ATOM      2  O   UNL     1      -0.247  -0.474  23.891  0.00  0.00    -0.276 OA
ATOM      5  N   UNL     1       1.312   1.133  23.272  0.00  0.00    -0.311 N 
ATOM     19  C   UNL     1       0.197   0.669  23.953  0.00  0.00    +0.214 C 
ATOM     34  H   UNL     1       1.608   2.097  23.394  0.00  0.00    +0.149 HD
BRANCH   5  21
ATOM     21  C   UNL     1       2.100   0.303  22.390  0.00  0.00    +0.141 C 
BRANCH  21  23
ATOM      6  N   UNL     1       4.841  -1.681  24.076  0.00  0.00    -0.263 NA
ATOM     23  C   UNL     1       3.432  -0.046  22.987  0.00  0.00    -0.012 A 
ATOM     26  C   UNL     1       4.467   0.881  23.023  0.00  0.00    +0.008 A 
ATOM     27  C   UNL     1       3.668  -1.302  23.522  0.00  0.00    +0.115 A 
ATOM     31  C   UNL     1       5.689   0.529  23.584  0.00  0.00    +0.020 A 
ATOM     32  C   UNL     1       5.824  -0.752  24.093  0.00  0.00    +0.111 A 
ENDBRANCH  21  23
ENDBRANCH   5  21
ENDBRANCH  15  19
ENDBRANCH  10  15
TORSDOF 8
ENDMDL
MODEL 8
REMARK VINA RESULT:      -0.9      1.865      4.092
REMARK  Name = 38028541
REMARK  11 active torsions:
REMARK  status: ('A' for Active; 'I' for Inactive)
REMARK    1  A    between atoms: N_4  and  C_14
REMARK    2  A    between atoms: N_5  and  C_21
REMARK    3  A    between atoms: C_7  and  C_11
REMARK    4  A    between atoms: C_8  and  C_14
REMARK    5  A    between atoms: C_10  and  C_15
REMARK    6  A    between atoms: C_11  and  C_16
REMARK    7  A    between atoms: C_11  and  C_17
REMARK    8  A    between atoms: C_12  and  C_18
REMARK    9  A    between atoms: C_15  and  C_19
REMARK   10  A    between atoms: C_20  and  C_22
REMARK   11  A    between atoms: C_21  and  C_23
REMARK                            x       y       z     vdW  Elec       q    Type
REMARK                         _______ _______ _______ _____ _____    ______ ____
ROOT
ATOM      7  C   UNL     1      -3.370   2.162  23.824  0.00  0.00    +0.000 C 
ATOM      8  C   UNL     1      -2.671   3.145  24.796  0.00  0.00    +0.032 C 
ATOM      9  C   UNL     1      -4.581   2.835  23.159  0.00  0.00    +0.012 C 
ATOM     10  C   UNL     1      -5.616   3.322  24.190  0.00  0.00    +0.023 C 
ATOM     12  C   UNL     1      -4.963   4.078  25.330  0.00  0.00    -0.073 C 
ATOM     13  C   UNL     1      -3.644   3.996  25.578  0.00  0.00    -0.022 C 
ATOM     18  C   UNL     1      -5.856   4.965  26.153  0.00  0.00    +0.039 C 
ENDROOT
BRANCH   7  11
ATOM     11  C   UNL     1      -2.409   1.644  22.751  0.00  0.00    -0.013 C 
ATOM     16  C   UNL     1      -2.504   2.502  21.493  0.00  0.00    +0.007 C 
ATOM     17  C   UNL     1      -2.705   0.182  22.432  0.00  0.00    +0.007 C 
ENDBRANCH   7  11
BRANCH   8  14
ATOM     14  C   UNL     1      -1.749   2.399  25.769  0.00  0.00    +0.112 C 
BRANCH  14   4
ATOM      3  O   UNL     1       0.324   3.482  24.105  0.00  0.00    -0.270 OA
ATOM      4  N   UNL     1      -0.753   1.662  25.059  0.00  0.00    -0.311 N 
ATOM     20  C   UNL     1       0.223   2.269  24.270  0.00  0.00    +0.244 C 
ATOM     33  H   UNL     1      -0.715   0.660  25.220  0.00  0.00    +0.149 HD
BRANCH  20  22
ATOM      1  F   UNL     1       4.740   1.062  22.934  0.00  0.00    -0.205 F 
ATOM     22  C   UNL     1       1.172   1.361  23.575  0.00  0.00    +0.039 A 
ATOM     24  C   UNL     1       2.538   1.643  23.581  0.00  0.00    +0.051 A 
ATOM     25  C   UNL     1       0.697   0.226  22.918  0.00  0.00    +0.013 A 
ATOM     28  C   UNL     1       3.429   0.791  22.929  0.00  0.00    +0.124 A 
ATOM     29  C   UNL     1       1.588  -0.626  22.266  0.00  0.00    +0.004 A 
ATOM     30  C   UNL     1       2.954  -0.344  22.271  0.00  0.00    +0.038 A 
ENDBRANCH  20  22
ENDBRANCH  14   4
ENDBRANCH   8  14
BRANCH  10  15
ATOM     15  C   UNL     1      -6.461   2.157  24.716  0.00  0.00    +0.103 C 
BRANCH  15  19
ATOM      2  O   UNL     1      -6.038   1.780  27.068  0.00  0.00    -0.276 OA
ATOM      5  N   UNL     1      -4.947   0.475  25.486  0.00  0.00    -0.311 N 
ATOM     19  C   UNL     1      -5.814   1.475  25.900  0.00  0.00    +0.214 C 
ATOM     34  H   UNL     1      -4.822   0.301  24.492  0.00  0.00    +0.149 HD
BRANCH   5  21
ATOM     21  C   UNL     1      -4.189  -0.343  26.404  0.00  0.00    +0.141 C 
BRANCH  21  23
ATOM      6  N   UNL     1      -0.839  -1.661  25.246  0.00  0.00    -0.263 NA
ATOM     23  C   UNL     1      -3.167  -1.183  25.696  0.00  0.00    -0.012 A 
ATOM     26  C   UNL     1      -3.550  -2.224  24.858  0.00  0.00    +0.008 A 
ATOM     27  C   UNL     1      -1.811  -0.945  25.855  0.00  0.00    +0.115 A 
ATOM     31  C   UNL     1      -2.579  -2.984  24.214  0.00  0.00    +0.020 A 
ATOM     32  C   UNL     1      -1.251  -2.665  24.439  0.00  0.00    +0.111 A 
ENDBRANCH  21  23
ENDBRANCH   5  21
ENDBRANCH  15  19
ENDBRANCH  10  15
TORSDOF 8
ENDMDL
MODEL 9
REMARK VINA RESULT:      -0.7      3.130      6.927
REMARK  Name = 38028541
REMARK  11 active torsions:
REMARK  status: ('A' for Active; 'I' for Inactive)
REMARK    1  A    between atoms: N_4  and  C_14
REMARK    2  A    between atoms: N_5  and  C_21
REMARK    3  A    between atoms: C_7  and  C_11
REMARK    4  A    between atoms: C_8  and  C_14
REMARK    5  A    between atoms: C_10  and  C_15
REMARK    6  A    between atoms: C_11  and  C_16
REMARK    7  A    between atoms: C_11  and  C_17
REMARK    8  A    between atoms: C_12  and  C_18
REMARK    9  A    between atoms: C_15  and  C_19
REMARK   10  A    between atoms: C_20  and  C_22
REMARK   11  A    between atoms: C_21  and  C_23
REMARK                            x       y       z     vdW  Elec       q    Type
REMARK                         _______ _______ _______ _____ _____    ______ ____
ROOT
ATOM      7  C   UNL     1      -2.352  -1.979  24.498  0.00  0.00    +0.000 C 
ATOM      8  C   UNL     1      -2.870  -1.409  25.842  0.00  0.00    +0.032 C 
ATOM      9  C   UNL     1      -0.816  -1.976  24.469  0.00  0.00    +0.012 C 
ATOM     10  C   UNL     1      -0.233  -0.564  24.657  0.00  0.00    +0.023 C 
ATOM     12  C   UNL     1      -0.889   0.168  25.811  0.00  0.00    -0.073 C 
ATOM     13  C   UNL     1      -2.061  -0.231  26.335  0.00  0.00    -0.022 C 
ATOM     18  C   UNL     1      -0.146   1.346  26.378  0.00  0.00    +0.039 C 
ENDROOT
BRANCH   7  11
ATOM     11  C   UNL     1      -2.874  -3.396  24.242  0.00  0.00    -0.013 C 
ATOM     16  C   UNL     1      -1.980  -4.118  23.238  0.00  0.00    +0.007 C 
ATOM     17  C   UNL     1      -4.317  -3.351  23.749  0.00  0.00    +0.007 C 
ENDBRANCH   7  11
BRANCH   8  14
ATOM     14  C   UNL     1      -4.346  -1.008  25.741  0.00  0.00    +0.112 C 
BRANCH  14   4
ATOM      3  O   UNL     1      -3.792   0.536  23.385  0.00  0.00    -0.270 OA
ATOM      4  N   UNL     1      -4.479   0.408  25.598  0.00  0.00    -0.311 N 
ATOM     20  C   UNL     1      -4.188   1.081  24.412  0.00  0.00    +0.244 C 
ATOM     33  H   UNL     1      -4.890   0.915  26.375  0.00  0.00    +0.149 HD
BRANCH  20  22
ATOM      1  F   UNL     1      -6.571   5.069  25.849  0.00  0.00    -0.205 F 
ATOM     22  C   UNL     1      -4.352   2.557  24.433  0.00  0.00    +0.039 A 
ATOM     24  C   UNL     1      -5.405   3.132  25.145  0.00  0.00    +0.051 A 
ATOM     25  C   UNL     1      -3.453   3.370  23.741  0.00  0.00    +0.013 A 
ATOM     28  C   UNL     1      -5.560   4.518  25.166  0.00  0.00    +0.124 A 
ATOM     29  C   UNL     1      -3.608   4.756  23.761  0.00  0.00    +0.004 A 
ATOM     30  C   UNL     1      -4.661   5.330  24.473  0.00  0.00    +0.038 A 
ENDBRANCH  20  22
ENDBRANCH  14   4
ENDBRANCH   8  14
BRANCH  10  15
ATOM     15  C   UNL     1      -0.330   0.252  23.364  0.00  0.00    +0.103 C 
BRANCH  15  19
ATOM      2  O   UNL     1       1.192  -0.399  21.599  0.00  0.00    -0.276 OA
ATOM      5  N   UNL     1       1.884   1.140  23.197  0.00  0.00    -0.311 N 
ATOM     19  C   UNL     1       0.978   0.272  22.605  0.00  0.00    +0.214 C 
ATOM     34  H   UNL     1       1.616   1.647  24.035  0.00  0.00    +0.149 HD
BRANCH   5  21
ATOM     21  C   UNL     1       3.217   1.358  22.685  0.00  0.00    +0.141 C 
BRANCH  21  23
ATOM      6  N   UNL     1       4.646  -1.898  23.971  0.00  0.00    -0.263 NA
ATOM     23  C   UNL     1       4.197   0.358  23.225  0.00  0.00    -0.012 A 
ATOM     26  C   UNL     1       5.516   0.713  23.484  0.00  0.00    +0.008 A 
ATOM     27  C   UNL     1       3.816  -0.949  23.484  0.00  0.00    +0.115 A 
ATOM     31  C   UNL     1       6.400  -0.235  23.985  0.00  0.00    +0.020 A 
ATOM     32  C   UNL     1       5.920  -1.514  24.210  0.00  0.00    +0.111 A 
ENDBRANCH  21  23
ENDBRANCH   5  21
ENDBRANCH  15  19
ENDBRANCH  10  15
TORSDOF 8
ENDMDL
