MODEL 1
REMARK VINA RESULT:      -4.8      0.000      0.000
REMARK  Name = 56775457
REMARK  9 active torsions:
REMARK  status: ('A' for Active; 'I' for Inactive)
REMARK    1  A    between atoms: N_4  and  C_6
REMARK    2  A    between atoms: N_4  and  C_11
REMARK    3  A    between atoms: C_6  and  C_9
REMARK    4  A    between atoms: C_9  and  C_10
REMARK    5  A    between atoms: C_11  and  C_15
REMARK    6  A    between atoms: C_12  and  C_14
REMARK    7  A    between atoms: C_12  and  C_16
REMARK    8  A    between atoms: C_12  and  C_17
REMARK    9  A    between atoms: C_12  and  C_18
REMARK                            x       y       z     vdW  Elec       q    Type
REMARK                         _______ _______ _______ _____ _____    ______ ____
ROOT
ATOM      2  O   UNL     1      -3.762  -3.666  25.385  0.00  0.00    -0.376 OA
ATOM      6  C   UNL     1      -2.600  -2.156  24.423  0.00  0.00    +0.072 C 
ATOM      7  C   UNL     1      -3.355  -2.323  25.737  0.00  0.00    +0.184 C 
ATOM      8  C   UNL     1      -3.146  -3.539  24.084  0.00  0.00    +0.184 C 
ENDROOT
BRANCH   6   4
ATOM      4  N   UNL     1      -3.290  -1.166  23.608  0.00  0.00    -0.302 NA
ATOM     24  H   UNL     1      -2.684  -0.493  23.141  0.00  0.00    +0.123 HD
BRANCH   4  11
ATOM     11  C   UNL     1      -4.280  -0.462  24.419  0.00  0.00    +0.117 C 
BRANCH  11  15
ATOM      1 CL   UNL     1      -5.916   4.298  25.770  0.00  0.00    -0.084 Cl
ATOM     15  C   UNL     1      -4.217   1.028  24.213  0.00  0.00    -0.032 A 
ATOM     19  C   UNL     1      -5.004   1.874  24.996  0.00  0.00    +0.025 A 
ATOM     20  C   UNL     1      -3.373   1.564  23.240  0.00  0.00    +0.005 A 
ATOM     21  C   UNL     1      -4.945   3.255  24.806  0.00  0.00    +0.041 A 
ATOM     22  C   UNL     1      -3.314   2.944  23.051  0.00  0.00    +0.002 A 
ATOM     23  C   UNL     1      -4.100   3.790  23.833  0.00  0.00    +0.020 A 
ENDBRANCH  11  15
ENDBRANCH   4  11
ENDBRANCH   6   4
BRANCH   6   9
ATOM      9  C   UNL     1      -1.081  -1.945  24.461  0.00  0.00    +0.085 C 
BRANCH   9  10
ATOM      3  O   UNL     1       0.073   1.400  23.983  0.00  0.00    -0.359 OA
ATOM      5  N   UNL     1      -0.069   0.080  23.575  0.00  0.00    -0.083 NA
ATOM     10  C   UNL     1      -0.745  -0.516  24.562  0.00  0.00    +0.086 A 
ATOM     13  C   UNL     1      -1.053   0.370  25.609  0.00  0.00    +0.071 A 
ATOM     14  C   UNL     1      -0.516   1.561  25.196  0.00  0.00    +0.143 A 
BRANCH  14  12
ATOM     12  C   UNL     1      -0.455   2.970  25.808  0.00  0.00    +0.023 C 
ATOM     16  C   UNL     1      -1.787   3.435  26.439  0.00  0.00    +0.019 C 
ATOM     17  C   UNL     1      -0.084   3.996  24.716  0.00  0.00    +0.019 C 
ATOM     18  C   UNL     1       0.614   3.007  26.923  0.00  0.00    +0.019 C 
ENDBRANCH  14  12
ENDBRANCH   9  10
ENDBRANCH   6   9
TORSDOF 6
ENDMDL
MODEL 2
REMARK VINA RESULT:      -4.3      2.275      3.105
REMARK  Name = 56775457
REMARK  9 active torsions:
REMARK  status: ('A' for Active; 'I' for Inactive)
REMARK    1  A    between atoms: N_4  and  C_6
REMARK    2  A    between atoms: N_4  and  C_11
REMARK    3  A    between atoms: C_6  and  C_9
REMARK    4  A    between atoms: C_9  and  C_10
REMARK    5  A    between atoms: C_11  and  C_15
REMARK    6  A    between atoms: C_12  and  C_14
REMARK    7  A    between atoms: C_12  and  C_16
REMARK    8  A    between atoms: C_12  and  C_17
REMARK    9  A    between atoms: C_12  and  C_18
REMARK                            x       y       z     vdW  Elec       q    Type
REMARK                         _______ _______ _______ _____ _____    ______ ____
ROOT
ATOM      2  O   UNL     1      -3.584  -3.024  25.014  0.00  0.00    -0.376 OA
ATOM      6  C   UNL     1      -2.646  -1.114  24.842  0.00  0.00    +0.072 C 
ATOM      7  C   UNL     1      -3.881  -1.701  25.517  0.00  0.00    +0.184 C 
ATOM      8  C   UNL     1      -2.452  -2.516  24.273  0.00  0.00    +0.184 C 
ENDROOT
BRANCH   6   4
ATOM      4  N   UNL     1      -3.073  -0.227  23.770  0.00  0.00    -0.302 NA
ATOM     24  H   UNL     1      -2.465   0.574  23.604  0.00  0.00    +0.123 HD
BRANCH   4  11
ATOM     11  C   UNL     1      -4.437   0.230  24.021  0.00  0.00    +0.117 C 
BRANCH  11  15
ATOM      1 CL   UNL     1      -1.920   4.653  25.143  0.00  0.00    -0.084 Cl
ATOM     15  C   UNL     1      -4.466   1.613  24.616  0.00  0.00    -0.032 A 
ATOM     19  C   UNL     1      -3.314   2.400  24.605  0.00  0.00    +0.025 A 
ATOM     20  C   UNL     1      -5.643   2.107  25.177  0.00  0.00    +0.005 A 
ATOM     21  C   UNL     1      -3.340   3.682  25.155  0.00  0.00    +0.041 A 
ATOM     22  C   UNL     1      -5.669   3.388  25.727  0.00  0.00    +0.002 A 
ATOM     23  C   UNL     1      -4.518   4.176  25.716  0.00  0.00    +0.020 A 
ENDBRANCH  11  15
ENDBRANCH   4  11
ENDBRANCH   6   4
BRANCH   6   9
ATOM      9  C   UNL     1      -1.541  -0.507  25.716  0.00  0.00    +0.085 C 
BRANCH   9  10
ATOM      3  O   UNL     1       0.867   1.391  23.885  0.00  0.00    -0.359 OA
ATOM      5  N   UNL     1      -0.267   1.287  24.681  0.00  0.00    -0.083 NA
ATOM     10  C   UNL     1      -0.419  -0.024  24.895  0.00  0.00    +0.086 A 
ATOM     13  C   UNL     1       0.580  -0.787  24.265  0.00  0.00    +0.071 A 
ATOM     14  C   UNL     1       1.362   0.151  23.644  0.00  0.00    +0.143 A 
BRANCH  14  12
ATOM     12  C   UNL     1       2.627   0.073  22.773  0.00  0.00    +0.023 C 
ATOM     16  C   UNL     1       3.424   1.396  22.709  0.00  0.00    +0.019 C 
ATOM     17  C   UNL     1       2.239  -0.296  21.325  0.00  0.00    +0.019 C 
ATOM     18  C   UNL     1       3.579  -1.007  23.334  0.00  0.00    +0.019 C 
ENDBRANCH  14  12
ENDBRANCH   9  10
ENDBRANCH   6   9
TORSDOF 6
ENDMDL
MODEL 3
REMARK VINA RESULT:      -4.2      2.795      5.557
REMARK  Name = 56775457
REMARK  9 active torsions:
REMARK  status: ('A' for Active; 'I' for Inactive)
REMARK    1  A    between atoms: N_4  and  C_6
REMARK    2  A    between atoms: N_4  and  C_11
REMARK    3  A    between atoms: C_6  and  C_9
REMARK    4  A    between atoms: C_9  and  C_10
REMARK    5  A    between atoms: C_11  and  C_15
REMARK    6  A    between atoms: C_12  and  C_14
REMARK    7  A    between atoms: C_12  and  C_16
REMARK    8  A    between atoms: C_12  and  C_17
REMARK    9  A    between atoms: C_12  and  C_18
REMARK                            x       y       z     vdW  Elec       q    Type
REMARK                         _______ _______ _______ _____ _____    ______ ____
ROOT
ATOM      2  O   UNL     1      -6.581   3.900  25.981  0.00  0.00    -0.376 OA
ATOM      6  C   UNL     1      -4.571   3.766  25.275  0.00  0.00    +0.072 C 
ATOM      7  C   UNL     1      -5.589   2.848  25.942  0.00  0.00    +0.184 C 
ATOM      8  C   UNL     1      -5.634   4.847  25.437  0.00  0.00    +0.184 C 
ENDROOT
BRANCH   6   4
ATOM      4  N   UNL     1      -3.489   4.028  26.214  0.00  0.00    -0.302 NA
ATOM     24  H   UNL     1      -3.723   4.661  26.977  0.00  0.00    +0.123 HD
BRANCH   4  11
ATOM     11  C   UNL     1      -2.321   4.528  25.495  0.00  0.00    +0.117 C 
BRANCH  11  15
ATOM      1 CL   UNL     1      -0.576  -0.284  26.475  0.00  0.00    -0.084 Cl
ATOM     15  C   UNL     1      -1.330   3.433  25.202  0.00  0.00    -0.032 A 
ATOM     19  C   UNL     1      -1.404   2.223  25.893  0.00  0.00    +0.025 A 
ATOM     20  C   UNL     1      -0.339   3.626  24.239  0.00  0.00    +0.005 A 
ATOM     21  C   UNL     1      -0.486   1.207  25.621  0.00  0.00    +0.041 A 
ATOM     22  C   UNL     1       0.577   2.611  23.968  0.00  0.00    +0.002 A 
ATOM     23  C   UNL     1       0.504   1.402  24.658  0.00  0.00    +0.020 A 
ENDBRANCH  11  15
ENDBRANCH   4  11
ENDBRANCH   6   4
BRANCH   6   9
ATOM      9  C   UNL     1      -4.070   3.420  23.867  0.00  0.00    +0.085 C 
BRANCH   9  10
ATOM      3  O   UNL     1      -2.709   0.235  22.997  0.00  0.00    -0.359 OA
ATOM      5  N   UNL     1      -2.872   1.599  22.789  0.00  0.00    -0.083 NA
ATOM     10  C   UNL     1      -3.680   2.004  23.774  0.00  0.00    +0.086 A 
ATOM     13  C   UNL     1      -4.055   0.950  24.625  0.00  0.00    +0.071 A 
ATOM     14  C   UNL     1      -3.418  -0.140  24.092  0.00  0.00    +0.143 A 
BRANCH  14  12
ATOM     12  C   UNL     1      -3.354  -1.628  24.475  0.00  0.00    +0.023 C 
ATOM     16  C   UNL     1      -2.004  -2.302  24.140  0.00  0.00    +0.019 C 
ATOM     17  C   UNL     1      -4.452  -2.407  23.720  0.00  0.00    +0.019 C 
ATOM     18  C   UNL     1      -3.576  -1.783  25.996  0.00  0.00    +0.019 C 
ENDBRANCH  14  12
ENDBRANCH   9  10
ENDBRANCH   6   9
TORSDOF 6
ENDMDL
MODEL 4
REMARK VINA RESULT:      -4.0      1.951      4.088
REMARK  Name = 56775457
REMARK  9 active torsions:
REMARK  status: ('A' for Active; 'I' for Inactive)
REMARK    1  A    between atoms: N_4  and  C_6
REMARK    2  A    between atoms: N_4  and  C_11
REMARK    3  A    between atoms: C_6  and  C_9
REMARK    4  A    between atoms: C_9  and  C_10
REMARK    5  A    between atoms: C_11  and  C_15
REMARK    6  A    between atoms: C_12  and  C_14
REMARK    7  A    between atoms: C_12  and  C_16
REMARK    8  A    between atoms: C_12  and  C_17
REMARK    9  A    between atoms: C_12  and  C_18
REMARK                            x       y       z     vdW  Elec       q    Type
REMARK                         _______ _______ _______ _____ _____    ______ ____
ROOT
ATOM      2  O   UNL     1      -0.841  -2.605  25.153  0.00  0.00    -0.376 OA
ATOM      6  C   UNL     1      -1.054  -0.530  24.699  0.00  0.00    +0.072 C 
ATOM      7  C   UNL     1       0.024  -1.601  24.574  0.00  0.00    +0.184 C 
ATOM      8  C   UNL     1      -1.871  -1.618  25.387  0.00  0.00    +0.184 C 
ENDROOT
BRANCH   6   4
ATOM      4  N   UNL     1      -0.633   0.443  25.697  0.00  0.00    -0.302 NA
ATOM     24  H   UNL     1      -1.390   0.878  26.222  0.00  0.00    +0.123 HD
BRANCH   4  11
ATOM     11  C   UNL     1       0.189   1.473  25.067  0.00  0.00    +0.117 C 
BRANCH  11  15
ATOM      1 CL   UNL     1      -3.408   4.606  27.166  0.00  0.00    -0.084 Cl
ATOM     15  C   UNL     1      -0.470   2.826  25.116  0.00  0.00    -0.032 A 
ATOM     19  C   UNL     1      -1.511   3.061  26.014  0.00  0.00    +0.025 A 
ATOM     20  C   UNL     1      -0.039   3.843  24.265  0.00  0.00    +0.005 A 
ATOM     21  C   UNL     1      -2.122   4.315  26.060  0.00  0.00    +0.041 A 
ATOM     22  C   UNL     1      -0.648   5.096  24.312  0.00  0.00    +0.002 A 
ATOM     23  C   UNL     1      -1.690   5.333  25.209  0.00  0.00    +0.020 A 
ENDBRANCH  11  15
ENDBRANCH   4  11
ENDBRANCH   6   4
BRANCH   6   9
ATOM      9  C   UNL     1      -1.606   0.121  23.425  0.00  0.00    +0.085 C 
BRANCH   9  10
ATOM      3  O   UNL     1      -4.095   2.678  23.560  0.00  0.00    -0.359 OA
ATOM      5  N   UNL     1      -2.940   2.115  23.031  0.00  0.00    -0.083 NA
ATOM     10  C   UNL     1      -2.756   0.988  23.726  0.00  0.00    +0.086 A 
ATOM     13  C   UNL     1      -3.753   0.791  24.697  0.00  0.00    +0.071 A 
ATOM     14  C   UNL     1      -4.569   1.882  24.551  0.00  0.00    +0.143 A 
BRANCH  14  12
ATOM     12  C   UNL     1      -5.852   2.353  25.256  0.00  0.00    +0.023 C 
ATOM     16  C   UNL     1      -6.022   1.788  26.685  0.00  0.00    +0.019 C 
ATOM     17  C   UNL     1      -7.086   1.910  24.441  0.00  0.00    +0.019 C 
ATOM     18  C   UNL     1      -5.846   3.893  25.373  0.00  0.00    +0.019 C 
ENDBRANCH  14  12
ENDBRANCH   9  10
ENDBRANCH   6   9
TORSDOF 6
ENDMDL
MODEL 5
REMARK VINA RESULT:      -3.9      2.412      4.307
REMARK  Name = 56775457
REMARK  9 active torsions:
REMARK  status: ('A' for Active; 'I' for Inactive)
REMARK    1  A    between atoms: N_4  and  C_6
REMARK    2  A    between atoms: N_4  and  C_11
REMARK    3  A    between atoms: C_6  and  C_9
REMARK    4  A    between atoms: C_9  and  C_10
REMARK    5  A    between atoms: C_11  and  C_15
REMARK    6  A    between atoms: C_12  and  C_14
REMARK    7  A    between atoms: C_12  and  C_16
REMARK    8  A    between atoms: C_12  and  C_17
REMARK    9  A    between atoms: C_12  and  C_18
REMARK                            x       y       z     vdW  Elec       q    Type
REMARK                         _______ _______ _______ _____ _____    ______ ____
ROOT
ATOM      2  O   UNL     1       2.608   0.291  22.956  0.00  0.00    -0.376 OA
ATOM      6  C   UNL     1       0.527   0.365  23.427  0.00  0.00    +0.072 C 
ATOM      7  C   UNL     1       1.719   1.315  23.460  0.00  0.00    +0.184 C 
ATOM      8  C   UNL     1       1.542  -0.685  22.990  0.00  0.00    +0.184 C 
ENDROOT
BRANCH   6   4
ATOM      4  N   UNL     1       0.117   0.080  24.795  0.00  0.00    -0.302 NA
ATOM     24  H   UNL     1       0.815   0.289  25.508  0.00  0.00    +0.123 HD
BRANCH   4  11
ATOM     11  C   UNL     1      -0.302  -1.314  24.906  0.00  0.00    +0.117 C 
BRANCH  11  15
ATOM      1 CL   UNL     1      -5.078   0.692  25.471  0.00  0.00    -0.084 Cl
ATOM     15  C   UNL     1      -1.791  -1.468  24.743  0.00  0.00    -0.032 A 
ATOM     19  C   UNL     1      -2.645  -0.437  25.136  0.00  0.00    +0.025 A 
ATOM     20  C   UNL     1      -2.317  -2.639  24.199  0.00  0.00    +0.005 A 
ATOM     21  C   UNL     1      -4.025  -0.578  24.985  0.00  0.00    +0.041 A 
ATOM     22  C   UNL     1      -3.695  -2.780  24.047  0.00  0.00    +0.002 A 
ATOM     23  C   UNL     1      -4.550  -1.750  24.440  0.00  0.00    +0.020 A 
ENDBRANCH  11  15
ENDBRANCH   4  11
ENDBRANCH   6   4
BRANCH   6   9
ATOM      9  C   UNL     1      -0.655   0.687  22.504  0.00  0.00    +0.085 C 
BRANCH   9  10
ATOM      3  O   UNL     1      -3.362   2.826  23.425  0.00  0.00    -0.359 OA
ATOM      5  N   UNL     1      -2.783   1.857  22.614  0.00  0.00    -0.083 NA
ATOM     10  C   UNL     1      -1.562   1.666  23.124  0.00  0.00    +0.086 A 
ATOM     13  C   UNL     1      -1.318   2.478  24.245  0.00  0.00    +0.071 A 
ATOM     14  C   UNL     1      -2.480   3.189  24.391  0.00  0.00    +0.143 A 
BRANCH  14  12
ATOM     12  C   UNL     1      -2.954   4.260  25.387  0.00  0.00    +0.023 C 
ATOM     16  C   UNL     1      -2.867   3.820  26.867  0.00  0.00    +0.019 C 
ATOM     17  C   UNL     1      -4.429   4.618  25.104  0.00  0.00    +0.019 C 
ATOM     18  C   UNL     1      -2.086   5.529  25.237  0.00  0.00    +0.019 C 
ENDBRANCH  14  12
ENDBRANCH   9  10
ENDBRANCH   6   9
TORSDOF 6
ENDMDL
MODEL 6
REMARK VINA RESULT:      -3.8      2.177      3.992
REMARK  Name = 56775457
REMARK  9 active torsions:
REMARK  status: ('A' for Active; 'I' for Inactive)
REMARK    1  A    between atoms: N_4  and  C_6
REMARK    2  A    between atoms: N_4  and  C_11
REMARK    3  A    between atoms: C_6  and  C_9
REMARK    4  A    between atoms: C_9  and  C_10
REMARK    5  A    between atoms: C_11  and  C_15
REMARK    6  A    between atoms: C_12  and  C_14
REMARK    7  A    between atoms: C_12  and  C_16
REMARK    8  A    between atoms: C_12  and  C_17
REMARK    9  A    between atoms: C_12  and  C_18
REMARK                            x       y       z     vdW  Elec       q    Type
REMARK                         _______ _______ _______ _____ _____    ______ ____
ROOT
ATOM      2  O   UNL     1      -3.003  -3.920  24.137  0.00  0.00    -0.376 OA
ATOM      6  C   UNL     1      -3.142  -1.808  24.420  0.00  0.00    +0.072 C 
ATOM      7  C   UNL     1      -2.097  -2.809  23.940  0.00  0.00    +0.184 C 
ATOM      8  C   UNL     1      -4.005  -3.036  24.690  0.00  0.00    +0.184 C 
ENDROOT
BRANCH   6   4
ATOM      4  N   UNL     1      -2.708  -1.250  25.693  0.00  0.00    -0.302 NA
ATOM     24  H   UNL     1      -3.026  -0.300  25.879  0.00  0.00    +0.123 HD
BRANCH   4  11
ATOM     11  C   UNL     1      -1.253  -1.315  25.790  0.00  0.00    +0.117 C 
BRANCH  11  15
ATOM      1 CL   UNL     1      -0.405   3.821  25.534  0.00  0.00    -0.084 Cl
ATOM     15  C   UNL     1      -0.591  -0.152  25.099  0.00  0.00    -0.032 A 
ATOM     19  C   UNL     1      -0.782   1.144  25.580  0.00  0.00    +0.025 A 
ATOM     20  C   UNL     1       0.212  -0.369  23.980  0.00  0.00    +0.005 A 
ATOM     21  C   UNL     1      -0.169   2.222  24.942  0.00  0.00    +0.041 A 
ATOM     22  C   UNL     1       0.825   0.709  23.342  0.00  0.00    +0.002 A 
ATOM     23  C   UNL     1       0.635   2.004  23.823  0.00  0.00    +0.020 A 
ENDBRANCH  11  15
ENDBRANCH   4  11
ENDBRANCH   6   4
BRANCH   6   9
ATOM      9  C   UNL     1      -3.652  -0.741  23.443  0.00  0.00    +0.085 C 
BRANCH   9  10
ATOM      3  O   UNL     1      -5.152   1.715  25.556  0.00  0.00    -0.359 OA
ATOM      5  N   UNL     1      -5.013   0.412  25.095  0.00  0.00    -0.083 NA
ATOM     10  C   UNL     1      -4.065   0.479  24.155  0.00  0.00    +0.086 A 
ATOM     13  C   UNL     1      -3.574   1.785  23.982  0.00  0.00    +0.071 A 
ATOM     14  C   UNL     1      -4.292   2.524  24.887  0.00  0.00    +0.143 A 
BRANCH  14  12
ATOM     12  C   UNL     1      -4.308   4.013  25.269  0.00  0.00    +0.023 C 
ATOM     16  C   UNL     1      -3.486   4.341  26.536  0.00  0.00    +0.019 C 
ATOM     17  C   UNL     1      -5.760   4.464  25.537  0.00  0.00    +0.019 C 
ATOM     18  C   UNL     1      -3.720   4.853  24.114  0.00  0.00    +0.019 C 
ENDBRANCH  14  12
ENDBRANCH   9  10
ENDBRANCH   6   9
TORSDOF 6
ENDMDL
MODEL 7
REMARK VINA RESULT:      -3.8      2.147      5.156
REMARK  Name = 56775457
REMARK  9 active torsions:
REMARK  status: ('A' for Active; 'I' for Inactive)
REMARK    1  A    between atoms: N_4  and  C_6
REMARK    2  A    between atoms: N_4  and  C_11
REMARK    3  A    between atoms: C_6  and  C_9
REMARK    4  A    between atoms: C_9  and  C_10
REMARK    5  A    between atoms: C_11  and  C_15
REMARK    6  A    between atoms: C_12  and  C_14
REMARK    7  A    between atoms: C_12  and  C_16
REMARK    8  A    between atoms: C_12  and  C_17
REMARK    9  A    between atoms: C_12  and  C_18
REMARK                            x       y       z     vdW  Elec       q    Type
REMARK                         _______ _______ _______ _____ _____    ______ ____
ROOT
ATOM      2  O   UNL     1      -1.031   6.049  24.974  0.00  0.00    -0.376 OA
ATOM      6  C   UNL     1      -1.151   3.918  24.941  0.00  0.00    +0.072 C 
ATOM      7  C   UNL     1      -0.189   4.995  24.452  0.00  0.00    +0.184 C 
ATOM      8  C   UNL     1      -2.029   5.086  25.379  0.00  0.00    +0.184 C 
ENDROOT
BRANCH   6   4
ATOM      4  N   UNL     1      -1.764   3.277  23.786  0.00  0.00    -0.302 NA
ATOM     24  H   UNL     1      -1.306   3.465  22.895  0.00  0.00    +0.123 HD
BRANCH   4  11
ATOM     11  C   UNL     1      -3.175   3.646  23.707  0.00  0.00    +0.117 C 
BRANCH  11  15
ATOM      1 CL   UNL     1      -4.579  -1.361  24.049  0.00  0.00    -0.084 Cl
ATOM     15  C   UNL     1      -4.064   2.597  24.320  0.00  0.00    -0.032 A 
ATOM     19  C   UNL     1      -3.925   1.260  23.945  0.00  0.00    +0.025 A 
ATOM     20  C   UNL     1      -5.026   2.960  25.262  0.00  0.00    +0.005 A 
ATOM     21  C   UNL     1      -4.748   0.287  24.513  0.00  0.00    +0.041 A 
ATOM     22  C   UNL     1      -5.848   1.988  25.830  0.00  0.00    +0.002 A 
ATOM     23  C   UNL     1      -5.710   0.651  25.455  0.00  0.00    +0.020 A 
ENDBRANCH  11  15
ENDBRANCH   4  11
ENDBRANCH   6   4
BRANCH   6   9
ATOM      9  C   UNL     1      -0.668   2.914  25.995  0.00  0.00    +0.085 C 
BRANCH   9  10
ATOM      3  O   UNL     1      -0.082  -0.051  24.093  0.00  0.00    -0.359 OA
ATOM      5  N   UNL     1       0.072   1.311  24.324  0.00  0.00    -0.083 NA
ATOM     10  C   UNL     1      -0.615   1.550  25.445  0.00  0.00    +0.086 A 
ATOM     13  C   UNL     1      -1.217   0.389  25.961  0.00  0.00    +0.071 A 
ATOM     14  C   UNL     1      -0.851  -0.589  25.073  0.00  0.00    +0.143 A 
BRANCH  14  12
ATOM     12  C   UNL     1      -1.129  -2.098  24.979  0.00  0.00    +0.023 C 
ATOM     16  C   UNL     1      -1.346  -2.604  23.534  0.00  0.00    +0.019 C 
ATOM     17  C   UNL     1      -2.403  -2.443  25.780  0.00  0.00    +0.019 C 
ATOM     18  C   UNL     1       0.066  -2.884  25.562  0.00  0.00    +0.019 C 
ENDBRANCH  14  12
ENDBRANCH   9  10
ENDBRANCH   6   9
TORSDOF 6
ENDMDL
MODEL 8
REMARK VINA RESULT:      -3.8      2.835      6.226
REMARK  Name = 56775457
REMARK  9 active torsions:
REMARK  status: ('A' for Active; 'I' for Inactive)
REMARK    1  A    between atoms: N_4  and  C_6
REMARK    2  A    between atoms: N_4  and  C_11
REMARK    3  A    between atoms: C_6  and  C_9
REMARK    4  A    between atoms: C_9  and  C_10
REMARK    5  A    between atoms: C_11  and  C_15
REMARK    6  A    between atoms: C_12  and  C_14
REMARK    7  A    between atoms: C_12  and  C_16
REMARK    8  A    between atoms: C_12  and  C_17
REMARK    9  A    between atoms: C_12  and  C_18
REMARK                            x       y       z     vdW  Elec       q    Type
REMARK                         _______ _______ _______ _____ _____    ______ ____
ROOT
ATOM      2  O   UNL     1      -1.729   5.847  25.064  0.00  0.00    -0.376 OA
ATOM      6  C   UNL     1      -2.444   3.837  24.990  0.00  0.00    +0.072 C 
ATOM      7  C   UNL     1      -2.866   5.155  25.630  0.00  0.00    +0.184 C 
ATOM      8  C   UNL     1      -1.223   4.613  24.508  0.00  0.00    +0.184 C 
ENDROOT
BRANCH   6   4
ATOM      4  N   UNL     1      -2.031   2.917  26.040  0.00  0.00    -0.302 NA
ATOM     24  H   UNL     1      -2.270   3.208  26.988  0.00  0.00    +0.123 HD
BRANCH   4  11
ATOM     11  C   UNL     1      -0.595   2.669  25.944  0.00  0.00    +0.117 C 
BRANCH  11  15
ATOM      1 CL   UNL     1       1.532  -0.091  22.069  0.00  0.00    -0.084 Cl
ATOM     15  C   UNL     1      -0.297   1.326  25.332  0.00  0.00    -0.032 A 
ATOM     19  C   UNL     1       0.398   1.249  24.125  0.00  0.00    +0.025 A 
ATOM     20  C   UNL     1      -0.715   0.159  25.972  0.00  0.00    +0.005 A 
ATOM     21  C   UNL     1       0.676   0.004  23.558  0.00  0.00    +0.041 A 
ATOM     22  C   UNL     1      -0.438  -1.084  25.405  0.00  0.00    +0.002 A 
ATOM     23  C   UNL     1       0.258  -1.162  24.199  0.00  0.00    +0.020 A 
ENDBRANCH  11  15
ENDBRANCH   4  11
ENDBRANCH   6   4
BRANCH   6   9
ATOM      9  C   UNL     1      -3.368   3.185  23.954  0.00  0.00    +0.085 C 
BRANCH   9  10
ATOM      3  O   UNL     1      -4.509   0.115  25.376  0.00  0.00    -0.359 OA
ATOM      5  N   UNL     1      -4.457   1.502  25.329  0.00  0.00    -0.083 NA
ATOM     10  C   UNL     1      -3.651   1.783  24.301  0.00  0.00    +0.086 A 
ATOM     13  C   UNL     1      -3.169   0.624  23.668  0.00  0.00    +0.071 A 
ATOM     14  C   UNL     1      -3.738  -0.397  24.382  0.00  0.00    +0.143 A 
BRANCH  14  12
ATOM     12  C   UNL     1      -3.675  -1.930  24.282  0.00  0.00    +0.023 C 
ATOM     16  C   UNL     1      -2.457  -2.454  23.486  0.00  0.00    +0.019 C 
ATOM     17  C   UNL     1      -4.942  -2.457  23.575  0.00  0.00    +0.019 C 
ATOM     18  C   UNL     1      -3.591  -2.541  25.698  0.00  0.00    +0.019 C 
ENDBRANCH  14  12
ENDBRANCH   9  10
ENDBRANCH   6   9
TORSDOF 6
ENDMDL
MODEL 9
REMARK VINA RESULT:      -3.7      2.932      4.797
REMARK  Name = 56775457
REMARK  9 active torsions:
REMARK  status: ('A' for Active; 'I' for Inactive)
REMARK    1  A    between atoms: N_4  and  C_6
REMARK    2  A    between atoms: N_4  and  C_11
REMARK    3  A    between atoms: C_6  and  C_9
REMARK    4  A    between atoms: C_9  and  C_10
REMARK    5  A    between atoms: C_11  and  C_15
REMARK    6  A    between atoms: C_12  and  C_14
REMARK    7  A    between atoms: C_12  and  C_16
REMARK    8  A    between atoms: C_12  and  C_17
REMARK    9  A    between atoms: C_12  and  C_18
REMARK                            x       y       z     vdW  Elec       q    Type
REMARK                         _______ _______ _______ _____ _____    ______ ____
ROOT
ATOM      2  O   UNL     1       2.884   0.358  22.411  0.00  0.00    -0.376 OA
ATOM      6  C   UNL     1       0.910   0.366  23.224  0.00  0.00    +0.072 C 
ATOM      7  C   UNL     1       2.119   1.295  23.203  0.00  0.00    +0.184 C 
ATOM      8  C   UNL     1       1.810  -0.608  22.471  0.00  0.00    +0.184 C 
ENDROOT
BRANCH   6   4
ATOM      4  N   UNL     1       0.719  -0.125  24.582  0.00  0.00    -0.302 NA
ATOM     24  H   UNL     1       1.554  -0.115  25.166  0.00  0.00    +0.123 HD
BRANCH   4  11
ATOM     11  C   UNL     1       0.154  -1.470  24.546  0.00  0.00    +0.117 C 
BRANCH  11  15
ATOM      1 CL   UNL     1      -4.673  -3.094  23.437  0.00  0.00    -0.084 Cl
ATOM     15  C   UNL     1      -1.314  -1.472  24.882  0.00  0.00    -0.032 A 
ATOM     19  C   UNL     1      -2.209  -2.198  24.096  0.00  0.00    +0.025 A 
ATOM     20  C   UNL     1      -1.779  -0.749  25.981  0.00  0.00    +0.005 A 
ATOM     21  C   UNL     1      -3.569  -2.201  24.408  0.00  0.00    +0.041 A 
ATOM     22  C   UNL     1      -3.138  -0.752  26.293  0.00  0.00    +0.002 A 
ATOM     23  C   UNL     1      -4.033  -1.478  25.507  0.00  0.00    +0.020 A 
ENDBRANCH  11  15
ENDBRANCH   4  11
ENDBRANCH   6   4
BRANCH   6   9
ATOM      9  C   UNL     1      -0.396   0.832  22.567  0.00  0.00    +0.085 C 
BRANCH   9  10
ATOM      3  O   UNL     1      -1.530   3.185  25.001  0.00  0.00    -0.359 OA
ATOM      5  N   UNL     1      -0.524   2.520  24.312  0.00  0.00    -0.083 NA
ATOM     10  C   UNL     1      -1.164   1.702  23.471  0.00  0.00    +0.086 A 
ATOM     13  C   UNL     1      -2.562   1.806  23.585  0.00  0.00    +0.071 A 
ATOM     14  C   UNL     1      -2.739   2.752  24.561  0.00  0.00    +0.143 A 
BRANCH  14  12
ATOM     12  C   UNL     1      -3.977   3.384  25.218  0.00  0.00    +0.023 C 
ATOM     16  C   UNL     1      -5.101   2.371  25.535  0.00  0.00    +0.019 C 
ATOM     17  C   UNL     1      -4.576   4.452  24.279  0.00  0.00    +0.019 C 
ATOM     18  C   UNL     1      -3.574   4.049  26.553  0.00  0.00    +0.019 C 
ENDBRANCH  14  12
ENDBRANCH   9  10
ENDBRANCH   6   9
TORSDOF 6
ENDMDL
MODEL 10
REMARK VINA RESULT:      -3.6      2.502      4.189
REMARK  Name = 56775457
REMARK  9 active torsions:
REMARK  status: ('A' for Active; 'I' for Inactive)
REMARK    1  A    between atoms: N_4  and  C_6
REMARK    2  A    between atoms: N_4  and  C_11
REMARK    3  A    between atoms: C_6  and  C_9
REMARK    4  A    between atoms: C_9  and  C_10
REMARK    5  A    between atoms: C_11  and  C_15
REMARK    6  A    between atoms: C_12  and  C_14
REMARK    7  A    between atoms: C_12  and  C_16
REMARK    8  A    between atoms: C_12  and  C_17
REMARK    9  A    between atoms: C_12  and  C_18
REMARK                            x       y       z     vdW  Elec       q    Type
REMARK                         _______ _______ _______ _____ _____    ______ ____
ROOT
ATOM      2  O   UNL     1      -2.799  -3.789  24.575  0.00  0.00    -0.376 OA
ATOM      6  C   UNL     1      -3.252  -1.703  24.530  0.00  0.00    +0.072 C 
ATOM      7  C   UNL     1      -2.051  -2.596  24.242  0.00  0.00    +0.184 C 
ATOM      8  C   UNL     1      -3.945  -2.994  24.955  0.00  0.00    +0.184 C 
ENDROOT
BRANCH   6   4
ATOM      4  N   UNL     1      -2.972  -0.908  25.718  0.00  0.00    -0.302 NA
ATOM     24  H   UNL     1      -3.244   0.072  25.655  0.00  0.00    +0.123 HD
BRANCH   4  11
ATOM     11  C   UNL     1      -1.555  -1.009  26.056  0.00  0.00    +0.117 C 
BRANCH  11  15
ATOM      1 CL   UNL     1       1.831   0.109  22.256  0.00  0.00    -0.084 Cl
ATOM     15  C   UNL     1      -0.729   0.018  25.328  0.00  0.00    -0.032 A 
ATOM     19  C   UNL     1       0.074  -0.368  24.255  0.00  0.00    +0.025 A 
ATOM     20  C   UNL     1      -0.768   1.354  25.725  0.00  0.00    +0.005 A 
ATOM     21  C   UNL     1       0.839   0.584  23.578  0.00  0.00    +0.041 A 
ATOM     22  C   UNL     1      -0.004   2.305  25.049  0.00  0.00    +0.002 A 
ATOM     23  C   UNL     1       0.799   1.920  23.976  0.00  0.00    +0.020 A 
ENDBRANCH  11  15
ENDBRANCH   4  11
ENDBRANCH   6   4
BRANCH   6   9
ATOM      9  C   UNL     1      -3.855  -0.877  23.387  0.00  0.00    +0.085 C 
BRANCH   9  10
ATOM      3  O   UNL     1      -2.990   2.587  23.359  0.00  0.00    -0.359 OA
ATOM      5  N   UNL     1      -2.898   1.294  22.859  0.00  0.00    -0.083 NA
ATOM     10  C   UNL     1      -3.705   0.565  23.636  0.00  0.00    +0.086 A 
ATOM     13  C   UNL     1      -4.326   1.337  24.633  0.00  0.00    +0.071 A 
ATOM     14  C   UNL     1      -3.843   2.601  24.415  0.00  0.00    +0.143 A 
BRANCH  14  12
ATOM     12  C   UNL     1      -4.069   3.959  25.100  0.00  0.00    +0.023 C 
ATOM     16  C   UNL     1      -3.129   4.217  26.300  0.00  0.00    +0.019 C 
ATOM     17  C   UNL     1      -5.517   4.041  25.628  0.00  0.00    +0.019 C 
ATOM     18  C   UNL     1      -3.833   5.099  24.084  0.00  0.00    +0.019 C 
ENDBRANCH  14  12
ENDBRANCH   9  10
ENDBRANCH   6   9
TORSDOF 6
ENDMDL
