MODEL 1
REMARK VINA RESULT:      -5.2      0.000      0.000
REMARK  Name = 38030108
REMARK  11 active torsions:
REMARK  status: ('A' for Active; 'I' for Inactive)
REMARK    1  A    between atoms: O_1  and  C_14
REMARK    2  A    between atoms: O_3  and  C_24
REMARK    3  A    between atoms: N_5  and  C_23
REMARK    4  A    between atoms: C_6  and  C_10
REMARK    5  A    between atoms: C_8  and  C_13
REMARK    6  A    between atoms: C_9  and  C_14
REMARK    7  A    between atoms: C_10  and  C_15
REMARK    8  A    between atoms: C_10  and  C_16
REMARK    9  A    between atoms: C_11  and  C_18
REMARK   10  A    between atoms: C_13  and  C_17
REMARK   11  A    between atoms: C_23  and  C_24
REMARK                            x       y       z     vdW  Elec       q    Type
REMARK                         _______ _______ _______ _____ _____    ______ ____
ROOT
ATOM      6  C   UNL     1      -3.755   2.017  24.716  0.00  0.00    +0.001 C 
ATOM      7  C   UNL     1      -2.900   1.332  23.639  0.00  0.00    +0.012 C 
ATOM      8  C   UNL     1      -2.691  -0.166  23.925  0.00  0.00    +0.023 C 
ATOM      9  C   UNL     1      -5.144   1.337  24.816  0.00  0.00    +0.040 C 
ATOM     11  C   UNL     1      -3.988  -0.855  24.297  0.00  0.00    -0.073 C 
ATOM     12  C   UNL     1      -5.078  -0.166  24.680  0.00  0.00    -0.022 C 
ATOM     18  C   UNL     1      -4.019  -2.353  24.176  0.00  0.00    +0.039 C 
ENDROOT
BRANCH   6  10
ATOM     10  C   UNL     1      -3.875   3.513  24.412  0.00  0.00    -0.013 C 
ATOM     15  C   UNL     1      -2.737   4.283  25.073  0.00  0.00    +0.007 C 
ATOM     16  C   UNL     1      -3.884   3.749  22.904  0.00  0.00    +0.007 C 
ENDBRANCH   6  10
BRANCH   8  13
ATOM     13  C   UNL     1      -1.628  -0.379  25.008  0.00  0.00    +0.103 C 
BRANCH  13  17
ATOM      2  O   UNL     1      -0.758   1.634  25.906  0.00  0.00    -0.276 OA
ATOM      4  N   UNL     1       0.285   0.814  23.999  0.00  0.00    -0.299 N 
ATOM      5  N   UNL     1       2.688   0.549  22.462  0.00  0.00    -0.297 NA
ATOM     17  C   UNL     1      -0.667   0.784  25.018  0.00  0.00    +0.216 C 
ATOM     19  C   UNL     1       1.255   1.907  23.942  0.00  0.00    +0.123 C 
ATOM     20  C   UNL     1       0.336  -0.104  22.859  0.00  0.00    +0.123 C 
ATOM     21  C   UNL     1       2.665   1.383  23.673  0.00  0.00    +0.103 C 
ATOM     22  C   UNL     1       1.765  -0.587  22.604  0.00  0.00    +0.103 C 
BRANCH   5  23
ATOM     23  C   UNL     1       4.045   0.077  22.190  0.00  0.00    +0.112 C 
BRANCH  23  24
ATOM     24  C   UNL     1       4.919   0.211  23.426  0.00  0.00    +0.171 C 
BRANCH  24   3
ATOM      3  O   UNL     1       4.989  -1.051  24.076  0.00  0.00    -0.394 OA
ATOM     26  H   UNL     1       4.080  -1.388  24.146  0.00  0.00    +0.209 HD
ENDBRANCH  24   3
ENDBRANCH  23  24
ENDBRANCH   5  23
ENDBRANCH  13  17
ENDBRANCH   8  13
BRANCH   9  14
ATOM     14  C   UNL     1      -5.845   1.701  26.130  0.00  0.00    +0.163 C 
BRANCH  14   1
ATOM      1  O   UNL     1      -6.198   3.068  26.082  0.00  0.00    -0.394 OA
ATOM     25  H   UNL     1      -5.372   3.576  26.005  0.00  0.00    +0.209 HD
ENDBRANCH  14   1
ENDBRANCH   9  14
TORSDOF 8
ENDMDL
MODEL 2
REMARK VINA RESULT:      -4.7      1.426      3.304
REMARK  Name = 38030108
REMARK  11 active torsions:
REMARK  status: ('A' for Active; 'I' for Inactive)
REMARK    1  A    between atoms: O_1  and  C_14
REMARK    2  A    between atoms: O_3  and  C_24
REMARK    3  A    between atoms: N_5  and  C_23
REMARK    4  A    between atoms: C_6  and  C_10
REMARK    5  A    between atoms: C_8  and  C_13
REMARK    6  A    between atoms: C_9  and  C_14
REMARK    7  A    between atoms: C_10  and  C_15
REMARK    8  A    between atoms: C_10  and  C_16
REMARK    9  A    between atoms: C_11  and  C_18
REMARK   10  A    between atoms: C_13  and  C_17
REMARK   11  A    between atoms: C_23  and  C_24
REMARK                            x       y       z     vdW  Elec       q    Type
REMARK                         _______ _______ _______ _____ _____    ______ ____
ROOT
ATOM      6  C   UNL     1      -3.723   1.016  24.878  0.00  0.00    +0.001 C 
ATOM      7  C   UNL     1      -2.277   1.234  25.351  0.00  0.00    +0.012 C 
ATOM      8  C   UNL     1      -1.772   2.656  25.044  0.00  0.00    +0.023 C 
ATOM      9  C   UNL     1      -4.673   2.032  25.558  0.00  0.00    +0.040 C 
ATOM     11  C   UNL     1      -2.782   3.711  25.445  0.00  0.00    -0.073 C 
ATOM     12  C   UNL     1      -4.071   3.412  25.685  0.00  0.00    -0.022 C 
ATOM     18  C   UNL     1      -2.266   5.114  25.611  0.00  0.00    +0.039 C 
ENDROOT
BRANCH   6  10
ATOM     10  C   UNL     1      -4.146  -0.430  25.152  0.00  0.00    -0.013 C 
ATOM     15  C   UNL     1      -4.282  -1.202  23.845  0.00  0.00    +0.007 C 
ATOM     16  C   UNL     1      -3.144  -1.111  26.081  0.00  0.00    +0.007 C 
ENDBRANCH   6  10
BRANCH   8  13
ATOM     13  C   UNL     1      -1.388   2.799  23.567  0.00  0.00    +0.103 C 
BRANCH  13  17
ATOM      2  O   UNL     1      -1.931   0.848  22.336  0.00  0.00    -0.276 OA
ATOM      4  N   UNL     1       0.211   0.947  23.228  0.00  0.00    -0.299 N 
ATOM      5  N   UNL     1       2.975   0.225  23.011  0.00  0.00    -0.297 NA
ATOM     17  C   UNL     1      -1.070   1.444  22.986  0.00  0.00    +0.216 C 
ATOM     19  C   UNL     1       0.598  -0.359  22.696  0.00  0.00    +0.123 C 
ATOM     20  C   UNL     1       1.209   1.566  24.105  0.00  0.00    +0.123 C 
ATOM     21  C   UNL     1       1.988  -0.308  22.061  0.00  0.00    +0.103 C 
ATOM     22  C   UNL     1       2.590   1.576  23.448  0.00  0.00    +0.103 C 
BRANCH   5  23
ATOM     23  C   UNL     1       4.309   0.240  22.411  0.00  0.00    +0.112 C 
BRANCH  23  24
ATOM     24  C   UNL     1       5.375  -0.001  23.467  0.00  0.00    +0.171 C 
BRANCH  24   3
ATOM      3  O   UNL     1       5.010  -1.141  24.233  0.00  0.00    -0.394 OA
ATOM     26  H   UNL     1       5.461  -1.066  25.091  0.00  0.00    +0.209 HD
ENDBRANCH  24   3
ENDBRANCH  23  24
ENDBRANCH   5  23
ENDBRANCH  13  17
ENDBRANCH   8  13
BRANCH   9  14
ATOM     14  C   UNL     1      -6.010   2.125  24.813  0.00  0.00    +0.163 C 
BRANCH  14   1
ATOM      1  O   UNL     1      -7.017   1.574  25.637  0.00  0.00    -0.394 OA
ATOM     25  H   UNL     1      -6.704   1.636  26.555  0.00  0.00    +0.209 HD
ENDBRANCH  14   1
ENDBRANCH   9  14
TORSDOF 8
ENDMDL
MODEL 3
REMARK VINA RESULT:      -4.6      1.835      3.293
REMARK  Name = 38030108
REMARK  11 active torsions:
REMARK  status: ('A' for Active; 'I' for Inactive)
REMARK    1  A    between atoms: O_1  and  C_14
REMARK    2  A    between atoms: O_3  and  C_24
REMARK    3  A    between atoms: N_5  and  C_23
REMARK    4  A    between atoms: C_6  and  C_10
REMARK    5  A    between atoms: C_8  and  C_13
REMARK    6  A    between atoms: C_9  and  C_14
REMARK    7  A    between atoms: C_10  and  C_15
REMARK    8  A    between atoms: C_10  and  C_16
REMARK    9  A    between atoms: C_11  and  C_18
REMARK   10  A    between atoms: C_13  and  C_17
REMARK   11  A    between atoms: C_23  and  C_24
REMARK                            x       y       z     vdW  Elec       q    Type
REMARK                         _______ _______ _______ _____ _____    ______ ____
ROOT
ATOM      6  C   UNL     1      -3.242   2.521  24.234  0.00  0.00    +0.001 C 
ATOM      7  C   UNL     1      -4.247   1.461  23.758  0.00  0.00    +0.012 C 
ATOM      8  C   UNL     1      -5.063   0.868  24.921  0.00  0.00    +0.023 C 
ATOM      9  C   UNL     1      -3.977   3.676  24.958  0.00  0.00    +0.040 C 
ATOM     11  C   UNL     1      -5.601   1.945  25.839  0.00  0.00    -0.073 C 
ATOM     12  C   UNL     1      -5.113   3.199  25.832  0.00  0.00    -0.022 C 
ATOM     18  C   UNL     1      -6.746   1.562  26.736  0.00  0.00    +0.039 C 
ENDROOT
BRANCH   6  10
ATOM     10  C   UNL     1      -2.419   3.027  23.045  0.00  0.00    -0.013 C 
ATOM     15  C   UNL     1      -0.992   3.342  23.482  0.00  0.00    +0.007 C 
ATOM     16  C   UNL     1      -2.425   1.998  21.918  0.00  0.00    +0.007 C 
ENDBRANCH   6  10
BRANCH   8  13
ATOM     13  C   UNL     1      -4.240  -0.160  25.705  0.00  0.00    +0.103 C 
BRANCH  13  17
ATOM      2  O   UNL     1      -4.013  -1.807  24.017  0.00  0.00    -0.276 OA
ATOM      4  N   UNL     1      -2.051  -0.814  24.767  0.00  0.00    -0.299 N 
ATOM      5  N   UNL     1       0.619   0.044  24.186  0.00  0.00    -0.297 NA
ATOM     17  C   UNL     1      -3.433  -1.006  24.752  0.00  0.00    +0.216 C 
ATOM     19  C   UNL     1      -1.199  -1.593  23.869  0.00  0.00    +0.123 C 
ATOM     20  C   UNL     1      -1.323   0.030  25.717  0.00  0.00    +0.123 C 
ATOM     21  C   UNL     1      -0.156  -0.708  23.189  0.00  0.00    +0.103 C 
ATOM     22  C   UNL     1      -0.271   0.882  25.004  0.00  0.00    +0.103 C 
BRANCH   5  23
ATOM     23  C   UNL     1       1.638   0.865  23.532  0.00  0.00    +0.112 C 
BRANCH  23  24
ATOM     24  C   UNL     1       2.446   0.034  22.548  0.00  0.00    +0.171 C 
BRANCH  24   3
ATOM      3  O   UNL     1       3.562   0.799  22.112  0.00  0.00    -0.394 OA
ATOM     26  H   UNL     1       3.602   1.592  22.672  0.00  0.00    +0.209 HD
ENDBRANCH  24   3
ENDBRANCH  23  24
ENDBRANCH   5  23
ENDBRANCH  13  17
ENDBRANCH   8  13
BRANCH   9  14
ATOM     14  C   UNL     1      -3.004   4.512  25.797  0.00  0.00    +0.163 C 
BRANCH  14   1
ATOM      1  O   UNL     1      -2.194   3.631  26.548  0.00  0.00    -0.394 OA
ATOM     25  H   UNL     1      -1.276   3.764  26.258  0.00  0.00    +0.209 HD
ENDBRANCH  14   1
ENDBRANCH   9  14
TORSDOF 8
ENDMDL
MODEL 4
REMARK VINA RESULT:      -4.2      2.778      5.740
REMARK  Name = 38030108
REMARK  11 active torsions:
REMARK  status: ('A' for Active; 'I' for Inactive)
REMARK    1  A    between atoms: O_1  and  C_14
REMARK    2  A    between atoms: O_3  and  C_24
REMARK    3  A    between atoms: N_5  and  C_23
REMARK    4  A    between atoms: C_6  and  C_10
REMARK    5  A    between atoms: C_8  and  C_13
REMARK    6  A    between atoms: C_9  and  C_14
REMARK    7  A    between atoms: C_10  and  C_15
REMARK    8  A    between atoms: C_10  and  C_16
REMARK    9  A    between atoms: C_11  and  C_18
REMARK   10  A    between atoms: C_13  and  C_17
REMARK   11  A    between atoms: C_23  and  C_24
REMARK                            x       y       z     vdW  Elec       q    Type
REMARK                         _______ _______ _______ _____ _____    ______ ____
ROOT
ATOM      6  C   UNL     1      -1.128   0.370  24.837  0.00  0.00    +0.001 C 
ATOM      7  C   UNL     1      -2.173  -0.021  25.893  0.00  0.00    +0.012 C 
ATOM      8  C   UNL     1      -3.177  -1.062  25.362  0.00  0.00    +0.023 C 
ATOM      9  C   UNL     1      -0.341  -0.879  24.368  0.00  0.00    +0.040 C 
ATOM     11  C   UNL     1      -2.482  -2.200  24.645  0.00  0.00    -0.073 C 
ATOM     12  C   UNL     1      -1.209  -2.106  24.220  0.00  0.00    -0.022 C 
ATOM     18  C   UNL     1      -3.268  -3.470  24.466  0.00  0.00    +0.039 C 
ENDROOT
BRANCH   6  10
ATOM     10  C   UNL     1      -0.200   1.450  25.400  0.00  0.00    -0.013 C 
ATOM     15  C   UNL     1       0.371   2.302  24.272  0.00  0.00    +0.007 C 
ATOM     16  C   UNL     1      -0.945   2.318  26.410  0.00  0.00    +0.007 C 
ENDBRANCH   6  10
BRANCH   8  13
ATOM     13  C   UNL     1      -4.228  -0.406  24.460  0.00  0.00    +0.103 C 
BRANCH  13  17
ATOM      2  O   UNL     1      -5.590   0.510  26.170  0.00  0.00    -0.276 OA
ATOM      4  N   UNL     1      -4.633   2.020  24.687  0.00  0.00    -0.299 N 
ATOM      5  N   UNL     1      -3.575   4.643  24.226  0.00  0.00    -0.297 NA
ATOM     17  C   UNL     1      -4.883   0.742  25.187  0.00  0.00    +0.216 C 
ATOM     19  C   UNL     1      -5.228   3.186  25.339  0.00  0.00    +0.123 C 
ATOM     20  C   UNL     1      -3.909   2.319  23.449  0.00  0.00    +0.123 C 
ATOM     21  C   UNL     1      -4.203   4.307  25.513  0.00  0.00    +0.103 C 
ATOM     22  C   UNL     1      -2.912   3.461  23.654  0.00  0.00    +0.103 C 
BRANCH   5  23
ATOM     23  C   UNL     1      -2.620   5.738  24.392  0.00  0.00    +0.112 C 
BRANCH  23  24
ATOM     24  C   UNL     1      -1.447   5.301  25.254  0.00  0.00    +0.171 C 
BRANCH  24   3
ATOM      3  O   UNL     1      -0.250   5.435  24.499  0.00  0.00    -0.394 OA
ATOM     26  H   UNL     1       0.112   6.317  24.692  0.00  0.00    +0.209 HD
ENDBRANCH  24   3
ENDBRANCH  23  24
ENDBRANCH   5  23
ENDBRANCH  13  17
ENDBRANCH   8  13
BRANCH   9  14
ATOM     14  C   UNL     1       0.391  -0.608  23.048  0.00  0.00    +0.163 C 
BRANCH  14   1
ATOM      1  O   UNL     1       1.772  -0.486  23.322  0.00  0.00    -0.394 OA
ATOM     25  H   UNL     1       2.142   0.131  22.668  0.00  0.00    +0.209 HD
ENDBRANCH  14   1
ENDBRANCH   9  14
TORSDOF 8
ENDMDL
MODEL 5
REMARK VINA RESULT:      -3.4      2.231      4.070
REMARK  Name = 38030108
REMARK  11 active torsions:
REMARK  status: ('A' for Active; 'I' for Inactive)
REMARK    1  A    between atoms: O_1  and  C_14
REMARK    2  A    between atoms: O_3  and  C_24
REMARK    3  A    between atoms: N_5  and  C_23
REMARK    4  A    between atoms: C_6  and  C_10
REMARK    5  A    between atoms: C_8  and  C_13
REMARK    6  A    between atoms: C_9  and  C_14
REMARK    7  A    between atoms: C_10  and  C_15
REMARK    8  A    between atoms: C_10  and  C_16
REMARK    9  A    between atoms: C_11  and  C_18
REMARK   10  A    between atoms: C_13  and  C_17
REMARK   11  A    between atoms: C_23  and  C_24
REMARK                            x       y       z     vdW  Elec       q    Type
REMARK                         _______ _______ _______ _____ _____    ______ ____
ROOT
ATOM      6  C   UNL     1      -3.257   0.832  23.810  0.00  0.00    +0.001 C 
ATOM      7  C   UNL     1      -2.541  -0.353  23.144  0.00  0.00    +0.012 C 
ATOM      8  C   UNL     1      -2.168  -1.452  24.155  0.00  0.00    +0.023 C 
ATOM      9  C   UNL     1      -4.550   0.354  24.517  0.00  0.00    +0.040 C 
ATOM     11  C   UNL     1      -3.325  -1.790  25.072  0.00  0.00    -0.073 C 
ATOM     12  C   UNL     1      -4.387  -0.978  25.211  0.00  0.00    -0.022 C 
ATOM     18  C   UNL     1      -3.255  -3.108  25.794  0.00  0.00    +0.039 C 
ENDROOT
BRANCH   6  10
ATOM     10  C   UNL     1      -3.545   1.917  22.769  0.00  0.00    -0.013 C 
ATOM     15  C   UNL     1      -3.818   3.252  23.453  0.00  0.00    +0.007 C 
ATOM     16  C   UNL     1      -2.380   2.039  21.790  0.00  0.00    +0.007 C 
ENDBRANCH   6  10
BRANCH   8  13
ATOM     13  C   UNL     1      -0.925  -1.062  24.962  0.00  0.00    +0.103 C 
BRANCH  13  17
ATOM      2  O   UNL     1       0.454  -0.404  23.149  0.00  0.00    -0.276 OA
ATOM      4  N   UNL     1      -0.047   1.234  24.719  0.00  0.00    -0.299 N 
ATOM      5  N   UNL     1      -0.499   4.006  25.285  0.00  0.00    -0.297 NA
ATOM     17  C   UNL     1      -0.108  -0.055  24.190  0.00  0.00    +0.216 C 
ATOM     19  C   UNL     1       0.721   2.269  24.027  0.00  0.00    +0.123 C 
ATOM     20  C   UNL     1      -0.591   1.645  26.016  0.00  0.00    +0.123 C 
ATOM     21  C   UNL     1      -0.061   3.580  23.948  0.00  0.00    +0.103 C 
ATOM     22  C   UNL     1      -1.343   2.972  25.903  0.00  0.00    +0.103 C 
BRANCH   5  23
ATOM     23  C   UNL     1      -1.218   5.277  25.209  0.00  0.00    +0.112 C 
BRANCH  23  24
ATOM     24  C   UNL     1      -2.720   5.047  25.230  0.00  0.00    +0.171 C 
BRANCH  24   3
ATOM      3  O   UNL     1      -3.119   4.751  26.561  0.00  0.00    -0.394 OA
ATOM     26  H   UNL     1      -3.805   4.064  26.509  0.00  0.00    +0.209 HD
ENDBRANCH  24   3
ENDBRANCH  23  24
ENDBRANCH   5  23
ENDBRANCH  13  17
ENDBRANCH   8  13
BRANCH   9  14
ATOM     14  C   UNL     1      -5.049   1.398  25.524  0.00  0.00    +0.163 C 
BRANCH  14   1
ATOM      1  O   UNL     1      -6.347   1.801  25.139  0.00  0.00    -0.394 OA
ATOM     25  H   UNL     1      -6.246   2.472  24.443  0.00  0.00    +0.209 HD
ENDBRANCH  14   1
ENDBRANCH   9  14
TORSDOF 8
ENDMDL
MODEL 6
REMARK VINA RESULT:      -2.5      2.916      4.063
REMARK  Name = 38030108
REMARK  11 active torsions:
REMARK  status: ('A' for Active; 'I' for Inactive)
REMARK    1  A    between atoms: O_1  and  C_14
REMARK    2  A    between atoms: O_3  and  C_24
REMARK    3  A    between atoms: N_5  and  C_23
REMARK    4  A    between atoms: C_6  and  C_10
REMARK    5  A    between atoms: C_8  and  C_13
REMARK    6  A    between atoms: C_9  and  C_14
REMARK    7  A    between atoms: C_10  and  C_15
REMARK    8  A    between atoms: C_10  and  C_16
REMARK    9  A    between atoms: C_11  and  C_18
REMARK   10  A    between atoms: C_13  and  C_17
REMARK   11  A    between atoms: C_23  and  C_24
REMARK                            x       y       z     vdW  Elec       q    Type
REMARK                         _______ _______ _______ _____ _____    ______ ____
ROOT
ATOM      6  C   UNL     1      -4.117   2.660  25.145  0.00  0.00    +0.001 C 
ATOM      7  C   UNL     1      -3.826   3.811  24.170  0.00  0.00    +0.012 C 
ATOM      8  C   UNL     1      -2.668   3.482  23.210  0.00  0.00    +0.023 C 
ATOM      9  C   UNL     1      -4.476   1.370  24.366  0.00  0.00    +0.040 C 
ATOM     11  C   UNL     1      -2.814   2.102  22.602  0.00  0.00    -0.073 C 
ATOM     12  C   UNL     1      -3.638   1.175  23.124  0.00  0.00    -0.022 C 
ATOM     18  C   UNL     1      -2.027   1.825  21.351  0.00  0.00    +0.039 C 
ENDROOT
BRANCH   6  10
ATOM     10  C   UNL     1      -5.232   3.069  26.113  0.00  0.00    -0.013 C 
ATOM     15  C   UNL     1      -5.838   4.403  25.693  0.00  0.00    +0.007 C 
ATOM     16  C   UNL     1      -6.304   1.984  26.177  0.00  0.00    +0.007 C 
ENDBRANCH   6  10
BRANCH   8  13
ATOM     13  C   UNL     1      -1.312   3.633  23.907  0.00  0.00    +0.103 C 
BRANCH  13  17
ATOM      2  O   UNL     1      -1.818   3.440  26.214  0.00  0.00    -0.276 OA
ATOM      4  N   UNL     1      -0.774   1.616  25.226  0.00  0.00    -0.299 N 
ATOM      5  N   UNL     1      -0.390  -1.222  25.148  0.00  0.00    -0.297 NA
ATOM     17  C   UNL     1      -1.327   2.896  25.223  0.00  0.00    +0.216 C 
ATOM     19  C   UNL     1      -0.754   0.834  26.462  0.00  0.00    +0.123 C 
ATOM     20  C   UNL     1      -0.066   0.995  24.103  0.00  0.00    +0.123 C 
ATOM     21  C   UNL     1      -1.196  -0.607  26.213  0.00  0.00    +0.103 C 
ATOM     22  C   UNL     1      -0.515  -0.453  23.901  0.00  0.00    +0.103 C 
BRANCH   5  23
ATOM     23  C   UNL     1      -0.794  -2.612  24.937  0.00  0.00    +0.112 C 
BRANCH  23  24
ATOM     24  C   UNL     1      -2.075  -2.680  24.121  0.00  0.00    +0.171 C 
BRANCH  24   3
ATOM      3  O   UNL     1      -3.120  -3.168  24.952  0.00  0.00    -0.394 OA
ATOM     26  H   UNL     1      -3.111  -2.636  25.766  0.00  0.00    +0.209 HD
ENDBRANCH  24   3
ENDBRANCH  23  24
ENDBRANCH   5  23
ENDBRANCH  13  17
ENDBRANCH   8  13
BRANCH   9  14
ATOM     14  C   UNL     1      -4.356   0.131  25.262  0.00  0.00    +0.163 C 
BRANCH  14   1
ATOM      1  O   UNL     1      -4.678  -1.008  24.490  0.00  0.00    -0.394 OA
ATOM     25  H   UNL     1      -5.378  -0.746  23.868  0.00  0.00    +0.209 HD
ENDBRANCH  14   1
ENDBRANCH   9  14
TORSDOF 8
ENDMDL
MODEL 7
REMARK VINA RESULT:      -2.3      2.820      5.233
REMARK  Name = 38030108
REMARK  11 active torsions:
REMARK  status: ('A' for Active; 'I' for Inactive)
REMARK    1  A    between atoms: O_1  and  C_14
REMARK    2  A    between atoms: O_3  and  C_24
REMARK    3  A    between atoms: N_5  and  C_23
REMARK    4  A    between atoms: C_6  and  C_10
REMARK    5  A    between atoms: C_8  and  C_13
REMARK    6  A    between atoms: C_9  and  C_14
REMARK    7  A    between atoms: C_10  and  C_15
REMARK    8  A    between atoms: C_10  and  C_16
REMARK    9  A    between atoms: C_11  and  C_18
REMARK   10  A    between atoms: C_13  and  C_17
REMARK   11  A    between atoms: C_23  and  C_24
REMARK                            x       y       z     vdW  Elec       q    Type
REMARK                         _______ _______ _______ _____ _____    ______ ____
ROOT
ATOM      6  C   UNL     1      -2.149   2.458  24.035  0.00  0.00    +0.001 C 
ATOM      7  C   UNL     1      -3.499   3.162  23.835  0.00  0.00    +0.012 C 
ATOM      8  C   UNL     1      -4.125   3.611  25.169  0.00  0.00    +0.023 C 
ATOM      9  C   UNL     1      -1.150   3.399  24.754  0.00  0.00    +0.040 C 
ATOM     11  C   UNL     1      -3.118   4.318  26.053  0.00  0.00    -0.073 C 
ATOM     12  C   UNL     1      -1.793   4.222  25.844  0.00  0.00    -0.022 C 
ATOM     18  C   UNL     1      -3.671   5.175  27.158  0.00  0.00    +0.039 C 
ENDROOT
BRANCH   6  10
ATOM     10  C   UNL     1      -1.608   1.979  22.684  0.00  0.00    -0.013 C 
ATOM     15  C   UNL     1      -0.965   0.604  22.825  0.00  0.00    +0.007 C 
ATOM     16  C   UNL     1      -2.725   1.951  21.644  0.00  0.00    +0.007 C 
ENDBRANCH   6  10
BRANCH   8  13
ATOM     13  C   UNL     1      -4.767   2.430  25.904  0.00  0.00    +0.103 C 
BRANCH  13  17
ATOM      2  O   UNL     1      -5.925   1.553  24.031  0.00  0.00    -0.276 OA
ATOM      4  N   UNL     1      -4.433   0.122  25.090  0.00  0.00    -0.299 N 
ATOM      5  N   UNL     1      -2.594  -2.065  24.884  0.00  0.00    -0.297 NA
ATOM     17  C   UNL     1      -5.101   1.335  24.922  0.00  0.00    +0.216 C 
ATOM     19  C   UNL     1      -4.698  -0.988  24.176  0.00  0.00    +0.123 C 
ATOM     20  C   UNL     1      -3.550  -0.211  26.212  0.00  0.00    +0.123 C 
ATOM     21  C   UNL     1      -3.400  -1.656  23.724  0.00  0.00    +0.103 C 
ATOM     22  C   UNL     1      -2.275  -0.900  25.724  0.00  0.00    +0.103 C 
BRANCH   5  23
ATOM     23  C   UNL     1      -1.368  -2.733  24.447  0.00  0.00    +0.112 C 
BRANCH  23  24
ATOM     24  C   UNL     1      -0.193  -2.323  25.320  0.00  0.00    +0.171 C 
BRANCH  24   3
ATOM      3  O   UNL     1       0.431  -1.184  24.742  0.00  0.00    -0.394 OA
ATOM     26  H   UNL     1       0.002  -1.028  23.883  0.00  0.00    +0.209 HD
ENDBRANCH  24   3
ENDBRANCH  23  24
ENDBRANCH   5  23
ENDBRANCH  13  17
ENDBRANCH   8  13
BRANCH   9  14
ATOM     14  C   UNL     1       0.031   2.612  25.336  0.00  0.00    +0.163 C 
BRANCH  14   1
ATOM      1  O   UNL     1      -0.482   1.607  26.186  0.00  0.00    -0.394 OA
ATOM     25  H   UNL     1      -1.451   1.635  26.115  0.00  0.00    +0.209 HD
ENDBRANCH  14   1
ENDBRANCH   9  14
TORSDOF 8
ENDMDL
MODEL 8
REMARK VINA RESULT:      -1.4      2.233      4.849
REMARK  Name = 38030108
REMARK  11 active torsions:
REMARK  status: ('A' for Active; 'I' for Inactive)
REMARK    1  A    between atoms: O_1  and  C_14
REMARK    2  A    between atoms: O_3  and  C_24
REMARK    3  A    between atoms: N_5  and  C_23
REMARK    4  A    between atoms: C_6  and  C_10
REMARK    5  A    between atoms: C_8  and  C_13
REMARK    6  A    between atoms: C_9  and  C_14
REMARK    7  A    between atoms: C_10  and  C_15
REMARK    8  A    between atoms: C_10  and  C_16
REMARK    9  A    between atoms: C_11  and  C_18
REMARK   10  A    between atoms: C_13  and  C_17
REMARK   11  A    between atoms: C_23  and  C_24
REMARK                            x       y       z     vdW  Elec       q    Type
REMARK                         _______ _______ _______ _____ _____    ______ ____
ROOT
ATOM      6  C   UNL     1      -3.752   2.590  25.268  0.00  0.00    +0.001 C 
ATOM      7  C   UNL     1      -2.328   2.400  25.814  0.00  0.00    +0.012 C 
ATOM      8  C   UNL     1      -1.341   3.431  25.238  0.00  0.00    +0.023 C 
ATOM      9  C   UNL     1      -4.273   4.010  25.601  0.00  0.00    +0.040 C 
ATOM     11  C   UNL     1      -1.902   4.837  25.287  0.00  0.00    -0.073 C 
ATOM     12  C   UNL     1      -3.213   5.077  25.464  0.00  0.00    -0.022 C 
ATOM     18  C   UNL     1      -0.914   5.966  25.173  0.00  0.00    +0.039 C 
ENDROOT
BRANCH   6  10
ATOM     10  C   UNL     1      -4.672   1.500  25.826  0.00  0.00    -0.013 C 
ATOM     15  C   UNL     1      -5.840   2.126  26.581  0.00  0.00    +0.007 C 
ATOM     16  C   UNL     1      -5.174   0.600  24.701  0.00  0.00    +0.007 C 
ENDBRANCH   6  10
BRANCH   8  13
ATOM     13  C   UNL     1      -0.921   3.058  23.812  0.00  0.00    +0.103 C 
BRANCH  13  17
ATOM      2  O   UNL     1       1.249   2.135  24.052  0.00  0.00    -0.276 OA
ATOM      4  N   UNL     1      -0.478   0.634  23.651  0.00  0.00    -0.299 N 
ATOM      5  N   UNL     1      -1.557  -1.994  24.029  0.00  0.00    -0.297 NA
ATOM     17  C   UNL     1       0.054   1.908  23.849  0.00  0.00    +0.216 C 
ATOM     19  C   UNL     1       0.402  -0.535  23.677  0.00  0.00    +0.123 C 
ATOM     20  C   UNL     1      -1.864   0.342  23.278  0.00  0.00    +0.123 C 
ATOM     21  C   UNL     1      -0.204  -1.667  24.505  0.00  0.00    +0.103 C 
ATOM     22  C   UNL     1      -2.429  -0.811  24.108  0.00  0.00    +0.103 C 
BRANCH   5  23
ATOM     23  C   UNL     1      -2.120  -3.100  24.803  0.00  0.00    +0.112 C 
BRANCH  23  24
ATOM     24  C   UNL     1      -3.593  -2.858  25.090  0.00  0.00    +0.171 C 
BRANCH  24   3
ATOM      3  O   UNL     1      -4.316  -2.936  23.869  0.00  0.00    -0.394 OA
ATOM     26  H   UNL     1      -3.966  -2.243  23.284  0.00  0.00    +0.209 HD
ENDBRANCH  24   3
ENDBRANCH  23  24
ENDBRANCH   5  23
ENDBRANCH  13  17
ENDBRANCH   8  13
BRANCH   9  14
ATOM     14  C   UNL     1      -5.481   4.374  24.730  0.00  0.00    +0.163 C 
BRANCH  14   1
ATOM      1  O   UNL     1      -6.460   4.973  25.555  0.00  0.00    -0.394 OA
ATOM     25  H   UNL     1      -7.067   5.461  24.974  0.00  0.00    +0.209 HD
ENDBRANCH  14   1
ENDBRANCH   9  14
TORSDOF 8
ENDMDL
MODEL 9
REMARK VINA RESULT:      -1.4      2.167      3.950
REMARK  Name = 38030108
REMARK  11 active torsions:
REMARK  status: ('A' for Active; 'I' for Inactive)
REMARK    1  A    between atoms: O_1  and  C_14
REMARK    2  A    between atoms: O_3  and  C_24
REMARK    3  A    between atoms: N_5  and  C_23
REMARK    4  A    between atoms: C_6  and  C_10
REMARK    5  A    between atoms: C_8  and  C_13
REMARK    6  A    between atoms: C_9  and  C_14
REMARK    7  A    between atoms: C_10  and  C_15
REMARK    8  A    between atoms: C_10  and  C_16
REMARK    9  A    between atoms: C_11  and  C_18
REMARK   10  A    between atoms: C_13  and  C_17
REMARK   11  A    between atoms: C_23  and  C_24
REMARK                            x       y       z     vdW  Elec       q    Type
REMARK                         _______ _______ _______ _____ _____    ______ ____
ROOT
ATOM      6  C   UNL     1      -4.484   1.149  25.082  0.00  0.00    +0.001 C 
ATOM      7  C   UNL     1      -3.638   2.089  25.955  0.00  0.00    +0.012 C 
ATOM      8  C   UNL     1      -3.960   3.572  25.696  0.00  0.00    +0.023 C 
ATOM      9  C   UNL     1      -5.993   1.378  25.346  0.00  0.00    +0.040 C 
ATOM     11  C   UNL     1      -5.453   3.829  25.675  0.00  0.00    -0.073 C 
ATOM     12  C   UNL     1      -6.347   2.835  25.531  0.00  0.00    -0.022 C 
ATOM     18  C   UNL     1      -5.898   5.253  25.868  0.00  0.00    +0.039 C 
ENDROOT
BRANCH   6  10
ATOM     10  C   UNL     1      -4.076  -0.305  25.337  0.00  0.00    -0.013 C 
ATOM     15  C   UNL     1      -4.023  -1.081  24.026  0.00  0.00    +0.007 C 
ATOM     16  C   UNL     1      -2.730  -0.361  26.054  0.00  0.00    +0.007 C 
ENDBRANCH   6  10
BRANCH   8  13
ATOM     13  C   UNL     1      -3.301   4.063  24.402  0.00  0.00    +0.103 C 
BRANCH  13  17
ATOM      2  O   UNL     1      -1.276   4.965  25.242  0.00  0.00    -0.276 OA
ATOM      4  N   UNL     1      -1.095   3.060  23.925  0.00  0.00    -0.299 N 
ATOM      5  N   UNL     1       0.317   0.640  23.324  0.00  0.00    -0.297 NA
ATOM     17  C   UNL     1      -1.802   4.078  24.565  0.00  0.00    +0.216 C 
ATOM     19  C   UNL     1       0.362   3.002  24.038  0.00  0.00    +0.123 C 
ATOM     20  C   UNL     1      -1.674   2.073  23.009  0.00  0.00    +0.123 C 
ATOM     21  C   UNL     1       0.839   1.580  24.328  0.00  0.00    +0.103 C 
ATOM     22  C   UNL     1      -1.154   0.667  23.312  0.00  0.00    +0.103 C 
BRANCH   5  23
ATOM     23  C   UNL     1       0.804  -0.714  23.586  0.00  0.00    +0.112 C 
BRANCH  23  24
ATOM     24  C   UNL     1      -0.251  -1.531  24.315  0.00  0.00    +0.171 C 
BRANCH  24   3
ATOM      3  O   UNL     1       0.196  -1.776  25.642  0.00  0.00    -0.394 OA
ATOM     26  H   UNL     1      -0.393  -2.449  26.023  0.00  0.00    +0.209 HD
ENDBRANCH  24   3
ENDBRANCH  23  24
ENDBRANCH   5  23
ENDBRANCH  13  17
ENDBRANCH   8  13
BRANCH   9  14
ATOM     14  C   UNL     1      -6.849   0.784  24.221  0.00  0.00    +0.163 C 
BRANCH  14   1
ATOM      1  O   UNL     1      -7.870   1.708  23.904  0.00  0.00    -0.394 OA
ATOM     25  H   UNL     1      -8.639   1.195  23.604  0.00  0.00    +0.209 HD
ENDBRANCH  14   1
ENDBRANCH   9  14
TORSDOF 8
ENDMDL
