MODEL 1
REMARK VINA RESULT:       8.2      0.000      0.000
REMARK  Name = 11882080
REMARK  12 active torsions:
REMARK  status: ('A' for Active; 'I' for Inactive)
REMARK    1  A    between atoms: S_1  and  C_19
REMARK    2  A    between atoms: S_1  and  C_27
REMARK    3  A    between atoms: S_2  and  C_33
REMARK    4  A    between atoms: S_2  and  C_36
REMARK    5  A    between atoms: N_8  and  C_12
REMARK    6  A    between atoms: N_9  and  C_18
REMARK    7  A    between atoms: N_10  and  C_24
REMARK    8  A    between atoms: C_13  and  C_16
REMARK    9  A    between atoms: C_17  and  C_19
REMARK   10  A    between atoms: C_18  and  C_21
REMARK   11  A    between atoms: C_18  and  C_22
REMARK   12  A    between atoms: C_21  and  C_23
REMARK                            x       y       z     vdW  Elec       q    Type
REMARK                         _______ _______ _______ _____ _____    ______ ____
ROOT
ATOM      4  O   UNL     1      -2.722  -0.774  26.194  0.00  0.00    -0.275 OA
ATOM      7  N   UNL     1      -2.510   0.330  24.170  0.00  0.00    -0.287 N 
ATOM     12  C   UNL     1      -0.898   1.828  23.289  0.00  0.00    +0.105 C 
ATOM     13  C   UNL     1      -1.447   1.239  24.588  0.00  0.00    +0.182 C 
ATOM     14  C   UNL     1      -2.094   1.767  22.335  0.00  0.00    +0.043 C 
ATOM     15  C   UNL     1      -2.830   0.500  22.755  0.00  0.00    +0.110 C 
ATOM     17  C   UNL     1      -3.012  -0.660  25.002  0.00  0.00    +0.226 C 
ENDROOT
BRANCH  12   8
ATOM      5  O   UNL     1       1.549   1.261  24.666  0.00  0.00    -0.252 OA
ATOM      8  N   UNL     1       0.210   1.046  22.793  0.00  0.00    -0.294 N 
ATOM     10  N   UNL     1       2.267   0.029  22.801  0.00  0.00    -0.269 N 
ATOM     20  C   UNL     1       1.375   0.816  23.534  0.00  0.00    +0.304 C 
ATOM     37  H   UNL     1       0.115   0.589  21.892  0.00  0.00    +0.151 HD
ATOM     39  H   UNL     1       1.968  -0.257  21.872  0.00  0.00    +0.156 HD
BRANCH  10  24
ATOM     24  C   UNL     1       3.550  -0.423  23.193  0.00  0.00    +0.036 A 
ATOM     28  C   UNL     1       4.627   0.462  23.208  0.00  0.00    +0.038 A 
ATOM     29  C   UNL     1       3.735  -1.754  23.564  0.00  0.00    +0.023 A 
ATOM     33  C   UNL     1       5.891   0.016  23.594  0.00  0.00    +0.009 A 
ATOM     34  C   UNL     1       4.999  -2.201  23.950  0.00  0.00    +0.003 A 
ATOM     35  C   UNL     1       6.077  -1.316  23.965  0.00  0.00    +0.015 A 
BRANCH  33   2
ATOM      2  S   UNL     1       7.269   1.146  23.613  0.00  0.00    -0.129 S 
ATOM     36  C   UNL     1       8.658   0.040  23.238  0.00  0.00    +0.090 C 
ENDBRANCH  33   2
ENDBRANCH  10  24
ENDBRANCH  12   8
BRANCH  13  16
ATOM      3  O   UNL     1      -2.623   2.019  26.513  0.00  0.00    -0.274 OA
ATOM      9  N   UNL     1      -2.033   3.545  24.856  0.00  0.00    -0.302 N 
ATOM     16  C   UNL     1      -2.094   2.291  25.438  0.00  0.00    +0.236 C 
ATOM     38  H   UNL     1      -1.523   3.660  23.985  0.00  0.00    +0.150 HD
BRANCH   9  18
ATOM     18  C   UNL     1      -2.604   4.726  25.464  0.00  0.00    +0.163 C 
BRANCH  18  22
ATOM      6  O   UNL     1      -2.158   7.075  25.030  0.00  0.00    -0.274 OA
ATOM     11  N   UNL     1      -0.485   5.549  24.641  0.00  0.00    -0.328 N 
ATOM     22  C   UNL     1      -1.762   5.912  25.016  0.00  0.00    +0.231 C 
ATOM     40  H   UNL     1       0.184   6.246  24.334  0.00  0.00    +0.145 HD
ATOM     41  H   UNL     1      -0.164   4.586  24.658  0.00  0.00    +0.145 HD
ENDBRANCH  18  22
BRANCH  18  21
ATOM     21  C   UNL     1      -4.071   4.931  25.065  0.00  0.00    +0.067 C 
BRANCH  21  23
ATOM     23  C   UNL     1      -4.902   3.683  25.234  0.00  0.00    -0.045 A 
ATOM     25  C   UNL     1      -5.075   2.811  24.160  0.00  0.00    +0.004 A 
ATOM     26  C   UNL     1      -5.496   3.401  26.464  0.00  0.00    +0.004 A 
ATOM     30  C   UNL     1      -5.843   1.657  24.316  0.00  0.00    +0.000 A 
ATOM     31  C   UNL     1      -6.263   2.247  26.620  0.00  0.00    +0.000 A 
ATOM     32  C   UNL     1      -6.438   1.375  25.547  0.00  0.00    +0.000 A 
ENDBRANCH  21  23
ENDBRANCH  18  21
ENDBRANCH   9  18
ENDBRANCH  13  16
BRANCH  17  19
ATOM     19  C   UNL     1      -3.977  -1.624  24.357  0.00  0.00    +0.164 C 
BRANCH  19   1
ATOM      1  S   UNL     1      -3.249  -3.266  24.443  0.00  0.00    -0.155 S 
ATOM     27  C   UNL     1      -1.510  -2.813  24.224  0.00  0.00    +0.085 C 
ENDBRANCH  19   1
ENDBRANCH  17  19
TORSDOF 10
ENDMDL
MODEL 2
REMARK VINA RESULT:       8.8      2.337      3.734
REMARK  Name = 11882080
REMARK  12 active torsions:
REMARK  status: ('A' for Active; 'I' for Inactive)
REMARK    1  A    between atoms: S_1  and  C_19
REMARK    2  A    between atoms: S_1  and  C_27
REMARK    3  A    between atoms: S_2  and  C_33
REMARK    4  A    between atoms: S_2  and  C_36
REMARK    5  A    between atoms: N_8  and  C_12
REMARK    6  A    between atoms: N_9  and  C_18
REMARK    7  A    between atoms: N_10  and  C_24
REMARK    8  A    between atoms: C_13  and  C_16
REMARK    9  A    between atoms: C_17  and  C_19
REMARK   10  A    between atoms: C_18  and  C_21
REMARK   11  A    between atoms: C_18  and  C_22
REMARK   12  A    between atoms: C_21  and  C_23
REMARK                            x       y       z     vdW  Elec       q    Type
REMARK                         _______ _______ _______ _____ _____    ______ ____
ROOT
ATOM      4  O   UNL     1      -1.047   3.927  26.276  0.00  0.00    -0.275 OA
ATOM      7  N   UNL     1      -0.845   1.734  25.561  0.00  0.00    -0.287 N 
ATOM     12  C   UNL     1      -0.690   0.723  23.422  0.00  0.00    +0.105 C 
ATOM     13  C   UNL     1      -1.125   1.993  24.151  0.00  0.00    +0.182 C 
ATOM     14  C   UNL     1      -0.859  -0.371  24.479  0.00  0.00    +0.043 C 
ATOM     15  C   UNL     1      -0.515   0.330  25.788  0.00  0.00    +0.110 C 
ATOM     17  C   UNL     1      -0.759   2.750  26.501  0.00  0.00    +0.226 C 
ENDROOT
BRANCH  12   8
ATOM      5  O   UNL     1       1.539  -0.764  24.431  0.00  0.00    -0.252 OA
ATOM      8  N   UNL     1       0.682   0.821  22.983  0.00  0.00    -0.294 N 
ATOM     10  N   UNL     1       2.930   0.364  22.912  0.00  0.00    -0.269 N 
ATOM     20  C   UNL     1       1.716   0.055  23.532  0.00  0.00    +0.304 C 
ATOM     37  H   UNL     1       0.898   1.427  22.198  0.00  0.00    +0.151 HD
ATOM     39  H   UNL     1       2.903   1.070  22.182  0.00  0.00    +0.156 HD
BRANCH  10  24
ATOM     24  C   UNL     1       4.205  -0.188  23.177  0.00  0.00    +0.036 A 
ATOM     28  C   UNL     1       5.327   0.638  23.224  0.00  0.00    +0.038 A 
ATOM     29  C   UNL     1       4.339  -1.560  23.392  0.00  0.00    +0.023 A 
ATOM     33  C   UNL     1       6.585   0.093  23.485  0.00  0.00    +0.009 A 
ATOM     34  C   UNL     1       5.596  -2.104  23.654  0.00  0.00    +0.003 A 
ATOM     35  C   UNL     1       6.719  -1.278  23.700  0.00  0.00    +0.015 A 
BRANCH  33   2
ATOM      2  S   UNL     1       8.020   1.148  23.544  0.00  0.00    -0.129 S 
ATOM     36  C   UNL     1       9.350  -0.013  23.126  0.00  0.00    +0.090 C 
ENDBRANCH  33   2
ENDBRANCH  10  24
ENDBRANCH  12   8
BRANCH  13  16
ATOM      3  O   UNL     1      -3.157   2.374  22.958  0.00  0.00    -0.274 OA
ATOM      9  N   UNL     1      -3.224   2.225  25.280  0.00  0.00    -0.302 N 
ATOM     16  C   UNL     1      -2.604   2.211  24.043  0.00  0.00    +0.236 C 
ATOM     38  H   UNL     1      -2.672   2.027  26.110  0.00  0.00    +0.150 HD
BRANCH   9  18
ATOM     18  C   UNL     1      -4.643   2.439  25.451  0.00  0.00    +0.163 C 
BRANCH  18  22
ATOM      6  O   UNL     1      -4.356   4.296  23.911  0.00  0.00    -0.274 OA
ATOM     11  N   UNL     1      -6.050   4.405  25.458  0.00  0.00    -0.328 N 
ATOM     22  C   UNL     1      -4.965   3.802  24.856  0.00  0.00    +0.231 C 
ATOM     40  H   UNL     1      -6.379   5.312  25.148  0.00  0.00    +0.145 HD
ATOM     41  H   UNL     1      -6.559   3.973  26.223  0.00  0.00    +0.145 HD
ENDBRANCH  18  22
BRANCH  18  21
ATOM     21  C   UNL     1      -5.480   1.348  24.771  0.00  0.00    +0.067 C 
BRANCH  21  23
ATOM     23  C   UNL     1      -4.810  -0.004  24.799  0.00  0.00    -0.045 A 
ATOM     25  C   UNL     1      -4.197  -0.453  25.969  0.00  0.00    +0.004 A 
ATOM     26  C   UNL     1      -4.804  -0.804  23.658  0.00  0.00    +0.004 A 
ATOM     30  C   UNL     1      -3.577  -1.703  25.996  0.00  0.00    +0.000 A 
ATOM     31  C   UNL     1      -4.185  -2.054  23.685  0.00  0.00    +0.000 A 
ATOM     32  C   UNL     1      -3.571  -2.503  24.853  0.00  0.00    +0.000 A 
ENDBRANCH  21  23
ENDBRANCH  18  21
ENDBRANCH   9  18
ENDBRANCH  13  16
BRANCH  17  19
ATOM     19  C   UNL     1      -0.287   2.330  27.871  0.00  0.00    +0.164 C 
BRANCH  19   1
ATOM      1  S   UNL     1       1.451   2.769  28.009  0.00  0.00    -0.155 S 
ATOM     27  C   UNL     1       1.695   2.398  29.764  0.00  0.00    +0.085 C 
ENDBRANCH  19   1
ENDBRANCH  17  19
TORSDOF 10
ENDMDL
MODEL 3
REMARK VINA RESULT:       9.3      1.523      3.009
REMARK  Name = 11882080
REMARK  12 active torsions:
REMARK  status: ('A' for Active; 'I' for Inactive)
REMARK    1  A    between atoms: S_1  and  C_19
REMARK    2  A    between atoms: S_1  and  C_27
REMARK    3  A    between atoms: S_2  and  C_33
REMARK    4  A    between atoms: S_2  and  C_36
REMARK    5  A    between atoms: N_8  and  C_12
REMARK    6  A    between atoms: N_9  and  C_18
REMARK    7  A    between atoms: N_10  and  C_24
REMARK    8  A    between atoms: C_13  and  C_16
REMARK    9  A    between atoms: C_17  and  C_19
REMARK   10  A    between atoms: C_18  and  C_21
REMARK   11  A    between atoms: C_18  and  C_22
REMARK   12  A    between atoms: C_21  and  C_23
REMARK                            x       y       z     vdW  Elec       q    Type
REMARK                         _______ _______ _______ _____ _____    ______ ____
ROOT
ATOM      4  O   UNL     1      -3.294  -1.420  25.690  0.00  0.00    -0.275 OA
ATOM      7  N   UNL     1      -3.157  -0.153  23.757  0.00  0.00    -0.287 N 
ATOM     12  C   UNL     1      -1.746   1.621  23.064  0.00  0.00    +0.105 C 
ATOM     13  C   UNL     1      -2.259   0.866  24.289  0.00  0.00    +0.182 C 
ATOM     14  C   UNL     1      -2.876   1.457  22.044  0.00  0.00    +0.043 C 
ATOM     15  C   UNL     1      -3.435   0.070  22.340  0.00  0.00    +0.110 C 
ATOM     17  C   UNL     1      -3.544  -1.263  24.494  0.00  0.00    +0.226 C 
ENDROOT
BRANCH  12   8
ATOM      5  O   UNL     1       0.526   0.867  24.637  0.00  0.00    -0.252 OA
ATOM      8  N   UNL     1      -0.513   1.044  22.579  0.00  0.00    -0.294 N 
ATOM     10  N   UNL     1       1.606   0.168  22.672  0.00  0.00    -0.269 N 
ATOM     20  C   UNL     1       0.552   0.703  23.419  0.00  0.00    +0.304 C 
ATOM     37  H   UNL     1      -0.441   0.816  21.593  0.00  0.00    +0.151 HD
ATOM     39  H   UNL     1       1.465   0.102  21.667  0.00  0.00    +0.156 HD
BRANCH  10  24
ATOM     24  C   UNL     1       2.856  -0.296  23.144  0.00  0.00    +0.036 A 
ATOM     28  C   UNL     1       3.944   0.575  23.209  0.00  0.00    +0.038 A 
ATOM     29  C   UNL     1       3.000  -1.624  23.544  0.00  0.00    +0.023 A 
ATOM     33  C   UNL     1       5.177   0.116  23.674  0.00  0.00    +0.009 A 
ATOM     34  C   UNL     1       4.233  -2.082  24.009  0.00  0.00    +0.003 A 
ATOM     35  C   UNL     1       5.321  -1.212  24.074  0.00  0.00    +0.015 A 
BRANCH  33   2
ATOM      2  S   UNL     1       6.568   1.227  23.757  0.00  0.00    -0.129 S 
ATOM     36  C   UNL     1       7.950   0.117  23.369  0.00  0.00    +0.090 C 
ENDBRANCH  33   2
ENDBRANCH  10  24
ENDBRANCH  12   8
BRANCH  13  16
ATOM      3  O   UNL     1      -2.997   1.718  26.394  0.00  0.00    -0.274 OA
ATOM      9  N   UNL     1      -3.955   2.550  24.443  0.00  0.00    -0.302 N 
ATOM     16  C   UNL     1      -3.091   1.750  25.170  0.00  0.00    +0.236 C 
ATOM     38  H   UNL     1      -3.910   2.529  23.428  0.00  0.00    +0.150 HD
BRANCH   9  18
ATOM     18  C   UNL     1      -4.881   3.475  25.056  0.00  0.00    +0.163 C 
BRANCH  18  22
ATOM      6  O   UNL     1      -5.986   2.689  27.072  0.00  0.00    -0.274 OA
ATOM     11  N   UNL     1      -6.701   1.884  25.042  0.00  0.00    -0.328 N 
ATOM     22  C   UNL     1      -5.882   2.648  25.848  0.00  0.00    +0.231 C 
ATOM     40  H   UNL     1      -7.422   1.296  25.444  0.00  0.00    +0.145 HD
ATOM     41  H   UNL     1      -6.619   1.880  24.031  0.00  0.00    +0.145 HD
ENDBRANCH  18  22
BRANCH  18  21
ATOM     21  C   UNL     1      -4.172   4.479  25.974  0.00  0.00    +0.067 C 
BRANCH  21  23
ATOM     23  C   UNL     1      -2.721   4.679  25.611  0.00  0.00    -0.045 A 
ATOM     25  C   UNL     1      -1.752   3.809  26.109  0.00  0.00    +0.004 A 
ATOM     26  C   UNL     1      -2.349   5.733  24.777  0.00  0.00    +0.004 A 
ATOM     30  C   UNL     1      -0.411   3.993  25.774  0.00  0.00    +0.000 A 
ATOM     31  C   UNL     1      -1.007   5.917  24.442  0.00  0.00    +0.000 A 
ATOM     32  C   UNL     1      -0.038   5.047  24.940  0.00  0.00    +0.000 A 
ENDBRANCH  21  23
ENDBRANCH  18  21
ENDBRANCH   9  18
ENDBRANCH  13  16
BRANCH  17  19
ATOM     19  C   UNL     1      -4.326  -2.307  23.736  0.00  0.00    +0.164 C 
BRANCH  19   1
ATOM      1  S   UNL     1      -3.350  -3.817  23.719  0.00  0.00    -0.155 S 
ATOM     27  C   UNL     1      -1.703  -3.087  23.897  0.00  0.00    +0.085 C 
ENDBRANCH  19   1
ENDBRANCH  17  19
TORSDOF 10
ENDMDL
MODEL 4
REMARK VINA RESULT:       9.5      1.731      2.414
REMARK  Name = 11882080
REMARK  12 active torsions:
REMARK  status: ('A' for Active; 'I' for Inactive)
REMARK    1  A    between atoms: S_1  and  C_19
REMARK    2  A    between atoms: S_1  and  C_27
REMARK    3  A    between atoms: S_2  and  C_33
REMARK    4  A    between atoms: S_2  and  C_36
REMARK    5  A    between atoms: N_8  and  C_12
REMARK    6  A    between atoms: N_9  and  C_18
REMARK    7  A    between atoms: N_10  and  C_24
REMARK    8  A    between atoms: C_13  and  C_16
REMARK    9  A    between atoms: C_17  and  C_19
REMARK   10  A    between atoms: C_18  and  C_21
REMARK   11  A    between atoms: C_18  and  C_22
REMARK   12  A    between atoms: C_21  and  C_23
REMARK                            x       y       z     vdW  Elec       q    Type
REMARK                         _______ _______ _______ _____ _____    ______ ____
ROOT
ATOM      4  O   UNL     1      -1.456  -0.318  26.234  0.00  0.00    -0.275 OA
ATOM      7  N   UNL     1      -0.322  -0.330  24.215  0.00  0.00    -0.287 N 
ATOM     12  C   UNL     1       1.412   1.009  23.310  0.00  0.00    +0.105 C 
ATOM     13  C   UNL     1       0.322   0.970  24.379  0.00  0.00    +0.182 C 
ATOM     14  C   UNL     1       0.871   0.088  22.214  0.00  0.00    +0.043 C 
ATOM     15  C   UNL     1       0.109  -0.984  22.983  0.00  0.00    +0.110 C 
ATOM     17  C   UNL     1      -1.109  -0.900  25.204  0.00  0.00    +0.226 C 
ENDROOT
BRANCH  12   8
ATOM      5  O   UNL     1       3.964   1.122  22.014  0.00  0.00    -0.252 OA
ATOM      8  N   UNL     1       2.668   0.522  23.832  0.00  0.00    -0.294 N 
ATOM     10  N   UNL     1       4.916   0.064  23.882  0.00  0.00    -0.269 N 
ATOM     20  C   UNL     1       3.875   0.617  23.131  0.00  0.00    +0.304 C 
ATOM     37  H   UNL     1       2.688   0.152  24.777  0.00  0.00    +0.151 HD
ATOM     39  H   UNL     1       4.670  -0.315  24.793  0.00  0.00    +0.156 HD
BRANCH  10  24
ATOM     24  C   UNL     1       6.282  -0.035  23.530  0.00  0.00    +0.036 A 
ATOM     28  C   UNL     1       7.191   0.922  23.980  0.00  0.00    +0.038 A 
ATOM     29  C   UNL     1       6.720  -1.092  22.732  0.00  0.00    +0.023 A 
ATOM     33  C   UNL     1       8.538   0.823  23.632  0.00  0.00    +0.009 A 
ATOM     34  C   UNL     1       8.067  -1.191  22.385  0.00  0.00    +0.003 A 
ATOM     35  C   UNL     1       8.976  -0.233  22.834  0.00  0.00    +0.015 A 
BRANCH  33   2
ATOM      2  S   UNL     1       9.700   2.047  24.207  0.00  0.00    -0.129 S 
ATOM     36  C   UNL     1      10.210   2.830  22.651  0.00  0.00    +0.090 C 
ENDBRANCH  33   2
ENDBRANCH  10  24
ENDBRANCH  12   8
BRANCH  13  16
ATOM      3  O   UNL     1      -1.256   2.140  23.022  0.00  0.00    -0.274 OA
ATOM      9  N   UNL     1      -1.006   2.762  25.251  0.00  0.00    -0.302 N 
ATOM     16  C   UNL     1      -0.734   2.004  24.125  0.00  0.00    +0.236 C 
ATOM     38  H   UNL     1      -0.548   2.526  26.127  0.00  0.00    +0.150 HD
BRANCH   9  18
ATOM     18  C   UNL     1      -1.969   3.840  25.264  0.00  0.00    +0.163 C 
BRANCH  18  22
ATOM      6  O   UNL     1      -0.028   5.156  24.627  0.00  0.00    -0.274 OA
ATOM     11  N   UNL     1      -2.002   6.249  25.061  0.00  0.00    -0.328 N 
ATOM     22  C   UNL     1      -1.209   5.124  24.964  0.00  0.00    +0.231 C 
ATOM     40  H   UNL     1      -1.622   7.170  24.873  0.00  0.00    +0.145 HD
ATOM     41  H   UNL     1      -2.983   6.204  25.317  0.00  0.00    +0.145 HD
ENDBRANCH  18  22
BRANCH  18  21
ATOM     21  C   UNL     1      -3.088   3.629  24.237  0.00  0.00    +0.067 C 
BRANCH  21  23
ATOM     23  C   UNL     1      -4.246   2.835  24.790  0.00  0.00    -0.045 A 
ATOM     25  C   UNL     1      -4.358   1.475  24.502  0.00  0.00    +0.004 A 
ATOM     26  C   UNL     1      -5.203   3.459  25.589  0.00  0.00    +0.004 A 
ATOM     30  C   UNL     1      -5.428   0.740  25.013  0.00  0.00    +0.000 A 
ATOM     31  C   UNL     1      -6.273   2.724  26.100  0.00  0.00    +0.000 A 
ATOM     32  C   UNL     1      -6.386   1.365  25.812  0.00  0.00    +0.000 A 
ENDBRANCH  21  23
ENDBRANCH  18  21
ENDBRANCH   9  18
ENDBRANCH  13  16
BRANCH  17  19
ATOM     19  C   UNL     1      -1.549  -2.320  24.947  0.00  0.00    +0.164 C 
BRANCH  19   1
ATOM      1  S   UNL     1      -3.283  -2.446  25.404  0.00  0.00    -0.155 S 
ATOM     27  C   UNL     1      -4.019  -2.289  23.758  0.00  0.00    +0.085 C 
ENDBRANCH  19   1
ENDBRANCH  17  19
TORSDOF 10
ENDMDL
MODEL 5
REMARK VINA RESULT:      10.0      1.782      3.275
REMARK  Name = 11882080
REMARK  12 active torsions:
REMARK  status: ('A' for Active; 'I' for Inactive)
REMARK    1  A    between atoms: S_1  and  C_19
REMARK    2  A    between atoms: S_1  and  C_27
REMARK    3  A    between atoms: S_2  and  C_33
REMARK    4  A    between atoms: S_2  and  C_36
REMARK    5  A    between atoms: N_8  and  C_12
REMARK    6  A    between atoms: N_9  and  C_18
REMARK    7  A    between atoms: N_10  and  C_24
REMARK    8  A    between atoms: C_13  and  C_16
REMARK    9  A    between atoms: C_17  and  C_19
REMARK   10  A    between atoms: C_18  and  C_21
REMARK   11  A    between atoms: C_18  and  C_22
REMARK   12  A    between atoms: C_21  and  C_23
REMARK                            x       y       z     vdW  Elec       q    Type
REMARK                         _______ _______ _______ _____ _____    ______ ____
ROOT
ATOM      4  O   UNL     1      -2.591  -0.628  26.133  0.00  0.00    -0.275 OA
ATOM      7  N   UNL     1      -1.431  -0.497  24.134  0.00  0.00    -0.287 N 
ATOM     12  C   UNL     1      -0.177   1.219  23.083  0.00  0.00    +0.105 C 
ATOM     13  C   UNL     1      -1.241   0.950  24.146  0.00  0.00    +0.182 C 
ATOM     14  C   UNL     1      -0.352   0.057  22.101  0.00  0.00    +0.043 C 
ATOM     15  C   UNL     1      -0.765  -1.111  22.988  0.00  0.00    +0.110 C 
ATOM     17  C   UNL     1      -2.035  -1.177  25.181  0.00  0.00    +0.226 C 
ENDROOT
BRANCH  12   8
ATOM      5  O   UNL     1       2.068  -0.340  22.229  0.00  0.00    -0.252 OA
ATOM      8  N   UNL     1       1.146   1.220  23.664  0.00  0.00    -0.294 N 
ATOM     10  N   UNL     1       3.348   0.637  23.938  0.00  0.00    -0.269 N 
ATOM     20  C   UNL     1       2.191   0.425  23.183  0.00  0.00    +0.304 C 
ATOM     37  H   UNL     1       1.345   1.875  24.413  0.00  0.00    +0.151 HD
ATOM     39  H   UNL     1       3.280   1.307  24.700  0.00  0.00    +0.156 HD
BRANCH  10  24
ATOM     24  C   UNL     1       4.615   0.028  23.775  0.00  0.00    +0.036 A 
ATOM     28  C   UNL     1       5.766   0.813  23.739  0.00  0.00    +0.038 A 
ATOM     29  C   UNL     1       4.710  -1.357  23.651  0.00  0.00    +0.023 A 
ATOM     33  C   UNL     1       7.016   0.212  23.578  0.00  0.00    +0.009 A 
ATOM     34  C   UNL     1       5.959  -1.958  23.490  0.00  0.00    +0.003 A 
ATOM     35  C   UNL     1       7.111  -1.173  23.454  0.00  0.00    +0.015 A 
BRANCH  33   2
ATOM      2  S   UNL     1       8.489   1.214  23.531  0.00  0.00    -0.129 S 
ATOM     36  C   UNL     1       9.758  -0.014  23.116  0.00  0.00    +0.090 C 
ENDBRANCH  33   2
ENDBRANCH  10  24
ENDBRANCH  12   8
BRANCH  13  16
ATOM      3  O   UNL     1      -2.826   1.858  22.609  0.00  0.00    -0.274 OA
ATOM      9  N   UNL     1      -3.384   1.740  24.866  0.00  0.00    -0.302 N 
ATOM     16  C   UNL     1      -2.560   1.556  23.769  0.00  0.00    +0.236 C 
ATOM     38  H   UNL     1      -3.078   1.404  25.775  0.00  0.00    +0.150 HD
BRANCH   9  18
ATOM     18  C   UNL     1      -4.701   2.328  24.775  0.00  0.00    +0.163 C 
BRANCH  18  22
ATOM      6  O   UNL     1      -5.612   0.403  25.944  0.00  0.00    -0.274 OA
ATOM     11  N   UNL     1      -6.299   2.501  26.581  0.00  0.00    -0.328 N 
ATOM     22  C   UNL     1      -5.579   1.622  25.797  0.00  0.00    +0.231 C 
ATOM     40  H   UNL     1      -6.915   2.161  27.311  0.00  0.00    +0.145 HD
ATOM     41  H   UNL     1      -6.243   3.507  26.464  0.00  0.00    +0.145 HD
ENDBRANCH  18  22
BRANCH  18  21
ATOM     21  C   UNL     1      -4.681   3.839  25.040  0.00  0.00    +0.067 C 
BRANCH  21  23
ATOM     23  C   UNL     1      -3.288   4.420  24.999  0.00  0.00    -0.045 A 
ATOM     25  C   UNL     1      -2.282   3.875  25.796  0.00  0.00    +0.004 A 
ATOM     26  C   UNL     1      -3.008   5.500  24.163  0.00  0.00    +0.004 A 
ATOM     30  C   UNL     1      -0.995   4.411  25.758  0.00  0.00    +0.000 A 
ATOM     31  C   UNL     1      -1.720   6.036  24.125  0.00  0.00    +0.000 A 
ATOM     32  C   UNL     1      -0.714   5.493  24.922  0.00  0.00    +0.000 A 
ENDBRANCH  21  23
ENDBRANCH  18  21
ENDBRANCH   9  18
ENDBRANCH  13  16
BRANCH  17  19
ATOM     19  C   UNL     1      -1.990  -2.683  25.090  0.00  0.00    +0.164 C 
BRANCH  19   1
ATOM      1  S   UNL     1      -3.627  -3.251  24.611  0.00  0.00    -0.155 S 
ATOM     27  C   UNL     1      -4.209  -1.755  23.775  0.00  0.00    +0.085 C 
ENDBRANCH  19   1
ENDBRANCH  17  19
TORSDOF 10
ENDMDL
MODEL 6
REMARK VINA RESULT:      10.7      2.442      4.055
REMARK  Name = 11882080
REMARK  12 active torsions:
REMARK  status: ('A' for Active; 'I' for Inactive)
REMARK    1  A    between atoms: S_1  and  C_19
REMARK    2  A    between atoms: S_1  and  C_27
REMARK    3  A    between atoms: S_2  and  C_33
REMARK    4  A    between atoms: S_2  and  C_36
REMARK    5  A    between atoms: N_8  and  C_12
REMARK    6  A    between atoms: N_9  and  C_18
REMARK    7  A    between atoms: N_10  and  C_24
REMARK    8  A    between atoms: C_13  and  C_16
REMARK    9  A    between atoms: C_17  and  C_19
REMARK   10  A    between atoms: C_18  and  C_21
REMARK   11  A    between atoms: C_18  and  C_22
REMARK   12  A    between atoms: C_21  and  C_23
REMARK                            x       y       z     vdW  Elec       q    Type
REMARK                         _______ _______ _______ _____ _____    ______ ____
ROOT
ATOM      4  O   UNL     1      -0.237   3.293  25.117  0.00  0.00    -0.275 OA
ATOM      7  N   UNL     1      -0.636   1.012  25.109  0.00  0.00    -0.287 N 
ATOM     12  C   UNL     1      -0.442  -0.674  23.453  0.00  0.00    +0.105 C 
ATOM     13  C   UNL     1      -0.562   0.835  23.662  0.00  0.00    +0.182 C 
ATOM     14  C   UNL     1      -1.141  -1.261  24.682  0.00  0.00    +0.043 C 
ATOM     15  C   UNL     1      -0.825  -0.265  25.792  0.00  0.00    +0.110 C 
ATOM     17  C   UNL     1      -0.392   2.231  25.723  0.00  0.00    +0.226 C 
ENDROOT
BRANCH  12   8
ATOM      5  O   UNL     1       1.851   1.021  23.720  0.00  0.00    -0.252 OA
ATOM      8  N   UNL     1       0.943  -1.080  23.394  0.00  0.00    -0.294 N 
ATOM     10  N   UNL     1       3.227  -0.860  23.433  0.00  0.00    -0.269 N 
ATOM     20  C   UNL     1       2.008  -0.183  23.534  0.00  0.00    +0.304 C 
ATOM     37  H   UNL     1       1.154  -2.069  23.310  0.00  0.00    +0.151 HD
ATOM     39  H   UNL     1       3.181  -1.864  23.277  0.00  0.00    +0.156 HD
BRANCH  10  24
ATOM     24  C   UNL     1       4.531  -0.317  23.519  0.00  0.00    +0.036 A 
ATOM     28  C   UNL     1       5.611  -1.006  22.967  0.00  0.00    +0.038 A 
ATOM     29  C   UNL     1       4.735   0.906  24.156  0.00  0.00    +0.023 A 
ATOM     33  C   UNL     1       6.896  -0.470  23.052  0.00  0.00    +0.009 A 
ATOM     34  C   UNL     1       6.020   1.441  24.242  0.00  0.00    +0.003 A 
ATOM     35  C   UNL     1       7.100   0.754  23.690  0.00  0.00    +0.015 A 
BRANCH  33   2
ATOM      2  S   UNL     1       8.278  -1.348  22.347  0.00  0.00    -0.129 S 
ATOM     36  C   UNL     1       9.669  -0.277  22.807  0.00  0.00    +0.090 C 
ENDBRANCH  33   2
ENDBRANCH  10  24
ENDBRANCH  12   8
BRANCH  13  16
ATOM      3  O   UNL     1      -1.878   2.021  22.063  0.00  0.00    -0.274 OA
ATOM      9  N   UNL     1      -2.936   1.050  23.895  0.00  0.00    -0.302 N 
ATOM     16  C   UNL     1      -1.847   1.367  23.101  0.00  0.00    +0.236 C 
ATOM     38  H   UNL     1      -2.797   0.457  24.708  0.00  0.00    +0.150 HD
BRANCH   9  18
ATOM     18  C   UNL     1      -4.285   1.465  23.587  0.00  0.00    +0.163 C 
BRANCH  18  22
ATOM      6  O   UNL     1      -6.294   1.478  24.955  0.00  0.00    -0.274 OA
ATOM     11  N   UNL     1      -4.575   0.071  25.541  0.00  0.00    -0.328 N 
ATOM     22  C   UNL     1      -5.163   1.041  24.755  0.00  0.00    +0.231 C 
ATOM     40  H   UNL     1      -5.059  -0.310  26.346  0.00  0.00    +0.145 HD
ATOM     41  H   UNL     1      -3.649  -0.299  25.349  0.00  0.00    +0.145 HD
ENDBRANCH  18  22
BRANCH  18  21
ATOM     21  C   UNL     1      -4.389   2.979  23.364  0.00  0.00    +0.067 C 
BRANCH  21  23
ATOM     23  C   UNL     1      -3.735   3.778  24.466  0.00  0.00    -0.045 A 
ATOM     25  C   UNL     1      -4.106   3.567  25.793  0.00  0.00    +0.004 A 
ATOM     26  C   UNL     1      -2.760   4.725  24.157  0.00  0.00    +0.004 A 
ATOM     30  C   UNL     1      -3.502   4.304  26.812  0.00  0.00    +0.000 A 
ATOM     31  C   UNL     1      -2.156   5.462  25.175  0.00  0.00    +0.000 A 
ATOM     32  C   UNL     1      -2.527   5.252  26.503  0.00  0.00    +0.000 A 
ENDBRANCH  21  23
ENDBRANCH  18  21
ENDBRANCH   9  18
ENDBRANCH  13  16
BRANCH  17  19
ATOM     19  C   UNL     1      -0.332   2.200  27.230  0.00  0.00    +0.164 C 
BRANCH  19   1
ATOM      1  S   UNL     1       1.311   2.741  27.724  0.00  0.00    -0.155 S 
ATOM     27  C   UNL     1       1.205   2.377  29.494  0.00  0.00    +0.085 C 
ENDBRANCH  19   1
ENDBRANCH  17  19
TORSDOF 10
ENDMDL
MODEL 7
REMARK VINA RESULT:      10.9      2.307      4.458
REMARK  Name = 11882080
REMARK  12 active torsions:
REMARK  status: ('A' for Active; 'I' for Inactive)
REMARK    1  A    between atoms: S_1  and  C_19
REMARK    2  A    between atoms: S_1  and  C_27
REMARK    3  A    between atoms: S_2  and  C_33
REMARK    4  A    between atoms: S_2  and  C_36
REMARK    5  A    between atoms: N_8  and  C_12
REMARK    6  A    between atoms: N_9  and  C_18
REMARK    7  A    between atoms: N_10  and  C_24
REMARK    8  A    between atoms: C_13  and  C_16
REMARK    9  A    between atoms: C_17  and  C_19
REMARK   10  A    between atoms: C_18  and  C_21
REMARK   11  A    between atoms: C_18  and  C_22
REMARK   12  A    between atoms: C_21  and  C_23
REMARK                            x       y       z     vdW  Elec       q    Type
REMARK                         _______ _______ _______ _____ _____    ______ ____
ROOT
ATOM      4  O   UNL     1      -2.651   4.757  23.339  0.00  0.00    -0.275 OA
ATOM      7  N   UNL     1      -1.668   3.149  24.684  0.00  0.00    -0.287 N 
ATOM     12  C   UNL     1      -0.831   0.969  24.276  0.00  0.00    +0.105 C 
ATOM     13  C   UNL     1      -1.755   2.053  23.724  0.00  0.00    +0.182 C 
ATOM     14  C   UNL     1      -0.847   1.222  25.786  0.00  0.00    +0.043 C 
ATOM     15  C   UNL     1      -0.973   2.736  25.900  0.00  0.00    +0.110 C 
ATOM     17  C   UNL     1      -2.065   4.442  24.375  0.00  0.00    +0.226 C 
ENDROOT
BRANCH  12   8
ATOM      5  O   UNL     1       1.385  -0.783  24.748  0.00  0.00    -0.252 OA
ATOM      8  N   UNL     1       0.502   1.099  23.736  0.00  0.00    -0.294 N 
ATOM     10  N   UNL     1       2.704   0.575  23.358  0.00  0.00    -0.269 N 
ATOM     20  C   UNL     1       1.532   0.195  24.018  0.00  0.00    +0.304 C 
ATOM     37  H   UNL     1       0.684   1.843  23.071  0.00  0.00    +0.151 HD
ATOM     39  H   UNL     1       2.656   1.416  22.790  0.00  0.00    +0.156 HD
BRANCH  10  24
ATOM     24  C   UNL     1       3.962  -0.071  23.384  0.00  0.00    +0.036 A 
ATOM     28  C   UNL     1       5.133   0.684  23.429  0.00  0.00    +0.038 A 
ATOM     29  C   UNL     1       4.031  -1.464  23.363  0.00  0.00    +0.023 A 
ATOM     33  C   UNL     1       6.374   0.047  23.454  0.00  0.00    +0.009 A 
ATOM     34  C   UNL     1       5.271  -2.101  23.388  0.00  0.00    +0.003 A 
ATOM     35  C   UNL     1       6.443  -1.346  23.434  0.00  0.00    +0.015 A 
BRANCH  33   2
ATOM      2  S   UNL     1       7.872   1.011  23.512  0.00  0.00    -0.129 S 
ATOM     36  C   UNL     1       9.127  -0.232  23.097  0.00  0.00    +0.090 C 
ENDBRANCH  33   2
ENDBRANCH  10  24
ENDBRANCH  12   8
BRANCH  13  16
ATOM      3  O   UNL     1      -3.797   1.407  22.669  0.00  0.00    -0.274 OA
ATOM      9  N   UNL     1      -3.701   1.476  24.994  0.00  0.00    -0.302 N 
ATOM     16  C   UNL     1      -3.186   1.605  23.716  0.00  0.00    +0.236 C 
ATOM     38  H   UNL     1      -3.086   1.617  25.790  0.00  0.00    +0.150 HD
BRANCH   9  18
ATOM     18  C   UNL     1      -5.065   1.079  25.260  0.00  0.00    +0.163 C 
BRANCH  18  22
ATOM      6  O   UNL     1      -5.580   3.419  24.856  0.00  0.00    -0.274 OA
ATOM     11  N   UNL     1      -7.221   1.854  24.488  0.00  0.00    -0.328 N 
ATOM     22  C   UNL     1      -5.956   2.250  24.872  0.00  0.00    +0.231 C 
ATOM     40  H   UNL     1      -7.911   2.535  24.192  0.00  0.00    +0.145 HD
ATOM     41  H   UNL     1      -7.510   0.881  24.483  0.00  0.00    +0.145 HD
ENDBRANCH  18  22
BRANCH  18  21
ATOM     21  C   UNL     1      -5.465  -0.179  24.478  0.00  0.00    +0.067 C 
BRANCH  21  23
ATOM     23  C   UNL     1      -4.419  -1.265  24.547  0.00  0.00    -0.045 A 
ATOM     25  C   UNL     1      -3.547  -1.325  25.633  0.00  0.00    +0.004 A 
ATOM     26  C   UNL     1      -4.325  -2.209  23.525  0.00  0.00    +0.004 A 
ATOM     30  C   UNL     1      -2.580  -2.328  25.697  0.00  0.00    +0.000 A 
ATOM     31  C   UNL     1      -3.359  -3.213  23.589  0.00  0.00    +0.000 A 
ATOM     32  C   UNL     1      -2.486  -3.273  24.675  0.00  0.00    +0.000 A 
ENDBRANCH  21  23
ENDBRANCH  18  21
ENDBRANCH   9  18
ENDBRANCH  13  16
BRANCH  17  19
ATOM     19  C   UNL     1      -1.741   5.487  25.415  0.00  0.00    +0.164 C 
BRANCH  19   1
ATOM      1  S   UNL     1      -3.235   5.789  26.369  0.00  0.00    -0.155 S 
ATOM     27  C   UNL     1      -3.462   4.133  27.065  0.00  0.00    +0.085 C 
ENDBRANCH  19   1
ENDBRANCH  17  19
TORSDOF 10
ENDMDL
MODEL 8
REMARK VINA RESULT:      11.1      3.823      6.173
REMARK  Name = 11882080
REMARK  12 active torsions:
REMARK  status: ('A' for Active; 'I' for Inactive)
REMARK    1  A    between atoms: S_1  and  C_19
REMARK    2  A    between atoms: S_1  and  C_27
REMARK    3  A    between atoms: S_2  and  C_33
REMARK    4  A    between atoms: S_2  and  C_36
REMARK    5  A    between atoms: N_8  and  C_12
REMARK    6  A    between atoms: N_9  and  C_18
REMARK    7  A    between atoms: N_10  and  C_24
REMARK    8  A    between atoms: C_13  and  C_16
REMARK    9  A    between atoms: C_17  and  C_19
REMARK   10  A    between atoms: C_18  and  C_21
REMARK   11  A    between atoms: C_18  and  C_22
REMARK   12  A    between atoms: C_21  and  C_23
REMARK                            x       y       z     vdW  Elec       q    Type
REMARK                         _______ _______ _______ _____ _____    ______ ____
ROOT
ATOM      4  O   UNL     1       0.454  -1.199  23.757  0.00  0.00    -0.275 OA
ATOM      7  N   UNL     1       0.302   1.076  23.357  0.00  0.00    -0.287 N 
ATOM     12  C   UNL     1      -0.869   2.845  24.415  0.00  0.00    +0.105 C 
ATOM     13  C   UNL     1      -0.826   1.327  24.249  0.00  0.00    +0.182 C 
ATOM     14  C   UNL     1      -0.253   3.365  23.113  0.00  0.00    +0.043 C 
ATOM     15  C   UNL     1       0.795   2.316  22.762  0.00  0.00    +0.110 C 
ATOM     17  C   UNL     1       0.898  -0.171  23.243  0.00  0.00    +0.226 C 
ENDROOT
BRANCH  12   8
ATOM      5  O   UNL     1      -0.246   1.269  26.723  0.00  0.00    -0.252 OA
ATOM      8  N   UNL     1      -0.099   3.263  25.563  0.00  0.00    -0.294 N 
ATOM     10  N   UNL     1       0.926   3.101  27.609  0.00  0.00    -0.269 N 
ATOM     20  C   UNL     1       0.160   2.427  26.654  0.00  0.00    +0.304 C 
ATOM     37  H   UNL     1       0.327   4.184  25.551  0.00  0.00    +0.151 HD
ATOM     39  H   UNL     1       1.180   4.062  27.397  0.00  0.00    +0.156 HD
BRANCH  10  24
ATOM     24  C   UNL     1       1.397   2.608  28.850  0.00  0.00    +0.036 A 
ATOM     28  C   UNL     1       0.611   2.738  29.995  0.00  0.00    +0.038 A 
ATOM     29  C   UNL     1       2.645   1.992  28.926  0.00  0.00    +0.023 A 
ATOM     33  C   UNL     1       1.076   2.252  31.218  0.00  0.00    +0.009 A 
ATOM     34  C   UNL     1       3.109   1.506  30.148  0.00  0.00    +0.003 A 
ATOM     35  C   UNL     1       2.325   1.636  31.294  0.00  0.00    +0.015 A 
BRANCH  33   2
ATOM      2  S   UNL     1       0.074   2.418  32.683  0.00  0.00    -0.129 S 
ATOM     36  C   UNL     1      -0.004   4.221  32.873  0.00  0.00    +0.090 C 
ENDBRANCH  33   2
ENDBRANCH  10  24
ENDBRANCH  12   8
BRANCH  13  16
ATOM      3  O   UNL     1      -2.282   1.090  22.372  0.00  0.00    -0.274 OA
ATOM      9  N   UNL     1      -2.846   0.047  24.376  0.00  0.00    -0.302 N 
ATOM     16  C   UNL     1      -2.047   0.815  23.546  0.00  0.00    +0.236 C 
ATOM     38  H   UNL     1      -2.524  -0.157  25.318  0.00  0.00    +0.150 HD
BRANCH   9  18
ATOM     18  C   UNL     1      -4.092  -0.545  23.947  0.00  0.00    +0.163 C 
BRANCH  18  22
ATOM      6  O   UNL     1      -4.585  -2.885  23.518  0.00  0.00    -0.274 OA
ATOM     11  N   UNL     1      -3.086  -2.365  25.179  0.00  0.00    -0.328 N 
ATOM     22  C   UNL     1      -3.980  -2.044  24.179  0.00  0.00    +0.231 C 
ATOM     40  H   UNL     1      -2.907  -3.332  25.426  0.00  0.00    +0.145 HD
ATOM     41  H   UNL     1      -2.575  -1.660  25.701  0.00  0.00    +0.145 HD
ENDBRANCH  18  22
BRANCH  18  21
ATOM     21  C   UNL     1      -5.296   0.025  24.707  0.00  0.00    +0.067 C 
BRANCH  21  23
ATOM     23  C   UNL     1      -5.202   1.517  24.916  0.00  0.00    -0.045 A 
ATOM     25  C   UNL     1      -5.851   2.111  25.998  0.00  0.00    +0.004 A 
ATOM     26  C   UNL     1      -4.465   2.301  24.029  0.00  0.00    +0.004 A 
ATOM     30  C   UNL     1      -5.764   3.490  26.192  0.00  0.00    +0.000 A 
ATOM     31  C   UNL     1      -4.378   3.680  24.223  0.00  0.00    +0.000 A 
ATOM     32  C   UNL     1      -5.028   4.274  25.304  0.00  0.00    +0.000 A 
ENDBRANCH  21  23
ENDBRANCH  18  21
ENDBRANCH   9  18
ENDBRANCH  13  16
BRANCH  17  19
ATOM     19  C   UNL     1       2.160  -0.216  22.417  0.00  0.00    +0.164 C 
BRANCH  19   1
ATOM      1  S   UNL     1       3.525  -0.593  23.526  0.00  0.00    -0.155 S 
ATOM     27  C   UNL     1       4.752   0.561  22.861  0.00  0.00    +0.085 C 
ENDBRANCH  19   1
ENDBRANCH  17  19
TORSDOF 10
ENDMDL
