MODEL 1
REMARK VINA RESULT:      -2.4      0.000      0.000
REMARK  Name = 7142743
REMARK  6 active torsions:
REMARK  status: ('A' for Active; 'I' for Inactive)
REMARK    1  A    between atoms: O_4  and  C_22
REMARK    2  A    between atoms: O_4  and  C_25
REMARK    3  A    between atoms: N_8  and  C_19
REMARK    4  A    between atoms: C_18  and  C_21
REMARK    5  A    between atoms: C_21  and  C_22
REMARK    6  A    between atoms: C_23  and  C_24
REMARK                            x       y       z     vdW  Elec       q    Type
REMARK                         _______ _______ _______ _____ _____    ______ ____
ROOT
ATOM      2  O   UNL     1       0.199   2.255  26.012  0.00  0.00    -0.266 OA
ATOM      3  O   UNL     1      -4.298  -0.591  26.602  0.00  0.00    -0.276 OA
ATOM      6  N   UNL     1      -4.614   1.148  25.093  0.00  0.00    -0.300 N 
ATOM      7  N   UNL     1      -1.771   2.582  24.800  0.00  0.00    -0.310 N 
ATOM      9  C   UNL     1      -3.937   3.421  25.877  0.00  0.00    +0.027 C 
ATOM     10  C   UNL     1      -3.892   2.895  23.475  0.00  0.00    +0.054 C 
ATOM     11  C   UNL     1      -4.245   3.978  24.492  0.00  0.00    +0.018 C 
ATOM     12  C   UNL     1      -4.768   2.154  26.146  0.00  0.00    +0.113 C 
ATOM     13  C   UNL     1      -2.430   3.155  25.981  0.00  0.00    +0.130 C 
ATOM     14  C   UNL     1      -4.768   1.650  23.720  0.00  0.00    +0.117 C 
ATOM     15  C   UNL     1      -2.425   2.518  23.566  0.00  0.00    +0.027 A 
ATOM     16  C   UNL     1      -1.765   2.097  22.473  0.00  0.00    +0.024 A 
ATOM     17  C   UNL     1      -0.422   2.199  24.951  0.00  0.00    +0.273 A 
ATOM     18  C   UNL     1      -4.425  -0.190  25.442  0.00  0.00    +0.218 C 
ATOM     19  C   UNL     1       0.269   1.714  23.715  0.00  0.00    +0.099 A 
ATOM     20  C   UNL     1      -0.392   1.686  22.553  0.00  0.00    +0.030 A 
ENDROOT
BRANCH  19   8
ATOM      5  O   UNL     1       1.586  -0.216  22.077  0.00  0.00    -0.269 OA
ATOM      8  N   UNL     1       1.571   1.322  23.822  0.00  0.00    -0.277 N 
ATOM     23  C   UNL     1       2.155   0.375  22.991  0.00  0.00    +0.255 C 
ATOM     29  H   UNL     1       2.070   1.603  24.661  0.00  0.00    +0.155 HD
BRANCH  23  24
ATOM      1  S   UNL     1       3.990  -1.430  23.841  0.00  0.00    -0.092 S 
ATOM     24  C   UNL     1       3.592   0.094  23.246  0.00  0.00    +0.074 A 
ATOM     26  C   UNL     1       4.622   0.932  23.053  0.00  0.00    +0.021 A 
ATOM     27  C   UNL     1       5.844   0.296  23.414  0.00  0.00    +0.008 A 
ATOM     28  C   UNL     1       5.645  -0.993  23.860  0.00  0.00    +0.046 A 
ENDBRANCH  23  24
ENDBRANCH  19   8
BRANCH  18  21
ATOM     21  C   UNL     1      -4.370  -1.182  24.308  0.00  0.00    +0.124 C 
BRANCH  21  22
ATOM     22  C   UNL     1      -3.074  -1.961  24.380  0.00  0.00    +0.168 C 
BRANCH  22   4
ATOM      4  O   UNL     1      -1.975  -1.061  24.313  0.00  0.00    -0.382 OA
ATOM     25  C   UNL     1      -0.896  -1.495  25.130  0.00  0.00    +0.194 C 
ENDBRANCH  22   4
ENDBRANCH  21  22
ENDBRANCH  18  21
TORSDOF 5
ENDMDL
