MODEL 1
REMARK VINA RESULT:       5.0      0.000      0.000
REMARK  Name = 11886263
REMARK  7 active torsions:
REMARK  status: ('A' for Active; 'I' for Inactive)
REMARK    1  A    between atoms: O_6  and  C_23
REMARK    2  A    between atoms: O_6  and  C_26
REMARK    3  A    between atoms: N_8  and  C_19
REMARK    4  A    between atoms: N_9  and  C_20
REMARK    5  A    between atoms: N_13  and  C_25
REMARK    6  A    between atoms: N_14  and  C_35
REMARK    7  A    between atoms: C_31  and  C_37
REMARK                            x       y       z     vdW  Elec       q    Type
REMARK                         _______ _______ _______ _____ _____    ______ ____
ROOT
ATOM      4  O   UNL     1      -4.527  -0.734  23.448  0.00  0.00    -0.370 OA
ATOM      5  O   UNL     1      -3.556  -0.996  26.428  0.00  0.00    -0.370 OA
ATOM     17  C   UNL     1      -3.573   0.083  25.475  0.00  0.00    +0.176 C 
ATOM     18  C   UNL     1      -3.274  -0.517  24.115  0.00  0.00    +0.172 C 
ATOM     19  C   UNL     1      -4.979   0.638  25.350  0.00  0.00    +0.171 C 
ATOM     20  C   UNL     1      -2.611  -1.840  24.427  0.00  0.00    +0.131 C 
ATOM     21  C   UNL     1      -5.597  -0.234  24.262  0.00  0.00    +0.190 C 
ATOM     22  C   UNL     1      -3.257  -2.222  25.746  0.00  0.00    +0.185 C 
ENDROOT
BRANCH  20   9
ATOM      7  O   UNL     1      -0.829  -0.580  22.572  0.00  0.00    -0.252 OA
ATOM      9  N   UNL     1      -1.184  -1.689  24.570  0.00  0.00    -0.292 N 
ATOM     13  N   UNL     1       0.956  -1.060  24.019  0.00  0.00    -0.269 N 
ATOM     24  C   UNL     1      -0.380  -1.057  23.612  0.00  0.00    +0.304 C 
ATOM     40  H   UNL     1      -0.748  -1.997  25.434  0.00  0.00    +0.151 HD
ATOM     41  H   UNL     1       1.160  -1.500  24.912  0.00  0.00    +0.156 HD
BRANCH  13  25
ATOM     25  C   UNL     1       2.073  -0.523  23.336  0.00  0.00    +0.035 A 
ATOM     27  C   UNL     1       3.329  -0.525  23.942  0.00  0.00    +0.035 A 
ATOM     28  C   UNL     1       1.916   0.009  22.056  0.00  0.00    +0.023 A 
ATOM     31  C   UNL     1       4.429   0.006  23.268  0.00  0.00    +0.057 A 
ATOM     32  C   UNL     1       3.017   0.538  21.381  0.00  0.00    +0.002 A 
ATOM     36  C   UNL     1       4.272   0.537  21.987  0.00  0.00    +0.012 A 
BRANCH  31  37
ATOM      1  F   UNL     1       6.128   1.214  24.439  0.00  0.00    -0.166 F 
ATOM      2  F   UNL     1       6.789  -0.329  23.066  0.00  0.00    -0.166 F 
ATOM      3  F   UNL     1       5.855  -0.881  24.951  0.00  0.00    -0.166 F 
ATOM     37  C   UNL     1       5.772   0.004  23.915  0.00  0.00    +0.417 C 
ENDBRANCH  31  37
ENDBRANCH  13  25
ENDBRANCH  20   9
BRANCH  19   8
ATOM      8  N   UNL     1      -4.992   2.077  25.072  0.00  0.00    -0.187 N 
ATOM     10  N   UNL     1      -6.104   2.805  25.238  0.00  0.00    -0.041 NA
ATOM     11  N   UNL     1      -4.436   4.099  24.520  0.00  0.00    -0.071 NA
ATOM     12  N   UNL     1      -5.758   4.042  24.900  0.00  0.00    -0.020 NA
ATOM     23  C   UNL     1      -3.981   2.873  24.636  0.00  0.00    +0.342 A 
BRANCH  23   6
ATOM      6  O   UNL     1      -2.755   2.459  24.375  0.00  0.00    -0.423 OA
BRANCH   6  26
ATOM     26  C   UNL     1      -1.737   2.496  25.317  0.00  0.00    +0.132 A 
ATOM     29  C   UNL     1      -0.490   1.948  25.019  0.00  0.00    +0.048 A 
ATOM     30  C   UNL     1      -1.961   3.084  26.563  0.00  0.00    +0.048 A 
ATOM     33  C   UNL     1       0.534   1.986  25.965  0.00  0.00    +0.031 A 
ATOM     34  C   UNL     1      -0.937   3.121  27.510  0.00  0.00    +0.031 A 
ATOM     35  C   UNL     1       0.310   2.572  27.211  0.00  0.00    +0.067 A 
BRANCH  35  14
ATOM     14  N   UNL     1       1.325   2.610  28.150  0.00  0.00    -0.220 N 
ATOM     15  N   UNL     1       2.527   3.134  27.870  0.00  0.00    -0.154 NA
ATOM     16  N   UNL     1       2.426   2.360  30.021  0.00  0.00    -0.222 NA
ATOM     38  C   UNL     1       1.274   2.152  29.430  0.00  0.00    +0.225 A 
ATOM     39  C   UNL     1       3.157   2.959  29.034  0.00  0.00    +0.245 A 
ENDBRANCH  35  14
ENDBRANCH   6  26
ENDBRANCH  23   6
ENDBRANCH  19   8
TORSDOF 7
ENDMDL
MODEL 2
REMARK VINA RESULT:       7.2      2.457      4.392
REMARK  Name = 11886263
REMARK  7 active torsions:
REMARK  status: ('A' for Active; 'I' for Inactive)
REMARK    1  A    between atoms: O_6  and  C_23
REMARK    2  A    between atoms: O_6  and  C_26
REMARK    3  A    between atoms: N_8  and  C_19
REMARK    4  A    between atoms: N_9  and  C_20
REMARK    5  A    between atoms: N_13  and  C_25
REMARK    6  A    between atoms: N_14  and  C_35
REMARK    7  A    between atoms: C_31  and  C_37
REMARK                            x       y       z     vdW  Elec       q    Type
REMARK                         _______ _______ _______ _____ _____    ______ ____
ROOT
ATOM      4  O   UNL     1      -2.738   3.909  27.053  0.00  0.00    -0.370 OA
ATOM      5  O   UNL     1      -2.773   5.548  24.370  0.00  0.00    -0.370 OA
ATOM     17  C   UNL     1      -3.335   4.287  24.776  0.00  0.00    +0.176 C 
ATOM     18  C   UNL     1      -2.333   3.629  25.705  0.00  0.00    +0.172 C 
ATOM     19  C   UNL     1      -4.561   4.522  25.638  0.00  0.00    +0.171 C 
ATOM     20  C   UNL     1      -1.025   4.323  25.396  0.00  0.00    +0.131 C 
ATOM     21  C   UNL     1      -3.977   4.631  27.042  0.00  0.00    +0.190 C 
ATOM     22  C   UNL     1      -1.484   5.708  24.980  0.00  0.00    +0.185 C 
ENDROOT
BRANCH  20   9
ATOM      7  O   UNL     1       0.683   2.034  25.623  0.00  0.00    -0.252 OA
ATOM      9  N   UNL     1      -0.322   3.662  24.324  0.00  0.00    -0.292 N 
ATOM     13  N   UNL     1       1.043   2.121  23.306  0.00  0.00    -0.269 N 
ATOM     24  C   UNL     1       0.497   2.543  24.520  0.00  0.00    +0.304 C 
ATOM     40  H   UNL     1      -0.479   3.982  23.373  0.00  0.00    +0.151 HD
ATOM     41  H   UNL     1       0.788   2.655  22.480  0.00  0.00    +0.156 HD
BRANCH  13  25
ATOM     25  C   UNL     1       1.917   1.032  23.078  0.00  0.00    +0.035 A 
ATOM     27  C   UNL     1       3.236   1.089  23.527  0.00  0.00    +0.035 A 
ATOM     28  C   UNL     1       1.459  -0.100  22.404  0.00  0.00    +0.023 A 
ATOM     31  C   UNL     1       4.097   0.015  23.302  0.00  0.00    +0.057 A 
ATOM     32  C   UNL     1       2.319  -1.175  22.180  0.00  0.00    +0.002 A 
ATOM     36  C   UNL     1       3.638  -1.117  22.628  0.00  0.00    +0.012 A 
BRANCH  31  37
ATOM      1  F   UNL     1       6.427  -0.235  22.821  0.00  0.00    -0.166 F 
ATOM      2  F   UNL     1       5.771  -0.776  24.816  0.00  0.00    -0.166 F 
ATOM      3  F   UNL     1       5.855   1.317  24.233  0.00  0.00    -0.166 F 
ATOM     37  C   UNL     1       5.508   0.077  23.782  0.00  0.00    +0.417 C 
ENDBRANCH  31  37
ENDBRANCH  13  25
ENDBRANCH  20   9
BRANCH  19   8
ATOM      8  N   UNL     1      -5.576   3.479  25.467  0.00  0.00    -0.187 N 
ATOM     10  N   UNL     1      -6.719   3.503  26.166  0.00  0.00    -0.041 NA
ATOM     11  N   UNL     1      -6.674   1.725  24.821  0.00  0.00    -0.071 NA
ATOM     12  N   UNL     1      -7.388   2.428  25.766  0.00  0.00    -0.020 NA
ATOM     23  C   UNL     1      -5.558   2.393  24.650  0.00  0.00    +0.342 A 
BRANCH  23   6
ATOM      6  O   UNL     1      -4.569   2.082  23.833  0.00  0.00    -0.423 OA
BRANCH   6  26
ATOM     26  C   UNL     1      -3.642   1.092  24.124  0.00  0.00    +0.132 A 
ATOM     29  C   UNL     1      -3.883   0.195  25.164  0.00  0.00    +0.048 A 
ATOM     30  C   UNL     1      -2.467   0.994  23.378  0.00  0.00    +0.048 A 
ATOM     33  C   UNL     1      -2.952  -0.801  25.458  0.00  0.00    +0.031 A 
ATOM     34  C   UNL     1      -1.535  -0.001  23.672  0.00  0.00    +0.031 A 
ATOM     35  C   UNL     1      -1.777  -0.899  24.712  0.00  0.00    +0.067 A 
BRANCH  35  14
ATOM     14  N   UNL     1      -0.853  -1.885  25.003  0.00  0.00    -0.220 N 
ATOM     15  N   UNL     1       0.447  -1.605  25.182  0.00  0.00    -0.154 NA
ATOM     16  N   UNL     1       0.027  -3.841  25.422  0.00  0.00    -0.222 NA
ATOM     38  C   UNL     1      -1.094  -3.216  25.147  0.00  0.00    +0.225 A 
ATOM     39  C   UNL     1       0.936  -2.822  25.433  0.00  0.00    +0.245 A 
ENDBRANCH  35  14
ENDBRANCH   6  26
ENDBRANCH  23   6
ENDBRANCH  19   8
TORSDOF 7
ENDMDL
