MODEL 1
REMARK VINA RESULT:       0.1      0.000      0.000
REMARK  Name = 11941671
REMARK  5 active torsions:
REMARK  status: ('A' for Active; 'I' for Inactive)
REMARK    1  A    between atoms: N_5  and  C_12
REMARK    2  A    between atoms: N_6  and  C_13
REMARK    3  A    between atoms: C_17  and  C_18
REMARK    4  A    between atoms: C_19  and  C_23
REMARK    5  A    between atoms: C_28  and  C_31
REMARK                            x       y       z     vdW  Elec       q    Type
REMARK                         _______ _______ _______ _____ _____    ______ ____
ROOT
ATOM      1  O   UNL     1      -1.245   1.187  23.301  0.00  0.00    -0.370 OA
ATOM      2  O   UNL     1       1.838   0.706  23.262  0.00  0.00    -0.370 OA
ATOM     10  C   UNL     1       0.736  -0.015  23.839  0.00  0.00    +0.171 C 
ATOM     11  C   UNL     1      -0.264   1.012  24.335  0.00  0.00    +0.171 C 
ATOM     12  C   UNL     1      -0.014  -0.772  22.769  0.00  0.00    +0.130 C 
ATOM     13  C   UNL     1       0.556   2.271  24.502  0.00  0.00    +0.130 C 
ATOM     14  C   UNL     1      -0.971   0.274  22.228  0.00  0.00    +0.185 C 
ATOM     15  C   UNL     1       1.617   2.114  23.426  0.00  0.00    +0.185 C 
ENDROOT
BRANCH  12   5
ATOM      5  N   UNL     1      -0.752  -1.867  23.361  0.00  0.00    -0.306 N 
ATOM      7  N   UNL     1      -2.400  -0.437  24.220  0.00  0.00    -0.214 NA
ATOM      8  N   UNL     1      -2.520  -2.818  24.575  0.00  0.00    -0.223 NA
ATOM     16  C   UNL     1      -1.925  -1.703  24.073  0.00  0.00    +0.216 A 
ATOM     19  C   UNL     1      -3.547  -0.313  24.921  0.00  0.00    +0.076 A 
ATOM     21  C   UNL     1      -3.662  -2.620  25.264  0.00  0.00    +0.116 A 
ATOM     22  C   UNL     1      -4.228  -1.379  25.471  0.00  0.00    +0.048 A 
ATOM     32  H   UNL     1      -0.435  -2.819  23.212  0.00  0.00    +0.149 HD
BRANCH  19  23
ATOM     23  C   UNL     1      -4.034   1.038  25.065  0.00  0.00    +0.002 A 
ATOM     26  C   UNL     1      -3.140   2.112  25.053  0.00  0.00    +0.029 A 
ATOM     27  C   UNL     1      -5.402   1.276  25.218  0.00  0.00    +0.010 A 
ATOM     28  C   UNL     1      -3.612   3.417  25.192  0.00  0.00    +0.052 A 
ATOM     29  C   UNL     1      -5.874   2.581  25.357  0.00  0.00    +0.002 A 
ATOM     30  C   UNL     1      -4.980   3.652  25.345  0.00  0.00    +0.019 A 
BRANCH  28  31
ATOM      9  N   UNL     1      -1.952   5.405  25.169  0.00  0.00    -0.191 NA
ATOM     31  C   UNL     1      -2.697   4.514  25.179  0.00  0.00    +0.099 C 
ENDBRANCH  28  31
ENDBRANCH  19  23
ENDBRANCH  12   5
BRANCH  13   6
ATOM      3  O   UNL     1      -0.837   2.670  26.922  0.00  0.00    -0.267 OA
ATOM      6  N   UNL     1       1.150   2.338  25.816  0.00  0.00    -0.301 N 
ATOM     17  C   UNL     1       0.388   2.538  26.967  0.00  0.00    +0.280 C 
ATOM     33  H   UNL     1       2.150   2.183  25.906  0.00  0.00    +0.150 HD
BRANCH  17  18
ATOM      4  O   UNL     1       2.416   2.920  28.159  0.00  0.00    -0.458 OA
ATOM     18  C   UNL     1       1.133   2.550  28.233  0.00  0.00    +0.189 A 
ATOM     20  C   UNL     1       0.728   2.242  29.478  0.00  0.00    +0.054 A 
ATOM     24  C   UNL     1       1.875   2.436  30.287  0.00  0.00    +0.042 A 
ATOM     25  C   UNL     1       2.874   2.849  29.437  0.00  0.00    +0.196 A 
ENDBRANCH  17  18
ENDBRANCH  13   6
TORSDOF 5
ENDMDL
MODEL 2
REMARK VINA RESULT:       3.0      2.355      4.993
REMARK  Name = 11941671
REMARK  5 active torsions:
REMARK  status: ('A' for Active; 'I' for Inactive)
REMARK    1  A    between atoms: N_5  and  C_12
REMARK    2  A    between atoms: N_6  and  C_13
REMARK    3  A    between atoms: C_17  and  C_18
REMARK    4  A    between atoms: C_19  and  C_23
REMARK    5  A    between atoms: C_28  and  C_31
REMARK                            x       y       z     vdW  Elec       q    Type
REMARK                         _______ _______ _______ _____ _____    ______ ____
ROOT
ATOM      1  O   UNL     1      -2.781  -2.757  24.120  0.00  0.00    -0.370 OA
ATOM      2  O   UNL     1      -1.281  -1.297  26.435  0.00  0.00    -0.370 OA
ATOM     10  C   UNL     1      -2.286  -0.880  25.496  0.00  0.00    +0.171 C 
ATOM     11  C   UNL     1      -1.982  -1.563  24.176  0.00  0.00    +0.171 C 
ATOM     12  C   UNL     1      -3.636  -1.429  25.893  0.00  0.00    +0.130 C 
ATOM     13  C   UNL     1      -0.515  -1.916  24.275  0.00  0.00    +0.130 C 
ATOM     14  C   UNL     1      -3.625  -2.817  25.278  0.00  0.00    +0.185 C 
ATOM     15  C   UNL     1      -0.335  -2.144  25.766  0.00  0.00    +0.185 C 
ENDROOT
BRANCH  12   5
ATOM      5  N   UNL     1      -4.689  -0.629  25.307  0.00  0.00    -0.306 N 
ATOM      7  N   UNL     1      -3.334   1.283  25.210  0.00  0.00    -0.214 NA
ATOM      8  N   UNL     1      -5.611   1.339  24.423  0.00  0.00    -0.223 NA
ATOM     16  C   UNL     1      -4.540   0.704  24.970  0.00  0.00    +0.216 A 
ATOM     19  C   UNL     1      -3.224   2.584  24.870  0.00  0.00    +0.076 A 
ATOM     21  C   UNL     1      -5.431   2.638  24.107  0.00  0.00    +0.116 A 
ATOM     22  C   UNL     1      -4.248   3.319  24.309  0.00  0.00    +0.048 A 
ATOM     32  H   UNL     1      -5.575  -1.065  25.075  0.00  0.00    +0.149 HD
BRANCH  19  23
ATOM     23  C   UNL     1      -1.936   3.180  25.132  0.00  0.00    +0.002 A 
ATOM     26  C   UNL     1      -1.123   2.675  26.150  0.00  0.00    +0.029 A 
ATOM     27  C   UNL     1      -1.497   4.264  24.369  0.00  0.00    +0.010 A 
ATOM     28  C   UNL     1       0.122   3.251  26.403  0.00  0.00    +0.052 A 
ATOM     29  C   UNL     1      -0.252   4.841  24.622  0.00  0.00    +0.002 A 
ATOM     30  C   UNL     1       0.557   4.334  25.639  0.00  0.00    +0.019 A 
BRANCH  28  31
ATOM      9  N   UNL     1       1.628   2.311  28.290  0.00  0.00    -0.191 NA
ATOM     31  C   UNL     1       0.952   2.733  27.444  0.00  0.00    +0.099 C 
ENDBRANCH  28  31
ENDBRANCH  19  23
ENDBRANCH  12   5
BRANCH  13   6
ATOM      3  O   UNL     1       2.302  -1.935  24.146  0.00  0.00    -0.267 OA
ATOM      6  N   UNL     1       0.315  -0.831  23.809  0.00  0.00    -0.301 N 
ATOM     17  C   UNL     1       1.707  -0.921  23.776  0.00  0.00    +0.280 C 
ATOM     33  H   UNL     1      -0.135   0.005  23.447  0.00  0.00    +0.150 HD
BRANCH  17  18
ATOM      4  O   UNL     1       3.615   0.028  22.711  0.00  0.00    -0.458 OA
ATOM     18  C   UNL     1       2.411   0.254  23.246  0.00  0.00    +0.189 A 
ATOM     20  C   UNL     1       2.034   1.545  23.210  0.00  0.00    +0.054 A 
ATOM     24  C   UNL     1       3.114   2.216  22.586  0.00  0.00    +0.042 A 
ATOM     25  C   UNL     1       4.050   1.249  22.301  0.00  0.00    +0.196 A 
ENDBRANCH  17  18
ENDBRANCH  13   6
TORSDOF 5
ENDMDL
MODEL 3
REMARK VINA RESULT:       3.0      2.007      4.955
REMARK  Name = 11941671
REMARK  5 active torsions:
REMARK  status: ('A' for Active; 'I' for Inactive)
REMARK    1  A    between atoms: N_5  and  C_12
REMARK    2  A    between atoms: N_6  and  C_13
REMARK    3  A    between atoms: C_17  and  C_18
REMARK    4  A    between atoms: C_19  and  C_23
REMARK    5  A    between atoms: C_28  and  C_31
REMARK                            x       y       z     vdW  Elec       q    Type
REMARK                         _______ _______ _______ _____ _____    ______ ____
ROOT
ATOM      1  O   UNL     1      -4.643   2.836  25.638  0.00  0.00    -0.370 OA
ATOM      2  O   UNL     1      -2.028   3.516  24.076  0.00  0.00    -0.370 OA
ATOM     10  C   UNL     1      -2.545   2.303  24.650  0.00  0.00    +0.171 C 
ATOM     11  C   UNL     1      -3.246   2.679  25.941  0.00  0.00    +0.171 C 
ATOM     12  C   UNL     1      -3.646   1.741  23.782  0.00  0.00    +0.130 C 
ATOM     13  C   UNL     1      -2.636   4.010  26.317  0.00  0.00    +0.130 C 
ATOM     14  C   UNL     1      -4.869   2.499  24.262  0.00  0.00    +0.185 C 
ATOM     15  C   UNL     1      -2.307   4.611  24.961  0.00  0.00    +0.185 C 
ENDROOT
BRANCH  12   5
ATOM      5  N   UNL     1      -3.803   0.325  24.036  0.00  0.00    -0.306 N 
ATOM      7  N   UNL     1      -1.501  -0.079  23.830  0.00  0.00    -0.214 NA
ATOM      8  N   UNL     1      -3.035  -1.874  24.314  0.00  0.00    -0.223 NA
ATOM     16  C   UNL     1      -2.748  -0.570  24.061  0.00  0.00    +0.216 A 
ATOM     19  C   UNL     1      -0.496  -0.980  23.860  0.00  0.00    +0.076 A 
ATOM     21  C   UNL     1      -1.983  -2.719  24.330  0.00  0.00    +0.116 A 
ATOM     22  C   UNL     1      -0.680  -2.325  24.109  0.00  0.00    +0.048 A 
ATOM     32  H   UNL     1      -4.721  -0.042  24.261  0.00  0.00    +0.149 HD
BRANCH  19  23
ATOM     23  C   UNL     1       0.819  -0.439  23.614  0.00  0.00    +0.002 A 
ATOM     26  C   UNL     1       1.951  -1.240  23.789  0.00  0.00    +0.029 A 
ATOM     27  C   UNL     1       0.965   0.886  23.201  0.00  0.00    +0.010 A 
ATOM     28  C   UNL     1       3.222  -0.716  23.551  0.00  0.00    +0.052 A 
ATOM     29  C   UNL     1       2.236   1.410  22.963  0.00  0.00    +0.002 A 
ATOM     30  C   UNL     1       3.364   0.609  23.138  0.00  0.00    +0.019 A 
BRANCH  28  31
ATOM      9  N   UNL     1       5.318  -2.203  23.876  0.00  0.00    -0.191 NA
ATOM     31  C   UNL     1       4.378  -1.536  23.731  0.00  0.00    +0.099 C 
ENDBRANCH  28  31
ENDBRANCH  19  23
ENDBRANCH  12   5
BRANCH  13   6
ATOM      3  O   UNL     1      -0.896   1.794  26.208  0.00  0.00    -0.267 OA
ATOM      6  N   UNL     1      -1.446   3.833  27.113  0.00  0.00    -0.301 N 
ATOM     17  C   UNL     1      -0.636   2.703  26.998  0.00  0.00    +0.280 C 
ATOM     33  H   UNL     1      -1.165   4.581  27.741  0.00  0.00    +0.150 HD
BRANCH  17  18
ATOM      4  O   UNL     1       1.705   3.055  27.275  0.00  0.00    -0.458 OA
ATOM     18  C   UNL     1       0.559   2.683  27.854  0.00  0.00    +0.189 A 
ATOM     20  C   UNL     1       0.689   2.344  29.149  0.00  0.00    +0.054 A 
ATOM     24  C   UNL     1       2.066   2.518  29.428  0.00  0.00    +0.042 A 
ATOM     25  C   UNL     1       2.640   2.951  28.256  0.00  0.00    +0.196 A 
ENDBRANCH  17  18
ENDBRANCH  13   6
TORSDOF 5
ENDMDL
MODEL 4
REMARK VINA RESULT:       3.0      2.073      4.021
REMARK  Name = 11941671
REMARK  5 active torsions:
REMARK  status: ('A' for Active; 'I' for Inactive)
REMARK    1  A    between atoms: N_5  and  C_12
REMARK    2  A    between atoms: N_6  and  C_13
REMARK    3  A    between atoms: C_17  and  C_18
REMARK    4  A    between atoms: C_19  and  C_23
REMARK    5  A    between atoms: C_28  and  C_31
REMARK                            x       y       z     vdW  Elec       q    Type
REMARK                         _______ _______ _______ _____ _____    ______ ____
ROOT
ATOM      1  O   UNL     1       0.892  -0.437  23.670  0.00  0.00    -0.370 OA
ATOM      2  O   UNL     1      -0.299   0.763  26.293  0.00  0.00    -0.370 OA
ATOM     10  C   UNL     1      -0.840  -0.080  25.262  0.00  0.00    +0.171 C 
ATOM     11  C   UNL     1      -0.253   0.388  23.944  0.00  0.00    +0.171 C 
ATOM     12  C   UNL     1      -0.326  -1.492  25.415  0.00  0.00    +0.130 C 
ATOM     13  C   UNL     1       0.177   1.811  24.217  0.00  0.00    +0.130 C 
ATOM     14  C   UNL     1       1.005  -1.443  24.688  0.00  0.00    +0.185 C 
ATOM     15  C   UNL     1       0.535   1.764  25.693  0.00  0.00    +0.185 C 
ENDROOT
BRANCH  12   5
ATOM      5  N   UNL     1      -1.221  -2.420  24.758  0.00  0.00    -0.306 N 
ATOM      7  N   UNL     1      -3.018  -0.913  24.837  0.00  0.00    -0.214 NA
ATOM      8  N   UNL     1      -3.276  -3.096  23.849  0.00  0.00    -0.223 NA
ATOM     16  C   UNL     1      -2.544  -2.135  24.472  0.00  0.00    +0.216 A 
ATOM     19  C   UNL     1      -4.312  -0.669  24.544  0.00  0.00    +0.076 A 
ATOM     21  C   UNL     1      -4.561  -2.785  23.586  0.00  0.00    +0.116 A 
ATOM     22  C   UNL     1      -5.140  -1.575  23.913  0.00  0.00    +0.048 A 
ATOM     32  H   UNL     1      -0.864  -3.312  24.436  0.00  0.00    +0.149 HD
BRANCH  19  23
ATOM     23  C   UNL     1      -4.794   0.633  24.937  0.00  0.00    +0.002 A 
ATOM     26  C   UNL     1      -3.922   1.560  25.513  0.00  0.00    +0.029 A 
ATOM     27  C   UNL     1      -6.136   0.970  24.745  0.00  0.00    +0.010 A 
ATOM     28  C   UNL     1      -4.389   2.819  25.893  0.00  0.00    +0.052 A 
ATOM     29  C   UNL     1      -6.603   2.229  25.125  0.00  0.00    +0.002 A 
ATOM     30  C   UNL     1      -5.730   3.152  25.699  0.00  0.00    +0.019 A 
BRANCH  28  31
ATOM      9  N   UNL     1      -2.769   4.536  26.959  0.00  0.00    -0.191 NA
ATOM     31  C   UNL     1      -3.496   3.766  26.482  0.00  0.00    +0.099 C 
ENDBRANCH  28  31
ENDBRANCH  19  23
ENDBRANCH  12   5
BRANCH  13   6
ATOM      3  O   UNL     1      -2.001   1.381  22.478  0.00  0.00    -0.267 OA
ATOM      6  N   UNL     1      -0.901   2.738  23.970  0.00  0.00    -0.301 N 
ATOM     17  C   UNL     1      -1.945   2.448  23.092  0.00  0.00    +0.280 C 
ATOM     33  H   UNL     1      -0.923   3.610  24.493  0.00  0.00    +0.150 HD
BRANCH  17  18
ATOM      4  O   UNL     1      -2.784   4.603  23.668  0.00  0.00    -0.458 OA
ATOM     18  C   UNL     1      -2.984   3.480  22.970  0.00  0.00    +0.189 A 
ATOM     20  C   UNL     1      -4.126   3.478  22.259  0.00  0.00    +0.054 A 
ATOM     24  C   UNL     1      -4.719   4.735  22.531  0.00  0.00    +0.042 A 
ATOM     25  C   UNL     1      -3.864   5.381  23.393  0.00  0.00    +0.196 A 
ENDBRANCH  17  18
ENDBRANCH  13   6
TORSDOF 5
ENDMDL
MODEL 5
REMARK VINA RESULT:       3.9      2.454      5.608
REMARK  Name = 11941671
REMARK  5 active torsions:
REMARK  status: ('A' for Active; 'I' for Inactive)
REMARK    1  A    between atoms: N_5  and  C_12
REMARK    2  A    between atoms: N_6  and  C_13
REMARK    3  A    between atoms: C_17  and  C_18
REMARK    4  A    between atoms: C_19  and  C_23
REMARK    5  A    between atoms: C_28  and  C_31
REMARK                            x       y       z     vdW  Elec       q    Type
REMARK                         _______ _______ _______ _____ _____    ______ ____
ROOT
ATOM      1  O   UNL     1      -2.644   3.425  26.796  0.00  0.00    -0.370 OA
ATOM      2  O   UNL     1      -1.665   5.010  24.292  0.00  0.00    -0.370 OA
ATOM     10  C   UNL     1      -2.769   4.117  24.523  0.00  0.00    +0.171 C 
ATOM     11  C   UNL     1      -2.280   3.031  25.462  0.00  0.00    +0.171 C 
ATOM     12  C   UNL     1      -3.856   4.818  25.303  0.00  0.00    +0.130 C 
ATOM     13  C   UNL     1      -0.777   3.052  25.298  0.00  0.00    +0.130 C 
ATOM     14  C   UNL     1      -3.401   4.642  26.740  0.00  0.00    +0.185 C 
ATOM     15  C   UNL     1      -0.506   4.511  24.975  0.00  0.00    +0.185 C 
ENDROOT
BRANCH  12   5
ATOM      5  N   UNL     1      -5.124   4.153  25.093  0.00  0.00    -0.306 N 
ATOM      7  N   UNL     1      -4.139   2.024  25.134  0.00  0.00    -0.214 NA
ATOM      8  N   UNL     1      -6.513   2.284  24.814  0.00  0.00    -0.223 NA
ATOM     16  C   UNL     1      -5.263   2.779  25.011  0.00  0.00    +0.216 A 
ATOM     19  C   UNL     1      -4.311   0.688  25.048  0.00  0.00    +0.076 A 
ATOM     21  C   UNL     1      -6.613   0.941  24.739  0.00  0.00    +0.116 A 
ATOM     22  C   UNL     1      -5.536   0.085  24.850  0.00  0.00    +0.048 A 
ATOM     32  H   UNL     1      -5.974   4.704  25.053  0.00  0.00    +0.149 HD
BRANCH  19  23
ATOM     23  C   UNL     1      -3.107  -0.095  25.182  0.00  0.00    +0.002 A 
ATOM     26  C   UNL     1      -2.892  -1.199  24.353  0.00  0.00    +0.029 A 
ATOM     27  C   UNL     1      -2.152   0.247  26.141  0.00  0.00    +0.010 A 
ATOM     28  C   UNL     1      -1.727  -1.956  24.483  0.00  0.00    +0.052 A 
ATOM     29  C   UNL     1      -0.987  -0.509  26.271  0.00  0.00    +0.002 A 
ATOM     30  C   UNL     1      -0.775  -1.611  25.443  0.00  0.00    +0.019 A 
BRANCH  28  31
ATOM      9  N   UNL     1      -1.332  -4.003  22.946  0.00  0.00    -0.191 NA
ATOM     31  C   UNL     1      -1.509  -3.085  23.635  0.00  0.00    +0.099 C 
ENDBRANCH  28  31
ENDBRANCH  19  23
ENDBRANCH  12   5
BRANCH  13   6
ATOM      3  O   UNL     1       1.658   1.635  25.173  0.00  0.00    -0.267 OA
ATOM      6  N   UNL     1      -0.358   2.191  24.219  0.00  0.00    -0.301 N 
ATOM     17  C   UNL     1       0.867   1.523  24.234  0.00  0.00    +0.280 C 
ATOM     33  H   UNL     1      -1.000   2.029  23.448  0.00  0.00    +0.150 HD
BRANCH  17  18
ATOM      4  O   UNL     1       2.415   0.570  22.693  0.00  0.00    -0.458 OA
ATOM     18  C   UNL     1       1.137   0.658  23.077  0.00  0.00    +0.189 A 
ATOM     20  C   UNL     1       0.293  -0.074  22.329  0.00  0.00    +0.054 A 
ATOM     24  C   UNL     1       1.119  -0.696  21.361  0.00  0.00    +0.042 A 
ATOM     25  C   UNL     1       2.400  -0.272  21.626  0.00  0.00    +0.196 A 
ENDBRANCH  17  18
ENDBRANCH  13   6
TORSDOF 5
ENDMDL
MODEL 6
REMARK VINA RESULT:       4.1      1.919      4.410
REMARK  Name = 11941671
REMARK  5 active torsions:
REMARK  status: ('A' for Active; 'I' for Inactive)
REMARK    1  A    between atoms: N_5  and  C_12
REMARK    2  A    between atoms: N_6  and  C_13
REMARK    3  A    between atoms: C_17  and  C_18
REMARK    4  A    between atoms: C_19  and  C_23
REMARK    5  A    between atoms: C_28  and  C_31
REMARK                            x       y       z     vdW  Elec       q    Type
REMARK                         _______ _______ _______ _____ _____    ______ ____
ROOT
ATOM      1  O   UNL     1      -3.964   4.270  24.656  0.00  0.00    -0.370 OA
ATOM      2  O   UNL     1      -1.142   3.341  23.699  0.00  0.00    -0.370 OA
ATOM     10  C   UNL     1      -2.265   2.649  24.272  0.00  0.00    +0.171 C 
ATOM     11  C   UNL     1      -2.885   3.573  25.302  0.00  0.00    +0.171 C 
ATOM     12  C   UNL     1      -3.350   2.465  23.239  0.00  0.00    +0.130 C 
ATOM     13  C   UNL     1      -1.772   4.534  25.652  0.00  0.00    +0.130 C 
ATOM     14  C   UNL     1      -4.110   3.777  23.316  0.00  0.00    +0.185 C 
ATOM     15  C   UNL     1      -0.988   4.609  24.353  0.00  0.00    +0.185 C 
ENDROOT
BRANCH  12   5
ATOM      5  N   UNL     1      -4.212   1.365  23.615  0.00  0.00    -0.306 N 
ATOM      7  N   UNL     1      -2.396  -0.063  24.020  0.00  0.00    -0.214 NA
ATOM      8  N   UNL     1      -4.662  -0.823  24.331  0.00  0.00    -0.223 NA
ATOM     16  C   UNL     1      -3.743   0.123  24.000  0.00  0.00    +0.216 A 
ATOM     19  C   UNL     1      -1.973  -1.287  24.400  0.00  0.00    +0.076 A 
ATOM     21  C   UNL     1      -4.169  -2.023  24.702  0.00  0.00    +0.116 A 
ATOM     22  C   UNL     1      -2.822  -2.315  24.756  0.00  0.00    +0.048 A 
ATOM     32  H   UNL     1      -5.215   1.509  23.654  0.00  0.00    +0.149 HD
BRANCH  19  23
ATOM     23  C   UNL     1      -0.541  -1.463  24.415  0.00  0.00    +0.002 A 
ATOM     26  C   UNL     1       0.274  -0.659  23.615  0.00  0.00    +0.029 A 
ATOM     27  C   UNL     1       0.036  -2.440  25.229  0.00  0.00    +0.010 A 
ATOM     28  C   UNL     1       1.658  -0.830  23.630  0.00  0.00    +0.052 A 
ATOM     29  C   UNL     1       1.420  -2.611  25.245  0.00  0.00    +0.002 A 
ATOM     30  C   UNL     1       2.231  -1.807  24.445  0.00  0.00    +0.019 A 
BRANCH  28  31
ATOM      9  N   UNL     1       3.168   0.663  22.145  0.00  0.00    -0.191 NA
ATOM     31  C   UNL     1       2.491  -0.006  22.811  0.00  0.00    +0.099 C 
ENDBRANCH  28  31
ENDBRANCH  19  23
ENDBRANCH  12   5
BRANCH  13   6
ATOM      3  O   UNL     1       0.354   2.702  25.377  0.00  0.00    -0.267 OA
ATOM      6  N   UNL     1      -0.957   4.021  26.726  0.00  0.00    -0.301 N 
ATOM     17  C   UNL     1       0.080   3.115  26.505  0.00  0.00    +0.280 C 
ATOM     33  H   UNL     1      -1.115   4.372  27.667  0.00  0.00    +0.150 HD
BRANCH  17  18
ATOM      4  O   UNL     1       2.099   3.150  27.770  0.00  0.00    -0.458 OA
ATOM     18  C   UNL     1       0.839   2.709  27.696  0.00  0.00    +0.189 A 
ATOM     20  C   UNL     1       0.466   1.953  28.744  0.00  0.00    +0.054 A 
ATOM     24  C   UNL     1       1.611   1.904  29.576  0.00  0.00    +0.042 A 
ATOM     25  C   UNL     1       2.577   2.647  28.939  0.00  0.00    +0.196 A 
ENDBRANCH  17  18
ENDBRANCH  13   6
TORSDOF 5
ENDMDL
