MODEL 1
REMARK VINA RESULT:       3.3      0.000      0.000
REMARK  Name = 44716383
REMARK  8 active torsions:
REMARK  status: ('A' for Active; 'I' for Inactive)
REMARK    1  A    between atoms: S_1  and  N_9
REMARK    2  A    between atoms: S_1  and  C_30
REMARK    3  A    between atoms: O_5  and  C_35
REMARK    4  A    between atoms: O_5  and  C_36
REMARK    5  A    between atoms: N_7  and  C_16
REMARK    6  A    between atoms: N_9  and  C_23
REMARK    7  A    between atoms: C_11  and  C_16
REMARK    8  A    between atoms: C_13  and  C_23
REMARK                            x       y       z     vdW  Elec       q    Type
REMARK                         _______ _______ _______ _____ _____    ______ ____
ROOT
ATOM      6  N   UNL     1      -2.663  -2.832  24.688  0.00  0.00    -0.298 NA
ATOM     10  C   UNL     1      -3.471  -0.619  25.791  0.00  0.00    -0.003 C 
ATOM     11  C   UNL     1      -4.355  -0.986  24.577  0.00  0.00    +0.020 C 
ATOM     12  C   UNL     1      -2.003  -0.510  25.337  0.00  0.00    +0.024 C 
ATOM     13  C   UNL     1      -1.523  -1.886  24.824  0.00  0.00    +0.072 C 
ATOM     14  C   UNL     1      -3.746  -2.222  23.878  0.00  0.00    +0.089 C 
ATOM     15  C   UNL     1      -3.557  -1.798  26.779  0.00  0.00    +0.019 C 
ATOM     17  C   UNL     1      -3.198  -3.102  26.045  0.00  0.00    +0.085 C 
ENDROOT
BRANCH  11  16
ATOM     16  C   UNL     1      -4.549   0.168  23.607  0.00  0.00    +0.089 C 
BRANCH  16   7
ATOM      2  O   UNL     1      -0.750   2.934  27.580  0.00  0.00    -0.268 OA
ATOM      7  N   UNL     1      -4.160   1.439  24.213  0.00  0.00    -0.301 NA
ATOM      8  N   UNL     1      -2.184   3.389  25.786  0.00  0.00    -0.312 N 
ATOM     18  C   UNL     1      -4.733   3.173  25.931  0.00  0.00    +0.024 C 
ATOM     19  C   UNL     1      -3.690   3.862  23.824  0.00  0.00    +0.050 C 
ATOM     20  C   UNL     1      -5.076   1.807  25.299  0.00  0.00    +0.089 C 
ATOM     21  C   UNL     1      -4.071   2.500  23.200  0.00  0.00    +0.094 C 
ATOM     22  C   UNL     1      -4.737   4.258  24.862  0.00  0.00    +0.017 C 
ATOM     24  C   UNL     1      -3.366   3.170  26.630  0.00  0.00    +0.130 C 
ATOM     25  C   UNL     1      -2.311   3.791  24.452  0.00  0.00    +0.026 A 
ATOM     26  C   UNL     1      -1.217   4.091  23.730  0.00  0.00    +0.022 A 
ATOM     27  C   UNL     1      -0.927   3.269  26.409  0.00  0.00    +0.251 A 
ATOM     28  C   UNL     1       0.095   3.985  24.305  0.00  0.00    +0.007 A 
ATOM     29  C   UNL     1       0.261   3.587  25.569  0.00  0.00    +0.070 A 
ENDBRANCH  16   7
ENDBRANCH  11  16
BRANCH  13  23
ATOM     23  C   UNL     1      -0.713  -1.759  23.532  0.00  0.00    +0.124 C 
BRANCH  23   9
ATOM      9  N   UNL     1       0.564  -1.114  23.787  0.00  0.00    -0.188 NA
ATOM     37  H   UNL     1       0.820  -0.971  24.771  0.00  0.00    +0.148 HD
BRANCH   9   1
ATOM      1  S   UNL     1       1.220   0.003  22.664  0.00  0.00    +0.058 S 
ATOM      3  O   UNL     1       0.752   1.335  22.999  0.00  0.00    -0.153 OA
ATOM      4  O   UNL     1       1.060  -0.509  21.317  0.00  0.00    -0.153 OA
BRANCH   1  30
ATOM     30  C   UNL     1       2.943  -0.081  23.049  0.00  0.00    +0.105 A 
ATOM     31  C   UNL     1       3.479  -1.245  23.598  0.00  0.00    +0.032 A 
ATOM     32  C   UNL     1       3.766   1.019  22.805  0.00  0.00    +0.032 A 
ATOM     33  C   UNL     1       4.839  -1.311  23.904  0.00  0.00    +0.047 A 
ATOM     34  C   UNL     1       5.125   0.954  23.111  0.00  0.00    +0.047 A 
ATOM     35  C   UNL     1       5.661  -0.211  23.661  0.00  0.00    +0.120 A 
BRANCH  35   5
ATOM      5  O   UNL     1       6.989  -0.274  23.958  0.00  0.00    -0.495 OA
ATOM     36  C   UNL     1       7.882  -0.546  22.881  0.00  0.00    +0.277 C 
ENDBRANCH  35   5
ENDBRANCH   1  30
ENDBRANCH   9   1
ENDBRANCH  23   9
ENDBRANCH  13  23
TORSDOF 7
ENDMDL
MODEL 2
REMARK VINA RESULT:       5.4      1.194      1.487
REMARK  Name = 44716383
REMARK  8 active torsions:
REMARK  status: ('A' for Active; 'I' for Inactive)
REMARK    1  A    between atoms: S_1  and  N_9
REMARK    2  A    between atoms: S_1  and  C_30
REMARK    3  A    between atoms: O_5  and  C_35
REMARK    4  A    between atoms: O_5  and  C_36
REMARK    5  A    between atoms: N_7  and  C_16
REMARK    6  A    between atoms: N_9  and  C_23
REMARK    7  A    between atoms: C_11  and  C_16
REMARK    8  A    between atoms: C_13  and  C_23
REMARK                            x       y       z     vdW  Elec       q    Type
REMARK                         _______ _______ _______ _____ _____    ______ ____
ROOT
ATOM      6  N   UNL     1      -2.294  -0.981  23.902  0.00  0.00    -0.298 NA
ATOM     10  C   UNL     1      -3.967  -1.847  25.696  0.00  0.00    -0.003 C 
ATOM     11  C   UNL     1      -4.614  -0.749  24.821  0.00  0.00    +0.020 C 
ATOM     12  C   UNL     1      -2.690  -1.289  26.351  0.00  0.00    +0.024 C 
ATOM     13  C   UNL     1      -1.669  -0.923  25.251  0.00  0.00    +0.072 C 
ATOM     14  C   UNL     1      -3.538  -0.174  23.875  0.00  0.00    +0.089 C 
ATOM     15  C   UNL     1      -3.535  -2.980  24.744  0.00  0.00    +0.019 C 
ATOM     17  C   UNL     1      -2.655  -2.393  23.626  0.00  0.00    +0.085 C 
ENDROOT
BRANCH  11  16
ATOM     16  C   UNL     1      -5.289   0.344  25.634  0.00  0.00    +0.089 C 
BRANCH  16   7
ATOM      2  O   UNL     1      -0.266   3.816  26.396  0.00  0.00    -0.268 OA
ATOM      7  N   UNL     1      -4.676   1.645  25.380  0.00  0.00    -0.301 NA
ATOM      8  N   UNL     1      -2.221   3.665  25.116  0.00  0.00    -0.312 N 
ATOM     18  C   UNL     1      -4.565   4.051  26.076  0.00  0.00    +0.024 C 
ATOM     19  C   UNL     1      -4.301   3.468  23.712  0.00  0.00    +0.050 C 
ATOM     20  C   UNL     1      -5.146   2.647  26.344  0.00  0.00    +0.089 C 
ATOM     21  C   UNL     1      -4.916   2.078  23.995  0.00  0.00    +0.094 C 
ATOM     22  C   UNL     1      -4.909   4.497  24.661  0.00  0.00    +0.017 C 
ATOM     24  C   UNL     1      -3.041   4.101  26.255  0.00  0.00    +0.130 C 
ATOM     25  C   UNL     1      -2.793   3.422  23.863  0.00  0.00    +0.026 A 
ATOM     26  C   UNL     1      -2.010   3.131  22.808  0.00  0.00    +0.022 A 
ATOM     27  C   UNL     1      -0.830   3.600  25.323  0.00  0.00    +0.251 A 
ATOM     28  C   UNL     1      -0.584   3.045  22.954  0.00  0.00    +0.007 A 
ATOM     29  C   UNL     1      -0.000   3.251  24.137  0.00  0.00    +0.070 A 
ENDBRANCH  16   7
ENDBRANCH  11  16
BRANCH  13  23
ATOM     23  C   UNL     1      -0.997   0.425  25.525  0.00  0.00    +0.124 C 
BRANCH  23   9
ATOM      9  N   UNL     1       0.327   0.470  24.929  0.00  0.00    -0.188 NA
ATOM     37  H   UNL     1       0.845   1.351  25.023  0.00  0.00    +0.148 HD
BRANCH   9   1
ATOM      1  S   UNL     1       0.702  -0.486  23.557  0.00  0.00    +0.058 S 
ATOM      3  O   UNL     1       0.101   0.119  22.384  0.00  0.00    -0.153 OA
ATOM      4  O   UNL     1       0.466  -1.885  23.858  0.00  0.00    -0.153 OA
BRANCH   1  30
ATOM     30  C   UNL     1       2.453  -0.270  23.444  0.00  0.00    +0.105 A 
ATOM     31  C   UNL     1       3.310  -1.286  23.865  0.00  0.00    +0.032 A 
ATOM     32  C   UNL     1       2.978   0.919  22.936  0.00  0.00    +0.032 A 
ATOM     33  C   UNL     1       4.691  -1.115  23.779  0.00  0.00    +0.047 A 
ATOM     34  C   UNL     1       4.359   1.091  22.850  0.00  0.00    +0.047 A 
ATOM     35  C   UNL     1       5.216   0.075  23.272  0.00  0.00    +0.120 A 
BRANCH  35   5
ATOM      5  O   UNL     1       6.564   0.242  23.187  0.00  0.00    -0.495 OA
ATOM     36  C   UNL     1       7.331  -0.879  22.752  0.00  0.00    +0.277 C 
ENDBRANCH  35   5
ENDBRANCH   1  30
ENDBRANCH   9   1
ENDBRANCH  23   9
ENDBRANCH  13  23
TORSDOF 7
ENDMDL
MODEL 3
REMARK VINA RESULT:       6.4      1.229      1.558
REMARK  Name = 44716383
REMARK  8 active torsions:
REMARK  status: ('A' for Active; 'I' for Inactive)
REMARK    1  A    between atoms: S_1  and  N_9
REMARK    2  A    between atoms: S_1  and  C_30
REMARK    3  A    between atoms: O_5  and  C_35
REMARK    4  A    between atoms: O_5  and  C_36
REMARK    5  A    between atoms: N_7  and  C_16
REMARK    6  A    between atoms: N_9  and  C_23
REMARK    7  A    between atoms: C_11  and  C_16
REMARK    8  A    between atoms: C_13  and  C_23
REMARK                            x       y       z     vdW  Elec       q    Type
REMARK                         _______ _______ _______ _____ _____    ______ ____
ROOT
ATOM      6  N   UNL     1      -2.162  -2.115  23.617  0.00  0.00    -0.298 NA
ATOM     10  C   UNL     1      -3.745  -2.436  25.656  0.00  0.00    -0.003 C 
ATOM     11  C   UNL     1      -4.128  -1.171  24.853  0.00  0.00    +0.020 C 
ATOM     12  C   UNL     1      -2.276  -2.328  26.106  0.00  0.00    +0.024 C 
ATOM     13  C   UNL     1      -1.363  -2.286  24.861  0.00  0.00    +0.072 C 
ATOM     14  C   UNL     1      -3.074  -0.952  23.746  0.00  0.00    +0.089 C 
ATOM     15  C   UNL     1      -3.840  -3.628  24.685  0.00  0.00    +0.019 C 
ATOM     17  C   UNL     1      -2.990  -3.332  23.436  0.00  0.00    +0.085 C 
ENDROOT
BRANCH  11  16
ATOM     16  C   UNL     1      -4.294   0.064  25.724  0.00  0.00    +0.089 C 
BRANCH  16   7
ATOM      2  O   UNL     1      -2.411   5.912  26.077  0.00  0.00    -0.268 OA
ATOM      7  N   UNL     1      -4.005   1.282  24.971  0.00  0.00    -0.301 NA
ATOM      8  N   UNL     1      -2.690   4.158  24.550  0.00  0.00    -0.312 N 
ATOM     18  C   UNL     1      -4.983   3.282  23.817  0.00  0.00    +0.024 C 
ATOM     19  C   UNL     1      -2.946   2.252  22.926  0.00  0.00    +0.050 C 
ATOM     20  C   UNL     1      -5.238   2.015  24.661  0.00  0.00    +0.089 C 
ATOM     21  C   UNL     1      -3.238   0.979  23.754  0.00  0.00    +0.094 C 
ATOM     22  C   UNL     1      -4.264   2.912  22.526  0.00  0.00    +0.017 C 
ATOM     24  C   UNL     1      -4.149   4.329  24.568  0.00  0.00    +0.130 C 
ATOM     25  C   UNL     1      -2.081   3.214  23.717  0.00  0.00    +0.026 A 
ATOM     26  C   UNL     1      -0.740   3.149  23.636  0.00  0.00    +0.022 A 
ATOM     27  C   UNL     1      -1.937   5.051  25.336  0.00  0.00    +0.251 A 
ATOM     28  C   UNL     1       0.086   4.029  24.414  0.00  0.00    +0.007 A 
ATOM     29  C   UNL     1      -0.455   4.932  25.237  0.00  0.00    +0.070 A 
ENDBRANCH  16   7
ENDBRANCH  11  16
BRANCH  13  23
ATOM     23  C   UNL     1      -0.264  -1.229  24.997  0.00  0.00    +0.124 C 
BRANCH  23   9
ATOM      9  N   UNL     1       0.776  -1.437  24.004  0.00  0.00    -0.188 NA
ATOM     37  H   UNL     1       1.512  -2.112  24.243  0.00  0.00    +0.148 HD
BRANCH   9   1
ATOM      1  S   UNL     1       1.220  -0.181  22.926  0.00  0.00    +0.058 S 
ATOM      3  O   UNL     1       0.665   1.070  23.407  0.00  0.00    -0.153 OA
ATOM      4  O   UNL     1       0.986  -0.606  21.560  0.00  0.00    -0.153 OA
BRANCH   1  30
ATOM     30  C   UNL     1       2.972  -0.123  23.156  0.00  0.00    +0.105 A 
ATOM     31  C   UNL     1       3.643  -1.222  23.689  0.00  0.00    +0.032 A 
ATOM     32  C   UNL     1       3.683   1.026  22.806  0.00  0.00    +0.032 A 
ATOM     33  C   UNL     1       5.025  -1.175  23.873  0.00  0.00    +0.047 A 
ATOM     34  C   UNL     1       5.065   1.073  22.991  0.00  0.00    +0.047 A 
ATOM     35  C   UNL     1       5.735  -0.027  23.524  0.00  0.00    +0.120 A 
BRANCH  35   5
ATOM      5  O   UNL     1       7.085   0.020  23.703  0.00  0.00    -0.495 OA
ATOM     36  C   UNL     1       7.889  -0.669  22.748  0.00  0.00    +0.277 C 
ENDBRANCH  35   5
ENDBRANCH   1  30
ENDBRANCH   9   1
ENDBRANCH  23   9
ENDBRANCH  13  23
TORSDOF 7
ENDMDL
