MODEL 1
REMARK VINA RESULT:       3.2      0.000      0.000
REMARK  Name = 45361404
REMARK  9 active torsions:
REMARK  status: ('A' for Active; 'I' for Inactive)
REMARK    1  A    between atoms: O_1  and  C_9
REMARK    2  A    between atoms: N_4  and  C_13
REMARK    3  A    between atoms: C_6  and  C_16
REMARK    4  A    between atoms: C_8  and  C_18
REMARK    5  A    between atoms: C_11  and  C_17
REMARK    6  A    between atoms: C_17  and  C_19
REMARK    7  A    between atoms: C_17  and  C_20
REMARK    8  A    between atoms: C_21  and  C_27
REMARK    9  A    between atoms: C_26  and  C_28
REMARK                            x       y       z     vdW  Elec       q    Type
REMARK                         _______ _______ _______ _____ _____    ______ ____
ROOT
ATOM      6  C   UNL     1      -2.556  -1.371  25.151  0.00  0.00    -0.027 C 
ATOM      7  C   UNL     1      -2.176  -0.105  24.313  0.00  0.00    +0.028 C 
ATOM      8  C   UNL     1      -0.626   0.145  24.351  0.00  0.00    +0.012 C 
ATOM      9  C   UNL     1      -3.061   1.114  24.701  0.00  0.00    +0.122 C 
ATOM     10  C   UNL     1      -4.069  -1.655  24.999  0.00  0.00    +0.007 C 
ATOM     11  C   UNL     1      -4.573   0.792  24.648  0.00  0.00    +0.029 C 
ATOM     12  C   UNL     1      -1.790  -2.593  24.594  0.00  0.00    +0.009 C 
ATOM     13  C   UNL     1       0.136  -1.117  23.860  0.00  0.00    +0.076 C 
ATOM     14  C   UNL     1      -4.940  -0.476  25.416  0.00  0.00    +0.007 C 
ATOM     15  C   UNL     1      -0.281  -2.398  24.582  0.00  0.00    +0.023 C 
ATOM     16  C   UNL     1      -2.229  -1.207  26.657  0.00  0.00    +0.011 C 
ATOM     18  C   UNL     1      -0.178   1.361  23.522  0.00  0.00    +0.010 C 
ENDROOT
BRANCH  13   4
ATOM      3  O   UNL     1       1.948  -0.157  21.851  0.00  0.00    -0.270 OA
ATOM      4  N   UNL     1       1.570  -0.963  23.992  0.00  0.00    -0.308 N 
ATOM     21  C   UNL     1       2.362  -0.489  22.959  0.00  0.00    +0.244 C 
ATOM     34  H   UNL     1       1.993  -1.326  24.838  0.00  0.00    +0.149 HD
BRANCH  21  27
ATOM     27  C   UNL     1       3.817  -0.414  23.244  0.00  0.00    +0.037 A 
ATOM     29  C   UNL     1       4.517   0.766  22.990  0.00  0.00    +0.013 A 
ATOM     30  C   UNL     1       4.484  -1.522  23.767  0.00  0.00    +0.013 A 
ATOM     31  C   UNL     1       5.884   0.837  23.259  0.00  0.00    +0.001 A 
ATOM     32  C   UNL     1       5.850  -1.450  24.036  0.00  0.00    +0.001 A 
ATOM     33  C   UNL     1       6.551  -0.271  23.782  0.00  0.00    +0.000 A 
ENDBRANCH  21  27
ENDBRANCH  13   4
BRANCH   9   1
ATOM      1  O   UNL     1      -2.838   2.178  23.775  0.00  0.00    -0.391 OA
ATOM     35  H   UNL     1      -3.508   2.116  23.074  0.00  0.00    +0.210 HD
ENDBRANCH   9   1
BRANCH  11  17
ATOM     17  C   UNL     1      -5.421   1.964  25.158  0.00  0.00    +0.078 C 
ATOM     19  C   UNL     1      -6.903   1.653  25.058  0.00  0.00    +0.017 C 
BRANCH  17  20
ATOM      2  O   UNL     1      -5.650   3.354  23.252  0.00  0.00    -0.275 OA
ATOM      5  N   UNL     1      -4.157   4.068  24.881  0.00  0.00    -0.301 N 
ATOM     20  C   UNL     1      -5.092   3.188  24.341  0.00  0.00    +0.219 C 
ATOM     22  C   UNL     1      -3.477   3.900  26.171  0.00  0.00    +0.108 C 
ATOM     23  C   UNL     1      -3.814   5.299  24.167  0.00  0.00    +0.108 C 
ATOM     24  C   UNL     1      -1.961   3.976  25.999  0.00  0.00    +0.022 C 
ATOM     25  C   UNL     1      -2.306   5.404  23.952  0.00  0.00    +0.022 C 
ATOM     26  C   UNL     1      -1.545   5.267  25.279  0.00  0.00    -0.011 C 
ATOM     28  C   UNL     1      -0.036   5.297  25.045  0.00  0.00    +0.007 C 
ENDBRANCH  17  20
ENDBRANCH  11  17
TORSDOF 5
ENDMDL
