MODEL 1
REMARK VINA RESULT:      -3.1      0.000      0.000
REMARK  Name = 75536062
REMARK  7 active torsions:
REMARK  status: ('A' for Active; 'I' for Inactive)
REMARK    1  A    between atoms: O_1  and  C_10
REMARK    2  A    between atoms: O_2  and  C_12
REMARK    3  A    between atoms: N_5  and  C_9
REMARK    4  A    between atoms: C_8  and  C_13
REMARK    5  A    between atoms: C_15  and  C_17
REMARK    6  A    between atoms: C_20  and  C_22
REMARK    7  A    between atoms: C_21  and  C_23
REMARK                            x       y       z     vdW  Elec       q    Type
REMARK                         _______ _______ _______ _____ _____    ______ ____
ROOT
ATOM      8  C   UNL     1      -3.299   3.090  26.077  0.00  0.00    +0.046 C 
ATOM      9  C   UNL     1      -4.179   2.193  25.176  0.00  0.00    +0.112 C 
ATOM     10  C   UNL     1      -5.579   2.362  25.763  0.00  0.00    +0.164 C 
ATOM     11  C   UNL     1      -4.261   4.134  26.700  0.00  0.00    +0.044 C 
ATOM     12  C   UNL     1      -5.636   3.848  26.099  0.00  0.00    +0.145 C 
ENDROOT
BRANCH   8  13
ATOM      6  N   UNL     1      -0.123   3.354  24.020  0.00  0.00    -0.263 NA
ATOM     13  C   UNL     1      -2.118   3.689  25.344  0.00  0.00    -0.024 A 
ATOM     14  C   UNL     1      -1.921   5.065  25.306  0.00  0.00    +0.007 A 
ATOM     16  C   UNL     1      -1.198   2.884  24.691  0.00  0.00    +0.114 A 
ATOM     18  C   UNL     1      -0.826   5.586  24.626  0.00  0.00    +0.020 A 
ATOM     19  C   UNL     1       0.036   4.697  24.005  0.00  0.00    +0.111 A 
ENDBRANCH   8  13
BRANCH   9   5
ATOM      3  O   UNL     1      -3.113   0.694  22.971  0.00  0.00    -0.270 OA
ATOM      5  N   UNL     1      -3.748   0.818  25.198  0.00  0.00    -0.305 N 
ATOM     15  C   UNL     1      -3.244   0.174  24.076  0.00  0.00    +0.250 C 
ATOM     24  H   UNL     1      -3.928   0.285  26.041  0.00  0.00    +0.149 HD
BRANCH  15  17
ATOM      4  O   UNL     1      -1.684  -3.082  24.724  0.00  0.00    -0.359 OA
ATOM      7  N   UNL     1      -2.938  -3.528  24.323  0.00  0.00    -0.083 NA
ATOM     17  C   UNL     1      -2.870  -1.252  24.257  0.00  0.00    +0.101 A 
ATOM     20  C   UNL     1      -1.656  -1.725  24.680  0.00  0.00    +0.147 A 
ATOM     21  C   UNL     1      -3.629  -2.417  24.050  0.00  0.00    +0.093 A 
ATOM     22  C   UNL     1      -0.393  -1.087  25.074  0.00  0.00    +0.090 C 
ATOM     23  C   UNL     1      -5.024  -2.523  23.590  0.00  0.00    +0.070 C 
ENDBRANCH  15  17
ENDBRANCH   9   5
BRANCH  10   1
ATOM      1  O   UNL     1      -6.593   2.007  24.843  0.00  0.00    -0.387 OA
ATOM     25  H   UNL     1      -6.332   2.355  23.973  0.00  0.00    +0.210 HD
ENDBRANCH  10   1
BRANCH  12   2
ATOM      2  O   UNL     1      -5.790   4.632  24.919  0.00  0.00    -0.389 OA
ATOM     26  H   UNL     1      -5.704   4.034  24.157  0.00  0.00    +0.210 HD
ENDBRANCH  12   2
TORSDOF 5
ENDMDL
MODEL 2
REMARK VINA RESULT:      -2.5      2.023      6.562
REMARK  Name = 75536062
REMARK  7 active torsions:
REMARK  status: ('A' for Active; 'I' for Inactive)
REMARK    1  A    between atoms: O_1  and  C_10
REMARK    2  A    between atoms: O_2  and  C_12
REMARK    3  A    between atoms: N_5  and  C_9
REMARK    4  A    between atoms: C_8  and  C_13
REMARK    5  A    between atoms: C_15  and  C_17
REMARK    6  A    between atoms: C_20  and  C_22
REMARK    7  A    between atoms: C_21  and  C_23
REMARK                            x       y       z     vdW  Elec       q    Type
REMARK                         _______ _______ _______ _____ _____    ______ ____
ROOT
ATOM      8  C   UNL     1      -1.048  -0.646  24.884  0.00  0.00    +0.046 C 
ATOM      9  C   UNL     1      -0.996   0.704  24.134  0.00  0.00    +0.112 C 
ATOM     10  C   UNL     1       0.499   1.002  24.040  0.00  0.00    +0.164 C 
ATOM     11  C   UNL     1       0.333  -1.311  24.654  0.00  0.00    +0.044 C 
ATOM     12  C   UNL     1       1.106  -0.363  23.738  0.00  0.00    +0.145 C 
ENDROOT
BRANCH   8  13
ATOM      6  N   UNL     1      -3.113  -3.697  23.982  0.00  0.00    -0.263 NA
ATOM     13  C   UNL     1      -2.229  -1.503  24.481  0.00  0.00    -0.024 A 
ATOM     14  C   UNL     1      -3.476  -0.938  24.239  0.00  0.00    +0.007 A 
ATOM     16  C   UNL     1      -2.100  -2.876  24.339  0.00  0.00    +0.114 A 
ATOM     18  C   UNL     1      -4.541  -1.751  23.869  0.00  0.00    +0.020 A 
ATOM     19  C   UNL     1      -4.310  -3.112  23.755  0.00  0.00    +0.111 A 
ENDBRANCH   8  13
BRANCH   9   5
ATOM      3  O   UNL     1      -3.171   2.281  23.119  0.00  0.00    -0.270 OA
ATOM      5  N   UNL     1      -1.709   1.741  24.836  0.00  0.00    -0.305 N 
ATOM     15  C   UNL     1      -2.752   2.453  24.261  0.00  0.00    +0.250 C 
ATOM     24  H   UNL     1      -1.351   2.023  25.742  0.00  0.00    +0.149 HD
BRANCH  15  17
ATOM      4  O   UNL     1      -3.640   5.400  26.257  0.00  0.00    -0.359 OA
ATOM      7  N   UNL     1      -4.826   4.689  26.396  0.00  0.00    -0.083 NA
ATOM     17  C   UNL     1      -3.365   3.509  25.107  0.00  0.00    +0.101 A 
ATOM     20  C   UNL     1      -2.779   4.687  25.487  0.00  0.00    +0.147 A 
ATOM     21  C   UNL     1      -4.639   3.564  25.700  0.00  0.00    +0.093 A 
ATOM     22  C   UNL     1      -1.466   5.300  25.241  0.00  0.00    +0.090 C 
ATOM     23  C   UNL     1      -5.716   2.562  25.633  0.00  0.00    +0.070 C 
ENDBRANCH  15  17
ENDBRANCH   9   5
BRANCH  10   1
ATOM      1  O   UNL     1       0.798   1.932  23.016  0.00  0.00    -0.387 OA
ATOM     25  H   UNL     1       1.161   1.432  22.265  0.00  0.00    +0.210 HD
ENDBRANCH  10   1
BRANCH  12   2
ATOM      2  O   UNL     1       0.866  -0.740  22.385  0.00  0.00    -0.389 OA
ATOM     26  H   UNL     1       1.309  -0.087  21.817  0.00  0.00    +0.210 HD
ENDBRANCH  12   2
TORSDOF 5
ENDMDL
MODEL 3
REMARK VINA RESULT:      -2.4      2.032      6.750
REMARK  Name = 75536062
REMARK  7 active torsions:
REMARK  status: ('A' for Active; 'I' for Inactive)
REMARK    1  A    between atoms: O_1  and  C_10
REMARK    2  A    between atoms: O_2  and  C_12
REMARK    3  A    between atoms: N_5  and  C_9
REMARK    4  A    between atoms: C_8  and  C_13
REMARK    5  A    between atoms: C_15  and  C_17
REMARK    6  A    between atoms: C_20  and  C_22
REMARK    7  A    between atoms: C_21  and  C_23
REMARK                            x       y       z     vdW  Elec       q    Type
REMARK                         _______ _______ _______ _____ _____    ______ ____
ROOT
ATOM      8  C   UNL     1      -1.034  -0.661  24.883  0.00  0.00    +0.046 C 
ATOM      9  C   UNL     1      -0.981   0.693  24.139  0.00  0.00    +0.112 C 
ATOM     10  C   UNL     1       0.515   0.984  24.035  0.00  0.00    +0.164 C 
ATOM     11  C   UNL     1       0.342  -1.332  24.640  0.00  0.00    +0.044 C 
ATOM     12  C   UNL     1       1.112  -0.383  23.722  0.00  0.00    +0.145 C 
ENDROOT
BRANCH   8  13
ATOM      6  N   UNL     1      -3.123  -3.699  23.991  0.00  0.00    -0.263 NA
ATOM     13  C   UNL     1      -2.222  -1.510  24.485  0.00  0.00    -0.024 A 
ATOM     14  C   UNL     1      -3.466  -0.937  24.246  0.00  0.00    +0.007 A 
ATOM     16  C   UNL     1      -2.104  -2.885  24.344  0.00  0.00    +0.114 A 
ATOM     18  C   UNL     1      -4.538  -1.743  23.880  0.00  0.00    +0.020 A 
ATOM     19  C   UNL     1      -4.317  -3.105  23.767  0.00  0.00    +0.111 A 
ENDBRANCH   8  13
BRANCH   9   5
ATOM      3  O   UNL     1      -3.175   2.265  23.158  0.00  0.00    -0.270 OA
ATOM      5  N   UNL     1      -1.683   1.730  24.852  0.00  0.00    -0.305 N 
ATOM     15  C   UNL     1      -2.737   2.439  24.293  0.00  0.00    +0.250 C 
ATOM     24  H   UNL     1      -1.311   2.013  25.751  0.00  0.00    +0.149 HD
BRANCH  15  17
ATOM      4  O   UNL     1      -4.785   4.603  26.432  0.00  0.00    -0.359 OA
ATOM      7  N   UNL     1      -3.659   5.412  26.337  0.00  0.00    -0.083 NA
ATOM     17  C   UNL     1      -3.338   3.495  25.148  0.00  0.00    +0.101 A 
ATOM     20  C   UNL     1      -4.582   3.465  25.720  0.00  0.00    +0.147 A 
ATOM     21  C   UNL     1      -2.807   4.728  25.566  0.00  0.00    +0.093 A 
ATOM     22  C   UNL     1      -5.685   2.495  25.715  0.00  0.00    +0.090 C 
ATOM     23  C   UNL     1      -1.488   5.303  25.253  0.00  0.00    +0.070 C 
ENDBRANCH  15  17
ENDBRANCH   9   5
BRANCH  10   1
ATOM      1  O   UNL     1       0.811   1.917  23.014  0.00  0.00    -0.387 OA
ATOM     25  H   UNL     1       1.594   1.590  22.538  0.00  0.00    +0.210 HD
ENDBRANCH  10   1
BRANCH  12   2
ATOM      2  O   UNL     1       0.861  -0.752  22.369  0.00  0.00    -0.389 OA
ATOM     26  H   UNL     1       0.165  -0.164  22.031  0.00  0.00    +0.210 HD
ENDBRANCH  12   2
TORSDOF 5
ENDMDL
MODEL 4
REMARK VINA RESULT:      -1.7      2.105      3.876
REMARK  Name = 75536062
REMARK  7 active torsions:
REMARK  status: ('A' for Active; 'I' for Inactive)
REMARK    1  A    between atoms: O_1  and  C_10
REMARK    2  A    between atoms: O_2  and  C_12
REMARK    3  A    between atoms: N_5  and  C_9
REMARK    4  A    between atoms: C_8  and  C_13
REMARK    5  A    between atoms: C_15  and  C_17
REMARK    6  A    between atoms: C_20  and  C_22
REMARK    7  A    between atoms: C_21  and  C_23
REMARK                            x       y       z     vdW  Elec       q    Type
REMARK                         _______ _______ _______ _____ _____    ______ ____
ROOT
ATOM      8  C   UNL     1      -2.580   2.786  24.033  0.00  0.00    +0.046 C 
ATOM      9  C   UNL     1      -1.617   1.929  24.885  0.00  0.00    +0.112 C 
ATOM     10  C   UNL     1      -0.252   2.566  24.629  0.00  0.00    +0.164 C 
ATOM     11  C   UNL     1      -1.870   4.149  23.835  0.00  0.00    +0.044 C 
ATOM     12  C   UNL     1      -0.563   4.058  24.621  0.00  0.00    +0.145 C 
ENDROOT
BRANCH   8  13
ATOM      6  N   UNL     1      -5.575   4.149  25.920  0.00  0.00    -0.263 NA
ATOM     13  C   UNL     1      -3.968   2.886  24.628  0.00  0.00    -0.024 A 
ATOM     14  C   UNL     1      -4.897   1.866  24.457  0.00  0.00    +0.007 A 
ATOM     16  C   UNL     1      -4.353   3.998  25.362  0.00  0.00    +0.114 A 
ATOM     18  C   UNL     1      -6.164   1.986  25.017  0.00  0.00    +0.020 A 
ATOM     19  C   UNL     1      -6.451   3.136  25.733  0.00  0.00    +0.111 A 
ENDBRANCH   8  13
BRANCH   9   5
ATOM      3  O   UNL     1      -3.135  -0.168  26.128  0.00  0.00    -0.270 OA
ATOM      5  N   UNL     1      -1.644   0.540  24.499  0.00  0.00    -0.305 N 
ATOM     15  C   UNL     1      -2.412  -0.405  25.163  0.00  0.00    +0.250 C 
ATOM     24  H   UNL     1      -0.989   0.240  23.785  0.00  0.00    +0.149 HD
BRANCH  15  17
ATOM      4  O   UNL     1      -1.479  -3.807  24.158  0.00  0.00    -0.359 OA
ATOM      7  N   UNL     1      -2.799  -3.818  23.725  0.00  0.00    -0.083 NA
ATOM     17  C   UNL     1      -2.309  -1.799  24.660  0.00  0.00    +0.101 A 
ATOM     20  C   UNL     1      -1.199  -2.600  24.713  0.00  0.00    +0.147 A 
ATOM     21  C   UNL     1      -3.275  -2.608  24.037  0.00  0.00    +0.093 A 
ATOM     22  C   UNL     1       0.167  -2.421  25.224  0.00  0.00    +0.090 C 
ATOM     23  C   UNL     1      -4.671  -2.270  23.713  0.00  0.00    +0.070 C 
ENDBRANCH  15  17
ENDBRANCH   9   5
BRANCH  10   1
ATOM      1  O   UNL     1       0.687   2.245  25.637  0.00  0.00    -0.387 OA
ATOM     25  H   UNL     1       0.190   1.917  26.405  0.00  0.00    +0.210 HD
ENDBRANCH  10   1
BRANCH  12   2
ATOM      2  O   UNL     1      -0.791   4.538  25.943  0.00  0.00    -0.389 OA
ATOM     26  H   UNL     1      -0.553   3.824  26.558  0.00  0.00    +0.210 HD
ENDBRANCH  12   2
TORSDOF 5
ENDMDL
MODEL 5
REMARK VINA RESULT:      -1.7      2.045      5.577
REMARK  Name = 75536062
REMARK  7 active torsions:
REMARK  status: ('A' for Active; 'I' for Inactive)
REMARK    1  A    between atoms: O_1  and  C_10
REMARK    2  A    between atoms: O_2  and  C_12
REMARK    3  A    between atoms: N_5  and  C_9
REMARK    4  A    between atoms: C_8  and  C_13
REMARK    5  A    between atoms: C_15  and  C_17
REMARK    6  A    between atoms: C_20  and  C_22
REMARK    7  A    between atoms: C_21  and  C_23
REMARK                            x       y       z     vdW  Elec       q    Type
REMARK                         _______ _______ _______ _____ _____    ______ ____
ROOT
ATOM      8  C   UNL     1      -1.334  -0.440  23.845  0.00  0.00    +0.046 C 
ATOM      9  C   UNL     1      -1.792  -0.331  25.317  0.00  0.00    +0.112 C 
ATOM     10  C   UNL     1      -2.656  -1.576  25.514  0.00  0.00    +0.164 C 
ATOM     11  C   UNL     1      -1.439  -1.943  23.480  0.00  0.00    +0.044 C 
ATOM     12  C   UNL     1      -1.888  -2.653  24.756  0.00  0.00    +0.145 C 
ENDROOT
BRANCH   8  13
ATOM      6  N   UNL     1       1.574   1.992  23.969  0.00  0.00    -0.263 NA
ATOM     13  C   UNL     1       0.030   0.168  23.602  0.00  0.00    -0.024 A 
ATOM     14  C   UNL     1       0.978  -0.487  22.824  0.00  0.00    +0.007 A 
ATOM     16  C   UNL     1       0.375   1.395  24.148  0.00  0.00    +0.114 A 
ATOM     18  C   UNL     1       2.223   0.097  22.617  0.00  0.00    +0.020 A 
ATOM     19  C   UNL     1       2.470   1.326  23.206  0.00  0.00    +0.111 A 
ENDBRANCH   8  13
BRANCH   9   5
ATOM      3  O   UNL     1      -3.691   0.912  23.557  0.00  0.00    -0.270 OA
ATOM      5  N   UNL     1      -2.531   0.881  25.565  0.00  0.00    -0.305 N 
ATOM     15  C   UNL     1      -3.431   1.409  24.650  0.00  0.00    +0.250 C 
ATOM     24  H   UNL     1      -2.291   1.413  26.394  0.00  0.00    +0.149 HD
BRANCH  15  17
ATOM      4  O   UNL     1      -4.399   4.822  25.583  0.00  0.00    -0.359 OA
ATOM      7  N   UNL     1      -5.653   4.227  25.642  0.00  0.00    -0.083 NA
ATOM     17  C   UNL     1      -4.092   2.680  25.045  0.00  0.00    +0.101 A 
ATOM     20  C   UNL     1      -3.477   3.890  25.226  0.00  0.00    +0.147 A 
ATOM     21  C   UNL     1      -5.445   2.948  25.315  0.00  0.00    +0.093 A 
ATOM     22  C   UNL     1      -2.088   4.357  25.120  0.00  0.00    +0.090 C 
ATOM     23  C   UNL     1      -6.581   2.013  25.277  0.00  0.00    +0.070 C 
ENDBRANCH  15  17
ENDBRANCH   9   5
BRANCH  10   1
ATOM      1  O   UNL     1      -2.800  -1.917  26.880  0.00  0.00    -0.387 OA
ATOM     25  H   UNL     1      -3.682  -1.620  27.163  0.00  0.00    +0.210 HD
ENDBRANCH  10   1
BRANCH  12   2
ATOM      2  O   UNL     1      -0.733  -3.063  25.482  0.00  0.00    -0.389 OA
ATOM     26  H   UNL     1      -1.031  -3.643  26.203  0.00  0.00    +0.210 HD
ENDBRANCH  12   2
TORSDOF 5
ENDMDL
MODEL 6
REMARK VINA RESULT:      -1.5      2.073      5.820
REMARK  Name = 75536062
REMARK  7 active torsions:
REMARK  status: ('A' for Active; 'I' for Inactive)
REMARK    1  A    between atoms: O_1  and  C_10
REMARK    2  A    between atoms: O_2  and  C_12
REMARK    3  A    between atoms: N_5  and  C_9
REMARK    4  A    between atoms: C_8  and  C_13
REMARK    5  A    between atoms: C_15  and  C_17
REMARK    6  A    between atoms: C_20  and  C_22
REMARK    7  A    between atoms: C_21  and  C_23
REMARK                            x       y       z     vdW  Elec       q    Type
REMARK                         _______ _______ _______ _____ _____    ______ ____
ROOT
ATOM      8  C   UNL     1      -1.260  -0.449  23.821  0.00  0.00    +0.046 C 
ATOM      9  C   UNL     1      -1.722  -0.312  25.290  0.00  0.00    +0.112 C 
ATOM     10  C   UNL     1      -2.584  -1.554  25.510  0.00  0.00    +0.164 C 
ATOM     11  C   UNL     1      -1.362  -1.959  23.485  0.00  0.00    +0.044 C 
ATOM     12  C   UNL     1      -1.814  -2.644  24.774  0.00  0.00    +0.145 C 
ENDROOT
BRANCH   8  13
ATOM      6  N   UNL     1       1.657   1.973  23.935  0.00  0.00    -0.263 NA
ATOM     13  C   UNL     1       0.104   0.156  23.570  0.00  0.00    -0.024 A 
ATOM     14  C   UNL     1       1.043  -0.497  22.780  0.00  0.00    +0.007 A 
ATOM     16  C   UNL     1       0.457   1.379  24.120  0.00  0.00    +0.114 A 
ATOM     18  C   UNL     1       2.288   0.084  22.566  0.00  0.00    +0.020 A 
ATOM     19  C   UNL     1       2.544   1.309  23.160  0.00  0.00    +0.111 A 
ENDBRANCH   8  13
BRANCH   9   5
ATOM      3  O   UNL     1      -3.659   0.865  23.527  0.00  0.00    -0.270 OA
ATOM      5  N   UNL     1      -2.462   0.904  25.513  0.00  0.00    -0.305 N 
ATOM     15  C   UNL     1      -3.383   1.397  24.599  0.00  0.00    +0.250 C 
ATOM     24  H   UNL     1      -2.210   1.463  26.320  0.00  0.00    +0.149 HD
BRANCH  15  17
ATOM      4  O   UNL     1      -5.615   4.166  25.495  0.00  0.00    -0.359 OA
ATOM      7  N   UNL     1      -4.412   4.862  25.494  0.00  0.00    -0.083 NA
ATOM     17  C   UNL     1      -4.043   2.677  24.965  0.00  0.00    +0.101 A 
ATOM     20  C   UNL     1      -5.382   2.866  25.179  0.00  0.00    +0.147 A 
ATOM     21  C   UNL     1      -3.487   3.951  25.176  0.00  0.00    +0.093 A 
ATOM     22  C   UNL     1      -6.558   1.987  25.134  0.00  0.00    +0.090 C 
ATOM     23  C   UNL     1      -2.074   4.352  25.083  0.00  0.00    +0.070 C 
ENDBRANCH  15  17
ENDBRANCH   9   5
BRANCH  10   1
ATOM      1  O   UNL     1      -2.731  -1.869  26.881  0.00  0.00    -0.387 OA
ATOM     25  H   UNL     1      -2.215  -2.675  27.052  0.00  0.00    +0.210 HD
ENDBRANCH  10   1
BRANCH  12   2
ATOM      2  O   UNL     1      -0.659  -3.039  25.510  0.00  0.00    -0.389 OA
ATOM     26  H   UNL     1      -0.267  -3.801  25.051  0.00  0.00    +0.210 HD
ENDBRANCH  12   2
TORSDOF 5
ENDMDL
MODEL 7
REMARK VINA RESULT:      -0.7      2.693      4.069
REMARK  Name = 75536062
REMARK  7 active torsions:
REMARK  status: ('A' for Active; 'I' for Inactive)
REMARK    1  A    between atoms: O_1  and  C_10
REMARK    2  A    between atoms: O_2  and  C_12
REMARK    3  A    between atoms: N_5  and  C_9
REMARK    4  A    between atoms: C_8  and  C_13
REMARK    5  A    between atoms: C_15  and  C_17
REMARK    6  A    between atoms: C_20  and  C_22
REMARK    7  A    between atoms: C_21  and  C_23
REMARK                            x       y       z     vdW  Elec       q    Type
REMARK                         _______ _______ _______ _____ _____    ______ ____
ROOT
ATOM      8  C   UNL     1      -0.097   1.717  24.819  0.00  0.00    +0.046 C 
ATOM      9  C   UNL     1      -1.375   2.145  24.062  0.00  0.00    +0.112 C 
ATOM     10  C   UNL     1      -1.951   3.257  24.937  0.00  0.00    +0.164 C 
ATOM     11  C   UNL     1       0.301   2.932  25.696  0.00  0.00    +0.044 C 
ATOM     12  C   UNL     1      -0.712   4.029  25.375  0.00  0.00    +0.145 C 
ENDROOT
BRANCH   8  13
ATOM      6  N   UNL     1       3.227   1.515  23.002  0.00  0.00    -0.263 NA
ATOM     13  C   UNL     1       1.000   1.226  23.898  0.00  0.00    -0.024 A 
ATOM     14  C   UNL     1       0.827   0.087  23.122  0.00  0.00    +0.007 A 
ATOM     16  C   UNL     1       2.208   1.899  23.803  0.00  0.00    +0.114 A 
ATOM     18  C   UNL     1       1.852  -0.340  22.285  0.00  0.00    +0.020 A 
ATOM     19  C   UNL     1       3.022   0.402  22.261  0.00  0.00    +0.111 A 
ENDBRANCH   8  13
BRANCH   9   5
ATOM      3  O   UNL     1      -1.616  -0.160  25.759  0.00  0.00    -0.270 OA
ATOM      5  N   UNL     1      -2.300   1.052  23.903  0.00  0.00    -0.305 N 
ATOM     15  C   UNL     1      -2.343  -0.025  24.778  0.00  0.00    +0.250 C 
ATOM     24  H   UNL     1      -2.857   1.030  23.056  0.00  0.00    +0.149 HD
BRANCH  15  17
ATOM      4  O   UNL     1      -5.273  -2.107  24.045  0.00  0.00    -0.359 OA
ATOM      7  N   UNL     1      -4.293  -3.089  23.956  0.00  0.00    -0.083 NA
ATOM     17  C   UNL     1      -3.336  -1.084  24.460  0.00  0.00    +0.101 A 
ATOM     20  C   UNL     1      -4.690  -0.918  24.345  0.00  0.00    +0.147 A 
ATOM     21  C   UNL     1      -3.144  -2.454  24.206  0.00  0.00    +0.093 A 
ATOM     22  C   UNL     1      -5.593   0.234  24.478  0.00  0.00    +0.090 C 
ATOM     23  C   UNL     1      -1.879  -3.207  24.194  0.00  0.00    +0.070 C 
ENDBRANCH  15  17
ENDBRANCH   9   5
BRANCH  10   1
ATOM      1  O   UNL     1      -2.847   4.090  24.225  0.00  0.00    -0.387 OA
ATOM     25  H   UNL     1      -2.344   4.516  23.510  0.00  0.00    +0.210 HD
ENDBRANCH  10   1
BRANCH  12   2
ATOM      2  O   UNL     1      -0.202   4.823  24.308  0.00  0.00    -0.389 OA
ATOM     26  H   UNL     1      -0.669   5.676  24.329  0.00  0.00    +0.210 HD
ENDBRANCH  12   2
TORSDOF 5
ENDMDL
MODEL 8
REMARK VINA RESULT:       0.1      2.006      4.086
REMARK  Name = 75536062
REMARK  7 active torsions:
REMARK  status: ('A' for Active; 'I' for Inactive)
REMARK    1  A    between atoms: O_1  and  C_10
REMARK    2  A    between atoms: O_2  and  C_12
REMARK    3  A    between atoms: N_5  and  C_9
REMARK    4  A    between atoms: C_8  and  C_13
REMARK    5  A    between atoms: C_15  and  C_17
REMARK    6  A    between atoms: C_20  and  C_22
REMARK    7  A    between atoms: C_21  and  C_23
REMARK                            x       y       z     vdW  Elec       q    Type
REMARK                         _______ _______ _______ _____ _____    ______ ____
ROOT
ATOM      8  C   UNL     1      -2.786   2.940  24.111  0.00  0.00    +0.046 C 
ATOM      9  C   UNL     1      -1.768   2.171  24.984  0.00  0.00    +0.112 C 
ATOM     10  C   UNL     1      -0.443   2.871  24.687  0.00  0.00    +0.164 C 
ATOM     11  C   UNL     1      -2.154   4.331  23.851  0.00  0.00    +0.044 C 
ATOM     12  C   UNL     1      -0.836   4.343  24.625  0.00  0.00    +0.145 C 
ENDROOT
BRANCH   8  13
ATOM      6  N   UNL     1      -6.441   2.155  24.753  0.00  0.00    -0.263 NA
ATOM     13  C   UNL     1      -4.171   2.988  24.719  0.00  0.00    -0.024 A 
ATOM     14  C   UNL     1      -4.469   3.861  25.758  0.00  0.00    +0.007 A 
ATOM     16  C   UNL     1      -5.185   2.162  24.255  0.00  0.00    +0.114 A 
ATOM     18  C   UNL     1      -5.751   3.884  26.295  0.00  0.00    +0.020 A 
ATOM     19  C   UNL     1      -6.693   3.019  25.763  0.00  0.00    +0.111 A 
ENDBRANCH   8  13
BRANCH   9   5
ATOM      3  O   UNL     1      -3.575   0.134  25.897  0.00  0.00    -0.270 OA
ATOM      5  N   UNL     1      -1.722   0.769  24.654  0.00  0.00    -0.305 N 
ATOM     15  C   UNL     1      -2.643  -0.145  25.145  0.00  0.00    +0.250 C 
ATOM     24  H   UNL     1      -0.919   0.438  24.131  0.00  0.00    +0.149 HD
BRANCH  15  17
ATOM      4  O   UNL     1      -2.808  -3.573  23.851  0.00  0.00    -0.359 OA
ATOM      7  N   UNL     1      -1.535  -3.622  24.405  0.00  0.00    -0.083 NA
ATOM     17  C   UNL     1      -2.442  -1.558  24.733  0.00  0.00    +0.101 A 
ATOM     20  C   UNL     1      -3.338  -2.340  24.052  0.00  0.00    +0.147 A 
ATOM     21  C   UNL     1      -1.338  -2.407  24.925  0.00  0.00    +0.093 A 
ATOM     22  C   UNL     1      -4.692  -2.119  23.525  0.00  0.00    +0.090 C 
ATOM     23  C   UNL     1      -0.067  -2.103  25.604  0.00  0.00    +0.070 C 
ENDBRANCH  15  17
ENDBRANCH   9   5
BRANCH  10   1
ATOM      1  O   UNL     1       0.522   2.643  25.695  0.00  0.00    -0.387 OA
ATOM     25  H   UNL     1       1.396   2.648  25.269  0.00  0.00    +0.210 HD
ENDBRANCH  10   1
BRANCH  12   2
ATOM      2  O   UNL     1      -1.078   4.862  25.929  0.00  0.00    -0.389 OA
ATOM     26  H   UNL     1      -2.040   4.950  26.035  0.00  0.00    +0.210 HD
ENDBRANCH  12   2
TORSDOF 5
ENDMDL
MODEL 9
REMARK VINA RESULT:       0.8      3.242      5.267
REMARK  Name = 75536062
REMARK  7 active torsions:
REMARK  status: ('A' for Active; 'I' for Inactive)
REMARK    1  A    between atoms: O_1  and  C_10
REMARK    2  A    between atoms: O_2  and  C_12
REMARK    3  A    between atoms: N_5  and  C_9
REMARK    4  A    between atoms: C_8  and  C_13
REMARK    5  A    between atoms: C_15  and  C_17
REMARK    6  A    between atoms: C_20  and  C_22
REMARK    7  A    between atoms: C_21  and  C_23
REMARK                            x       y       z     vdW  Elec       q    Type
REMARK                         _______ _______ _______ _____ _____    ______ ____
ROOT
ATOM      8  C   UNL     1      -2.707   1.594  23.821  0.00  0.00    +0.046 C 
ATOM      9  C   UNL     1      -1.350   2.074  24.383  0.00  0.00    +0.112 C 
ATOM     10  C   UNL     1      -1.516   3.590  24.471  0.00  0.00    +0.164 C 
ATOM     11  C   UNL     1      -3.727   2.708  24.172  0.00  0.00    +0.044 C 
ATOM     12  C   UNL     1      -2.947   3.752  24.970  0.00  0.00    +0.145 C 
ENDROOT
BRANCH   8  13
ATOM      6  N   UNL     1      -4.107  -1.932  23.843  0.00  0.00    -0.263 NA
ATOM     13  C   UNL     1      -3.097   0.215  24.309  0.00  0.00    -0.024 A 
ATOM     14  C   UNL     1      -2.830  -0.186  25.613  0.00  0.00    +0.007 A 
ATOM     16  C   UNL     1      -3.733  -0.688  23.470  0.00  0.00    +0.114 A 
ATOM     18  C   UNL     1      -3.201  -1.458  26.033  0.00  0.00    +0.020 A 
ATOM     19  C   UNL     1      -3.831  -2.286  25.118  0.00  0.00    +0.111 A 
ENDBRANCH   8  13
BRANCH   9   5
ATOM      3  O   UNL     1       0.249  -0.303  24.585  0.00  0.00    -0.270 OA
ATOM      5  N   UNL     1      -0.250   1.701  23.530  0.00  0.00    -0.305 N 
ATOM     15  C   UNL     1       0.468   0.526  23.706  0.00  0.00    +0.250 C 
ATOM     24  H   UNL     1       0.068   2.384  22.852  0.00  0.00    +0.149 HD
BRANCH  15  17
ATOM      4  O   UNL     1       3.640   0.284  21.879  0.00  0.00    -0.359 OA
ATOM      7  N   UNL     1       2.811  -0.315  20.937  0.00  0.00    -0.083 NA
ATOM     17  C   UNL     1       1.591   0.301  22.759  0.00  0.00    +0.101 A 
ATOM     20  C   UNL     1       2.902   0.646  22.959  0.00  0.00    +0.147 A 
ATOM     21  C   UNL     1       1.593  -0.294  21.486  0.00  0.00    +0.093 A 
ATOM     22  C   UNL     1       3.630   1.299  24.055  0.00  0.00    +0.090 C 
ATOM     23  C   UNL     1       0.452  -0.858  20.746  0.00  0.00    +0.070 C 
ENDBRANCH  15  17
ENDBRANCH   9   5
BRANCH  10   1
ATOM      1  O   UNL     1      -0.593   4.180  25.367  0.00  0.00    -0.387 OA
ATOM     25  H   UNL     1       0.284   3.811  25.167  0.00  0.00    +0.210 HD
ENDBRANCH  10   1
BRANCH  12   2
ATOM      2  O   UNL     1      -3.044   3.434  26.355  0.00  0.00    -0.389 OA
ATOM     26  H   UNL     1      -3.954   3.630  26.636  0.00  0.00    +0.210 HD
ENDBRANCH  12   2
TORSDOF 5
ENDMDL
