MODEL 1
REMARK VINA RESULT:      -0.5      0.000      0.000
REMARK  Name = 75367149
REMARK  6 active torsions:
REMARK  status: ('A' for Active; 'I' for Inactive)
REMARK    1  A    between atoms: O_4  and  C_22
REMARK    2  A    between atoms: O_4  and  C_26
REMARK    3  A    between atoms: N_5  and  C_11
REMARK    4  A    between atoms: C_8  and  C_13
REMARK    5  A    between atoms: C_11  and  C_14
REMARK    6  A    between atoms: C_15  and  C_19
REMARK                            x       y       z     vdW  Elec       q    Type
REMARK                         _______ _______ _______ _____ _____    ______ ____
ROOT
ATOM      3  O   UNL     1      -0.851   5.225  25.005  0.00  0.00    -0.377 OA
ATOM      5  N   UNL     1      -2.383   2.849  24.550  0.00  0.00    -0.285 NA
ATOM      8  C   UNL     1      -1.102   3.091  23.838  0.00  0.00    +0.149 C 
ATOM      9  C   UNL     1      -3.001   4.129  24.937  0.00  0.00    +0.113 C 
ATOM     10  C   UNL     1      -0.191   4.001  24.685  0.00  0.00    +0.186 C 
ATOM     12  C   UNL     1      -2.034   4.970  25.760  0.00  0.00    +0.175 C 
ENDROOT
BRANCH   8  13
ATOM      6  N   UNL     1       1.000   1.707  23.715  0.00  0.00    -0.340 N 
ATOM      7  N   UNL     1      -0.845   0.719  22.973  0.00  0.00    -0.238 NA
ATOM     13  C   UNL     1      -0.345   1.817  23.495  0.00  0.00    +0.127 A 
ATOM     15  C   UNL     1       1.382   0.460  23.308  0.00  0.00    +0.073 A 
ATOM     16  C   UNL     1       0.226  -0.131  22.854  0.00  0.00    +0.139 A 
ATOM     27  H   UNL     1       1.600   2.418  24.112  0.00  0.00    +0.167 HD
BRANCH  15  19
ATOM      1 CL   UNL     1       6.832   0.024  23.069  0.00  0.00    -0.076 Cl
ATOM      2  S   UNL     1       4.024   0.983  22.935  0.00  0.00    -0.075 S 
ATOM     19  C   UNL     1       2.708  -0.018  23.379  0.00  0.00    +0.038 A 
ATOM     23  C   UNL     1       3.123  -1.268  23.786  0.00  0.00    +0.019 A 
ATOM     24  C   UNL     1       4.540  -1.404  23.732  0.00  0.00    +0.028 A 
ATOM     25  C   UNL     1       5.155  -0.254  23.287  0.00  0.00    +0.079 A 
ENDBRANCH  15  19
ENDBRANCH   8  13
BRANCH   5  11
ATOM     11  C   UNL     1      -3.334   2.085  23.733  0.00  0.00    +0.120 C 
BRANCH  11  14
ATOM     14  C   UNL     1      -3.422   0.648  24.172  0.00  0.00    -0.033 A 
ATOM     17  C   UNL     1      -3.987  -0.306  23.327  0.00  0.00    +0.008 A 
ATOM     18  C   UNL     1      -2.938   0.271  25.425  0.00  0.00    +0.008 A 
ATOM     20  C   UNL     1      -4.068  -1.638  23.735  0.00  0.00    +0.046 A 
ATOM     21  C   UNL     1      -3.019  -1.059  25.833  0.00  0.00    +0.046 A 
ATOM     22  C   UNL     1      -3.584  -2.015  24.988  0.00  0.00    +0.120 A 
BRANCH  22   4
ATOM      4  O   UNL     1      -3.663  -3.315  25.385  0.00  0.00    -0.495 OA
ATOM     26  C   UNL     1      -3.736  -4.303  24.359  0.00  0.00    +0.277 C 
ENDBRANCH  22   4
ENDBRANCH  11  14
ENDBRANCH   5  11
TORSDOF 5
ENDMDL
MODEL 2
REMARK VINA RESULT:      -0.3      4.043      6.270
REMARK  Name = 75367149
REMARK  6 active torsions:
REMARK  status: ('A' for Active; 'I' for Inactive)
REMARK    1  A    between atoms: O_4  and  C_22
REMARK    2  A    between atoms: O_4  and  C_26
REMARK    3  A    between atoms: N_5  and  C_11
REMARK    4  A    between atoms: C_8  and  C_13
REMARK    5  A    between atoms: C_11  and  C_14
REMARK    6  A    between atoms: C_15  and  C_19
REMARK                            x       y       z     vdW  Elec       q    Type
REMARK                         _______ _______ _______ _____ _____    ______ ____
ROOT
ATOM      3  O   UNL     1       3.116   0.819  22.464  0.00  0.00    -0.377 OA
ATOM      5  N   UNL     1       0.665  -0.315  23.417  0.00  0.00    -0.285 NA
ATOM      8  C   UNL     1       1.320   0.816  24.123  0.00  0.00    +0.149 C 
ATOM      9  C   UNL     1       1.666  -1.099  22.674  0.00  0.00    +0.113 C 
ATOM     10  C   UNL     1       2.161   1.644  23.131  0.00  0.00    +0.186 C 
ATOM     12  C   UNL     1       2.457  -0.208  21.725  0.00  0.00    +0.175 C 
ENDROOT
BRANCH   8  13
ATOM      6  N   UNL     1      -0.874   2.046  24.284  0.00  0.00    -0.340 N 
ATOM      7  N   UNL     1       0.517   2.337  25.991  0.00  0.00    -0.238 NA
ATOM     13  C   UNL     1       0.342   1.741  24.832  0.00  0.00    +0.127 A 
ATOM     15  C   UNL     1      -1.513   2.888  25.148  0.00  0.00    +0.073 A 
ATOM     16  C   UNL     1      -0.636   3.054  26.193  0.00  0.00    +0.139 A 
ATOM     27  H   UNL     1      -1.234   1.703  23.402  0.00  0.00    +0.167 HD
BRANCH  15  19
ATOM      1 CL   UNL     1      -6.410   5.254  25.763  0.00  0.00    -0.076 Cl
ATOM      2  S   UNL     1      -3.700   4.119  26.196  0.00  0.00    -0.075 S 
ATOM     19  C   UNL     1      -2.801   3.421  24.917  0.00  0.00    +0.038 A 
ATOM     23  C   UNL     1      -3.485   3.462  23.722  0.00  0.00    +0.019 A 
ATOM     24  C   UNL     1      -4.764   4.074  23.858  0.00  0.00    +0.028 A 
ATOM     25  C   UNL     1      -5.009   4.479  25.152  0.00  0.00    +0.079 A 
ENDBRANCH  15  19
ENDBRANCH   8  13
BRANCH   5  11
ATOM     11  C   UNL     1      -0.052  -1.202  24.341  0.00  0.00    +0.120 C 
BRANCH  11  14
ATOM     14  C   UNL     1      -1.508  -0.837  24.453  0.00  0.00    -0.033 A 
ATOM     17  C   UNL     1      -2.160  -0.940  25.681  0.00  0.00    +0.008 A 
ATOM     18  C   UNL     1      -2.204  -0.394  23.328  0.00  0.00    +0.008 A 
ATOM     20  C   UNL     1      -3.509  -0.601  25.785  0.00  0.00    +0.046 A 
ATOM     21  C   UNL     1      -3.552  -0.055  23.431  0.00  0.00    +0.046 A 
ATOM     22  C   UNL     1      -4.206  -0.158  24.659  0.00  0.00    +0.120 A 
BRANCH  22   4
ATOM      4  O   UNL     1      -5.522   0.174  24.761  0.00  0.00    -0.495 OA
ATOM     26  C   UNL     1      -5.858   1.228  25.661  0.00  0.00    +0.277 C 
ENDBRANCH  22   4
ENDBRANCH  11  14
ENDBRANCH   5  11
TORSDOF 5
ENDMDL
MODEL 3
REMARK VINA RESULT:      -0.3      2.122      3.140
REMARK  Name = 75367149
REMARK  6 active torsions:
REMARK  status: ('A' for Active; 'I' for Inactive)
REMARK    1  A    between atoms: O_4  and  C_22
REMARK    2  A    between atoms: O_4  and  C_26
REMARK    3  A    between atoms: N_5  and  C_11
REMARK    4  A    between atoms: C_8  and  C_13
REMARK    5  A    between atoms: C_11  and  C_14
REMARK    6  A    between atoms: C_15  and  C_19
REMARK                            x       y       z     vdW  Elec       q    Type
REMARK                         _______ _______ _______ _____ _____    ______ ____
ROOT
ATOM      3  O   UNL     1      -5.960   4.217  25.764  0.00  0.00    -0.377 OA
ATOM      5  N   UNL     1      -4.740   1.753  24.964  0.00  0.00    -0.285 NA
ATOM      8  C   UNL     1      -4.111   3.063  24.655  0.00  0.00    +0.149 C 
ATOM      9  C   UNL     1      -6.198   1.907  25.103  0.00  0.00    +0.113 C 
ATOM     10  C   UNL     1      -4.538   4.113  25.700  0.00  0.00    +0.186 C 
ATOM     12  C   UNL     1      -6.534   2.967  26.144  0.00  0.00    +0.175 C 
ENDROOT
BRANCH   8  13
ATOM      6  N   UNL     1      -1.937   1.984  23.978  0.00  0.00    -0.340 N 
ATOM      7  N   UNL     1      -1.753   3.887  25.107  0.00  0.00    -0.238 NA
ATOM     13  C   UNL     1      -2.592   3.012  24.600  0.00  0.00    +0.127 A 
ATOM     15  C   UNL     1      -0.597   2.220  24.097  0.00  0.00    +0.073 A 
ATOM     16  C   UNL     1      -0.508   3.400  24.798  0.00  0.00    +0.139 A 
ATOM     27  H   UNL     1      -2.368   1.197  23.510  0.00  0.00    +0.167 HD
BRANCH  15  19
ATOM      1 CL   UNL     1       4.161   0.136  22.374  0.00  0.00    -0.076 Cl
ATOM      2  S   UNL     1       2.027   1.892  23.460  0.00  0.00    -0.075 S 
ATOM     19  C   UNL     1       0.401   1.367  23.577  0.00  0.00    +0.038 A 
ATOM     23  C   UNL     1       0.239   0.078  23.116  0.00  0.00    +0.019 A 
ATOM     24  C   UNL     1       1.466  -0.485  22.662  0.00  0.00    +0.028 A 
ATOM     25  C   UNL     1       2.520   0.394  22.792  0.00  0.00    +0.079 A 
ENDBRANCH  15  19
ENDBRANCH   8  13
BRANCH   5  11
ATOM     11  C   UNL     1      -4.459   0.748  23.931  0.00  0.00    +0.120 C 
BRANCH  11  14
ATOM     14  C   UNL     1      -3.466  -0.280  24.404  0.00  0.00    -0.033 A 
ATOM     17  C   UNL     1      -3.249  -1.435  23.654  0.00  0.00    +0.008 A 
ATOM     18  C   UNL     1      -2.764  -0.076  25.591  0.00  0.00    +0.008 A 
ATOM     20  C   UNL     1      -2.328  -2.387  24.093  0.00  0.00    +0.046 A 
ATOM     21  C   UNL     1      -1.844  -1.027  26.030  0.00  0.00    +0.046 A 
ATOM     22  C   UNL     1      -1.625  -2.183  25.281  0.00  0.00    +0.120 A 
BRANCH  22   4
ATOM      4  O   UNL     1      -0.726  -3.112  25.708  0.00  0.00    -0.495 OA
ATOM     26  C   UNL     1       0.651  -2.850  25.445  0.00  0.00    +0.277 C 
ENDBRANCH  22   4
ENDBRANCH  11  14
ENDBRANCH   5  11
TORSDOF 5
ENDMDL
MODEL 4
REMARK VINA RESULT:      -0.1      1.935      4.499
REMARK  Name = 75367149
REMARK  6 active torsions:
REMARK  status: ('A' for Active; 'I' for Inactive)
REMARK    1  A    between atoms: O_4  and  C_22
REMARK    2  A    between atoms: O_4  and  C_26
REMARK    3  A    between atoms: N_5  and  C_11
REMARK    4  A    between atoms: C_8  and  C_13
REMARK    5  A    between atoms: C_11  and  C_14
REMARK    6  A    between atoms: C_15  and  C_19
REMARK                            x       y       z     vdW  Elec       q    Type
REMARK                         _______ _______ _______ _____ _____    ______ ____
ROOT
ATOM      3  O   UNL     1      -2.800  -2.444  25.951  0.00  0.00    -0.377 OA
ATOM      5  N   UNL     1      -2.818  -0.842  23.578  0.00  0.00    -0.285 NA
ATOM      8  C   UNL     1      -2.115  -0.395  24.808  0.00  0.00    +0.149 C 
ATOM      9  C   UNL     1      -3.918  -1.758  23.925  0.00  0.00    +0.113 C 
ATOM     10  C   UNL     1      -1.680  -1.616  25.642  0.00  0.00    +0.186 C 
ATOM     12  C   UNL     1      -3.406  -2.929  24.754  0.00  0.00    +0.175 C 
ENDROOT
BRANCH   8  13
ATOM      6  N   UNL     1       0.274  -0.067  24.074  0.00  0.00    -0.340 N 
ATOM      7  N   UNL     1      -0.805   1.776  24.684  0.00  0.00    -0.238 NA
ATOM     13  C   UNL     1      -0.897   0.474  24.531  0.00  0.00    +0.127 A 
ATOM     15  C   UNL     1       1.167   0.955  23.926  0.00  0.00    +0.073 A 
ATOM     16  C   UNL     1       0.480   2.082  24.309  0.00  0.00    +0.139 A 
ATOM     27  H   UNL     1       0.442  -1.045  23.876  0.00  0.00    +0.167 HD
BRANCH  15  19
ATOM      1 CL   UNL     1       6.150  -1.064  22.904  0.00  0.00    -0.076 Cl
ATOM      2  S   UNL     1       3.362  -0.649  23.838  0.00  0.00    -0.075 S 
ATOM     19  C   UNL     1       2.493   0.781  23.472  0.00  0.00    +0.038 A 
ATOM     23  C   UNL     1       3.240   1.662  22.720  0.00  0.00    +0.019 A 
ATOM     24  C   UNL     1       4.543   1.157  22.442  0.00  0.00    +0.028 A 
ATOM     25  C   UNL     1       4.742  -0.091  22.990  0.00  0.00    +0.079 A 
ENDBRANCH  15  19
ENDBRANCH   8  13
BRANCH   5  11
ATOM     11  C   UNL     1      -3.357   0.286  22.808  0.00  0.00    +0.120 C 
BRANCH  11  14
ATOM     14  C   UNL     1      -3.986   1.323  23.699  0.00  0.00    -0.033 A 
ATOM     17  C   UNL     1      -3.645   2.667  23.553  0.00  0.00    +0.008 A 
ATOM     18  C   UNL     1      -4.911   0.939  24.670  0.00  0.00    +0.008 A 
ATOM     20  C   UNL     1      -4.229   3.628  24.379  0.00  0.00    +0.046 A 
ATOM     21  C   UNL     1      -5.494   1.899  25.496  0.00  0.00    +0.046 A 
ATOM     22  C   UNL     1      -5.154   3.244  25.351  0.00  0.00    +0.120 A 
BRANCH  22   4
ATOM      4  O   UNL     1      -5.724   4.182  26.155  0.00  0.00    -0.495 OA
ATOM     26  C   UNL     1      -6.285   5.329  25.519  0.00  0.00    +0.277 C 
ENDBRANCH  22   4
ENDBRANCH  11  14
ENDBRANCH   5  11
TORSDOF 5
ENDMDL
MODEL 5
REMARK VINA RESULT:       0.1      1.786      4.331
REMARK  Name = 75367149
REMARK  6 active torsions:
REMARK  status: ('A' for Active; 'I' for Inactive)
REMARK    1  A    between atoms: O_4  and  C_22
REMARK    2  A    between atoms: O_4  and  C_26
REMARK    3  A    between atoms: N_5  and  C_11
REMARK    4  A    between atoms: C_8  and  C_13
REMARK    5  A    between atoms: C_11  and  C_14
REMARK    6  A    between atoms: C_15  and  C_19
REMARK                            x       y       z     vdW  Elec       q    Type
REMARK                         _______ _______ _______ _____ _____    ______ ____
ROOT
ATOM      3  O   UNL     1      -2.706  -2.334  25.985  0.00  0.00    -0.377 OA
ATOM      5  N   UNL     1      -2.788  -0.831  23.549  0.00  0.00    -0.285 NA
ATOM      8  C   UNL     1      -1.797  -0.526  24.613  0.00  0.00    +0.149 C 
ATOM      9  C   UNL     1      -3.984  -1.462  24.132  0.00  0.00    +0.113 C 
ATOM     10  C   UNL     1      -1.504  -1.793  25.441  0.00  0.00    +0.186 C 
ATOM     12  C   UNL     1      -3.607  -2.697  24.939  0.00  0.00    +0.175 C 
ENDROOT
BRANCH   8  13
ATOM      6  N   UNL     1       0.682  -0.672  24.188  0.00  0.00    -0.340 N 
ATOM      7  N   UNL     1      -0.303   1.192  23.491  0.00  0.00    -0.238 NA
ATOM     13  C   UNL     1      -0.485   0.033  24.083  0.00  0.00    +0.127 A 
ATOM     15  C   UNL     1       1.671   0.086  23.628  0.00  0.00    +0.073 A 
ATOM     16  C   UNL     1       1.039   1.232  23.205  0.00  0.00    +0.139 A 
ATOM     27  H   UNL     1       0.791  -1.590  24.601  0.00  0.00    +0.167 HD
BRANCH  15  19
ATOM      1 CL   UNL     1       7.083  -0.027  22.828  0.00  0.00    -0.076 Cl
ATOM      2  S   UNL     1       4.228   0.769  23.001  0.00  0.00    -0.075 S 
ATOM     19  C   UNL     1       3.023  -0.315  23.554  0.00  0.00    +0.038 A 
ATOM     23  C   UNL     1       3.547  -1.545  23.888  0.00  0.00    +0.019 A 
ATOM     24  C   UNL     1       4.956  -1.598  23.687  0.00  0.00    +0.028 A 
ATOM     25  C   UNL     1       5.456  -0.406  23.208  0.00  0.00    +0.079 A 
ENDBRANCH  15  19
ENDBRANCH   8  13
BRANCH   5  11
ATOM     11  C   UNL     1      -3.191   0.370  22.808  0.00  0.00    +0.120 C 
BRANCH  11  14
ATOM     14  C   UNL     1      -3.854   1.384  23.701  0.00  0.00    -0.033 A 
ATOM     17  C   UNL     1      -4.875   0.989  24.565  0.00  0.00    +0.008 A 
ATOM     18  C   UNL     1      -3.447   2.717  23.664  0.00  0.00    +0.008 A 
ATOM     20  C   UNL     1      -5.489   1.929  25.393  0.00  0.00    +0.046 A 
ATOM     21  C   UNL     1      -4.060   3.657  24.492  0.00  0.00    +0.046 A 
ATOM     22  C   UNL     1      -5.082   3.264  25.356  0.00  0.00    +0.120 A 
BRANCH  22   4
ATOM      4  O   UNL     1      -5.681   4.180  26.165  0.00  0.00    -0.495 OA
ATOM     26  C   UNL     1      -6.264   5.319  25.535  0.00  0.00    +0.277 C 
ENDBRANCH  22   4
ENDBRANCH  11  14
ENDBRANCH   5  11
TORSDOF 5
ENDMDL
MODEL 6
REMARK VINA RESULT:       0.2      1.640      4.972
REMARK  Name = 75367149
REMARK  6 active torsions:
REMARK  status: ('A' for Active; 'I' for Inactive)
REMARK    1  A    between atoms: O_4  and  C_22
REMARK    2  A    between atoms: O_4  and  C_26
REMARK    3  A    between atoms: N_5  and  C_11
REMARK    4  A    between atoms: C_8  and  C_13
REMARK    5  A    between atoms: C_11  and  C_14
REMARK    6  A    between atoms: C_15  and  C_19
REMARK                            x       y       z     vdW  Elec       q    Type
REMARK                         _______ _______ _______ _____ _____    ______ ____
ROOT
ATOM      3  O   UNL     1      -3.036  -3.598  24.194  0.00  0.00    -0.377 OA
ATOM      5  N   UNL     1      -2.406  -1.028  25.289  0.00  0.00    -0.285 NA
ATOM      8  C   UNL     1      -1.401  -1.811  24.525  0.00  0.00    +0.149 C 
ATOM      9  C   UNL     1      -3.396  -1.931  25.902  0.00  0.00    +0.113 C 
ATOM     10  C   UNL     1      -2.108  -2.746  23.524  0.00  0.00    +0.186 C 
ATOM     12  C   UNL     1      -4.039  -2.823  24.850  0.00  0.00    +0.175 C 
ENDROOT
BRANCH   8  13
ATOM      6  N   UNL     1       0.942  -1.023  24.031  0.00  0.00    -0.340 N 
ATOM      7  N   UNL     1      -0.666  -0.068  22.833  0.00  0.00    -0.238 NA
ATOM     13  C   UNL     1      -0.400  -0.947  23.772  0.00  0.00    +0.127 A 
ATOM     15  C   UNL     1       1.568  -0.134  23.204  0.00  0.00    +0.073 A 
ATOM     16  C   UNL     1       0.556   0.443  22.475  0.00  0.00    +0.139 A 
ATOM     27  H   UNL     1       1.386  -1.630  24.707  0.00  0.00    +0.167 HD
BRANCH  15  19
ATOM      1 CL   UNL     1       6.983  -0.782  23.672  0.00  0.00    -0.076 Cl
ATOM      2  S   UNL     1       4.038  -1.164  23.694  0.00  0.00    -0.075 S 
ATOM     19  C   UNL     1       2.966   0.071  23.185  0.00  0.00    +0.038 A 
ATOM     23  C   UNL     1       3.637   1.206  22.786  0.00  0.00    +0.019 A 
ATOM     24  C   UNL     1       5.049   1.061  22.900  0.00  0.00    +0.028 A 
ATOM     25  C   UNL     1       5.405  -0.181  23.381  0.00  0.00    +0.079 A 
ENDBRANCH  15  19
ENDBRANCH   8  13
BRANCH   5  11
ATOM     11  C   UNL     1      -1.787  -0.209  26.339  0.00  0.00    +0.120 C 
BRANCH  11  14
ATOM     14  C   UNL     1      -1.500   1.189  25.862  0.00  0.00    -0.033 A 
ATOM     17  C   UNL     1      -2.462   1.889  25.134  0.00  0.00    +0.008 A 
ATOM     18  C   UNL     1      -0.273   1.785  26.149  0.00  0.00    +0.008 A 
ATOM     20  C   UNL     1      -2.196   3.185  24.693  0.00  0.00    +0.046 A 
ATOM     21  C   UNL     1      -0.006   3.081  25.709  0.00  0.00    +0.046 A 
ATOM     22  C   UNL     1      -0.968   3.782  24.980  0.00  0.00    +0.120 A 
BRANCH  22   4
ATOM      4  O   UNL     1      -0.709   5.047  24.551  0.00  0.00    -0.495 OA
ATOM     26  C   UNL     1      -1.634   6.064  24.931  0.00  0.00    +0.277 C 
ENDBRANCH  22   4
ENDBRANCH  11  14
ENDBRANCH   5  11
TORSDOF 5
ENDMDL
MODEL 7
REMARK VINA RESULT:       0.3      1.492      2.095
REMARK  Name = 75367149
REMARK  6 active torsions:
REMARK  status: ('A' for Active; 'I' for Inactive)
REMARK    1  A    between atoms: O_4  and  C_22
REMARK    2  A    between atoms: O_4  and  C_26
REMARK    3  A    between atoms: N_5  and  C_11
REMARK    4  A    between atoms: C_8  and  C_13
REMARK    5  A    between atoms: C_11  and  C_14
REMARK    6  A    between atoms: C_15  and  C_19
REMARK                            x       y       z     vdW  Elec       q    Type
REMARK                         _______ _______ _______ _____ _____    ______ ____
ROOT
ATOM      3  O   UNL     1      -2.880   5.336  26.058  0.00  0.00    -0.377 OA
ATOM      5  N   UNL     1      -3.830   2.663  25.670  0.00  0.00    -0.285 NA
ATOM      8  C   UNL     1      -3.080   3.379  24.606  0.00  0.00    +0.149 C 
ATOM      9  C   UNL     1      -4.512   3.627  26.549  0.00  0.00    +0.113 C 
ATOM     10  C   UNL     1      -2.145   4.431  25.235  0.00  0.00    +0.186 C 
ATOM     12  C   UNL     1      -3.523   4.633  27.120  0.00  0.00    +0.175 C 
ENDROOT
BRANCH   8  13
ATOM      6  N   UNL     1      -0.992   2.077  24.061  0.00  0.00    -0.340 N 
ATOM      7  N   UNL     1      -2.626   1.941  22.564  0.00  0.00    -0.238 NA
ATOM     13  C   UNL     1      -2.259   2.460  23.714  0.00  0.00    +0.127 A 
ATOM     15  C   UNL     1      -0.524   1.264  23.069  0.00  0.00    +0.073 A 
ATOM     16  C   UNL     1      -1.549   1.195  22.156  0.00  0.00    +0.139 A 
ATOM     27  H   UNL     1      -0.497   2.344  24.902  0.00  0.00    +0.167 HD
BRANCH  15  19
ATOM      1 CL   UNL     1       4.887   0.449  23.160  0.00  0.00    -0.076 Cl
ATOM      2  S   UNL     1       2.169   1.643  23.139  0.00  0.00    -0.075 S 
ATOM     19  C   UNL     1       0.759   0.673  23.077  0.00  0.00    +0.038 A 
ATOM     23  C   UNL     1       1.058  -0.672  23.040  0.00  0.00    +0.019 A 
ATOM     24  C   UNL     1       2.463  -0.908  23.062  0.00  0.00    +0.028 A 
ATOM     25  C   UNL     1       3.184   0.264  23.117  0.00  0.00    +0.079 A 
ENDBRANCH  15  19
ENDBRANCH   8  13
BRANCH   5  11
ATOM     11  C   UNL     1      -4.821   1.732  25.116  0.00  0.00    +0.120 C 
BRANCH  11  14
ATOM     14  C   UNL     1      -4.256   0.347  24.947  0.00  0.00    -0.033 A 
ATOM     17  C   UNL     1      -3.216  -0.087  25.769  0.00  0.00    +0.008 A 
ATOM     18  C   UNL     1      -4.773  -0.502  23.969  0.00  0.00    +0.008 A 
ATOM     20  C   UNL     1      -2.693  -1.371  25.612  0.00  0.00    +0.046 A 
ATOM     21  C   UNL     1      -4.251  -1.785  23.812  0.00  0.00    +0.046 A 
ATOM     22  C   UNL     1      -3.211  -2.221  24.633  0.00  0.00    +0.120 A 
BRANCH  22   4
ATOM      4  O   UNL     1      -2.701  -3.474  24.482  0.00  0.00    -0.495 OA
ATOM     26  C   UNL     1      -1.565  -3.614  23.631  0.00  0.00    +0.277 C 
ENDBRANCH  22   4
ENDBRANCH  11  14
ENDBRANCH   5  11
TORSDOF 5
ENDMDL
MODEL 8
REMARK VINA RESULT:       1.2      3.781      6.673
REMARK  Name = 75367149
REMARK  6 active torsions:
REMARK  status: ('A' for Active; 'I' for Inactive)
REMARK    1  A    between atoms: O_4  and  C_22
REMARK    2  A    between atoms: O_4  and  C_26
REMARK    3  A    between atoms: N_5  and  C_11
REMARK    4  A    between atoms: C_8  and  C_13
REMARK    5  A    between atoms: C_11  and  C_14
REMARK    6  A    between atoms: C_15  and  C_19
REMARK                            x       y       z     vdW  Elec       q    Type
REMARK                         _______ _______ _______ _____ _____    ______ ____
ROOT
ATOM      3  O   UNL     1       4.324  -0.948  23.138  0.00  0.00    -0.377 OA
ATOM      5  N   UNL     1       2.249   0.990  23.516  0.00  0.00    -0.285 NA
ATOM      8  C   UNL     1       1.936  -0.447  23.302  0.00  0.00    +0.149 C 
ATOM      9  C   UNL     1       3.546   1.326  22.904  0.00  0.00    +0.113 C 
ATOM     10  C   UNL     1       3.109  -1.321  23.787  0.00  0.00    +0.186 C 
ATOM     12  C   UNL     1       4.645   0.412  23.429  0.00  0.00    +0.175 C 
ENDROOT
BRANCH   8  13
ATOM      6  N   UNL     1      -0.546  -0.321  23.717  0.00  0.00    -0.340 N 
ATOM      7  N   UNL     1       0.548  -1.853  24.895  0.00  0.00    -0.238 NA
ATOM     13  C   UNL     1       0.660  -0.903  23.994  0.00  0.00    +0.127 A 
ATOM     15  C   UNL     1      -1.487  -0.941  24.490  0.00  0.00    +0.073 A 
ATOM     16  C   UNL     1      -0.788  -1.881  25.209  0.00  0.00    +0.139 A 
ATOM     27  H   UNL     1      -0.711   0.426  23.055  0.00  0.00    +0.167 HD
BRANCH  15  19
ATOM      1 CL   UNL     1      -6.253   1.715  24.916  0.00  0.00    -0.076 Cl
ATOM      2  S   UNL     1      -3.380   0.962  24.927  0.00  0.00    -0.075 S 
ATOM     19  C   UNL     1      -2.859  -0.606  24.478  0.00  0.00    +0.038 A 
ATOM     23  C   UNL     1      -3.913  -1.422  24.130  0.00  0.00    +0.019 A 
ATOM     24  C   UNL     1      -5.166  -0.751  24.234  0.00  0.00    +0.028 A 
ATOM     25  C   UNL     1      -5.021   0.553  24.657  0.00  0.00    +0.079 A 
ENDBRANCH  15  19
ENDBRANCH   8  13
BRANCH   5  11
ATOM     11  C   UNL     1       1.213   1.870  22.962  0.00  0.00    +0.120 C 
BRANCH  11  14
ATOM     14  C   UNL     1       0.315   2.423  24.035  0.00  0.00    -0.033 A 
ATOM     17  C   UNL     1      -0.685   3.338  23.704  0.00  0.00    +0.008 A 
ATOM     18  C   UNL     1       0.481   2.021  25.360  0.00  0.00    +0.008 A 
ATOM     20  C   UNL     1      -1.518   3.851  24.699  0.00  0.00    +0.046 A 
ATOM     21  C   UNL     1      -0.351   2.533  26.354  0.00  0.00    +0.046 A 
ATOM     22  C   UNL     1      -1.351   3.448  26.025  0.00  0.00    +0.120 A 
BRANCH  22   4
ATOM      4  O   UNL     1      -2.165   3.947  26.995  0.00  0.00    -0.495 OA
ATOM     26  C   UNL     1      -3.500   4.275  26.616  0.00  0.00    +0.277 C 
ENDBRANCH  22   4
ENDBRANCH  11  14
ENDBRANCH   5  11
TORSDOF 5
ENDMDL
MODEL 9
REMARK VINA RESULT:       1.4      3.860      6.148
REMARK  Name = 75367149
REMARK  6 active torsions:
REMARK  status: ('A' for Active; 'I' for Inactive)
REMARK    1  A    between atoms: O_4  and  C_22
REMARK    2  A    between atoms: O_4  and  C_26
REMARK    3  A    between atoms: N_5  and  C_11
REMARK    4  A    between atoms: C_8  and  C_13
REMARK    5  A    between atoms: C_11  and  C_14
REMARK    6  A    between atoms: C_15  and  C_19
REMARK                            x       y       z     vdW  Elec       q    Type
REMARK                         _______ _______ _______ _____ _____    ______ ____
ROOT
ATOM      3  O   UNL     1       2.919   1.029  22.656  0.00  0.00    -0.377 OA
ATOM      5  N   UNL     1       0.681  -0.112  24.032  0.00  0.00    -0.285 NA
ATOM      8  C   UNL     1       1.156   1.262  24.334  0.00  0.00    +0.149 C 
ATOM      9  C   UNL     1       1.787  -0.929  23.503  0.00  0.00    +0.113 C 
ATOM     10  C   UNL     1       1.851   1.866  23.098  0.00  0.00    +0.186 C 
ATOM     12  C   UNL     1       2.424  -0.259  22.293  0.00  0.00    +0.175 C 
ENDROOT
BRANCH   8  13
ATOM      6  N   UNL     1      -1.270   1.865  24.657  0.00  0.00    -0.340 N 
ATOM      7  N   UNL     1       0.196   3.392  25.328  0.00  0.00    -0.238 NA
ATOM     13  C   UNL     1       0.049   2.204  24.787  0.00  0.00    +0.127 A 
ATOM     15  C   UNL     1      -2.009   2.904  25.147  0.00  0.00    +0.073 A 
ATOM     16  C   UNL     1      -1.083   3.835  25.554  0.00  0.00    +0.139 A 
ATOM     27  H   UNL     1      -1.629   1.001  24.274  0.00  0.00    +0.167 HD
BRANCH  15  19
ATOM      1 CL   UNL     1      -7.296   1.749  24.329  0.00  0.00    -0.076 Cl
ATOM      2  S   UNL     1      -4.326   1.763  24.296  0.00  0.00    -0.075 S 
ATOM     19  C   UNL     1      -3.421   2.918  25.177  0.00  0.00    +0.038 A 
ATOM     23  C   UNL     1      -4.232   3.794  25.867  0.00  0.00    +0.019 A 
ATOM     24  C   UNL     1      -5.614   3.512  25.668  0.00  0.00    +0.028 A 
ATOM     25  C   UNL     1      -5.808   2.431  24.836  0.00  0.00    +0.079 A 
ENDBRANCH  15  19
ENDBRANCH   8  13
BRANCH   5  11
ATOM     11  C   UNL     1       0.117  -0.775  25.214  0.00  0.00    +0.120 C 
BRANCH  11  14
ATOM     14  C   UNL     1      -1.232  -1.379  24.928  0.00  0.00    -0.033 A 
ATOM     17  C   UNL     1      -1.344  -2.443  24.034  0.00  0.00    +0.008 A 
ATOM     18  C   UNL     1      -2.369  -0.873  25.557  0.00  0.00    +0.008 A 
ATOM     20  C   UNL     1      -2.594  -3.002  23.769  0.00  0.00    +0.046 A 
ATOM     21  C   UNL     1      -3.619  -1.432  25.294  0.00  0.00    +0.046 A 
ATOM     22  C   UNL     1      -3.733  -2.497  24.399  0.00  0.00    +0.120 A 
BRANCH  22   4
ATOM      4  O   UNL     1      -4.952  -3.043  24.142  0.00  0.00    -0.495 OA
ATOM     26  C   UNL     1      -5.170  -3.554  22.828  0.00  0.00    +0.277 C 
ENDBRANCH  22   4
ENDBRANCH  11  14
ENDBRANCH   5  11
TORSDOF 5
ENDMDL
MODEL 10
REMARK VINA RESULT:       2.5      1.836      4.900
REMARK  Name = 75367149
REMARK  6 active torsions:
REMARK  status: ('A' for Active; 'I' for Inactive)
REMARK    1  A    between atoms: O_4  and  C_22
REMARK    2  A    between atoms: O_4  and  C_26
REMARK    3  A    between atoms: N_5  and  C_11
REMARK    4  A    between atoms: C_8  and  C_13
REMARK    5  A    between atoms: C_11  and  C_14
REMARK    6  A    between atoms: C_15  and  C_19
REMARK                            x       y       z     vdW  Elec       q    Type
REMARK                         _______ _______ _______ _____ _____    ______ ____
ROOT
ATOM      3  O   UNL     1      -2.701  -3.600  23.782  0.00  0.00    -0.377 OA
ATOM      5  N   UNL     1      -3.361  -0.900  24.471  0.00  0.00    -0.285 NA
ATOM      8  C   UNL     1      -1.999  -1.447  24.704  0.00  0.00    +0.149 C 
ATOM      9  C   UNL     1      -4.355  -1.986  24.481  0.00  0.00    +0.113 C 
ATOM     10  C   UNL     1      -1.706  -2.580  23.701  0.00  0.00    +0.186 C 
ATOM     12  C   UNL     1      -3.987  -3.066  23.472  0.00  0.00    +0.175 C 
ENDROOT
BRANCH   8  13
ATOM      6  N   UNL     1       0.297  -0.683  24.000  0.00  0.00    -0.340 N 
ATOM      7  N   UNL     1      -0.936   0.831  25.057  0.00  0.00    -0.238 NA
ATOM     13  C   UNL     1      -0.897  -0.402  24.605  0.00  0.00    +0.127 A 
ATOM     15  C   UNL     1       1.067   0.443  24.072  0.00  0.00    +0.073 A 
ATOM     16  C   UNL     1       0.285   1.364  24.728  0.00  0.00    +0.139 A 
ATOM     27  H   UNL     1       0.558  -1.562  23.573  0.00  0.00    +0.167 HD
BRANCH  15  19
ATOM      1 CL   UNL     1       6.281  -0.572  22.753  0.00  0.00    -0.076 Cl
ATOM      2  S   UNL     1       3.516  -0.715  23.827  0.00  0.00    -0.075 S 
ATOM     19  C   UNL     1       2.377   0.534  23.551  0.00  0.00    +0.038 A 
ATOM     23  C   UNL     1       2.906   1.559  22.798  0.00  0.00    +0.019 A 
ATOM     24  C   UNL     1       4.264   1.317  22.443  0.00  0.00    +0.028 A 
ATOM     25  C   UNL     1       4.722   0.115  22.937  0.00  0.00    +0.079 A 
ENDBRANCH  15  19
ENDBRANCH   8  13
BRANCH   5  11
ATOM     11  C   UNL     1      -3.733   0.102  25.477  0.00  0.00    +0.120 C 
BRANCH  11  14
ATOM     14  C   UNL     1      -3.849   1.479  24.881  0.00  0.00    -0.033 A 
ATOM     17  C   UNL     1      -3.450   1.705  23.564  0.00  0.00    +0.008 A 
ATOM     18  C   UNL     1      -4.356   2.529  25.646  0.00  0.00    +0.008 A 
ATOM     20  C   UNL     1      -3.558   2.982  23.012  0.00  0.00    +0.046 A 
ATOM     21  C   UNL     1      -4.464   3.805  25.095  0.00  0.00    +0.046 A 
ATOM     22  C   UNL     1      -4.065   4.032  23.778  0.00  0.00    +0.120 A 
BRANCH  22   4
ATOM      4  O   UNL     1      -4.171   5.278  23.238  0.00  0.00    -0.495 OA
ATOM     26  C   UNL     1      -3.178   6.232  23.608  0.00  0.00    +0.277 C 
ENDBRANCH  22   4
ENDBRANCH  11  14
ENDBRANCH   5  11
TORSDOF 5
ENDMDL
