MODEL 1
REMARK VINA RESULT:      14.8      0.000      0.000
REMARK  Name = 7687218
REMARK  5 active torsions:
REMARK  status: ('A' for Active; 'I' for Inactive)
REMARK    1  A    between atoms: O_4  and  C_24
REMARK    2  A    between atoms: O_4  and  C_34
REMARK    3  A    between atoms: N_7  and  C_22
REMARK    4  A    between atoms: C_15  and  C_20
REMARK    5  A    between atoms: C_21  and  C_23
REMARK                            x       y       z     vdW  Elec       q    Type
REMARK                         _______ _______ _______ _____ _____    ______ ____
ROOT
ATOM      2  O   UNL     1      -3.591   4.047  28.375  0.00  0.00    -0.268 OA
ATOM      3  O   UNL     1      -5.423   1.187  24.622  0.00  0.00    -0.252 OA
ATOM      5  N   UNL     1      -3.809   2.528  23.653  0.00  0.00    -0.284 N 
ATOM      6  N   UNL     1      -2.728   4.034  26.197  0.00  0.00    -0.311 N 
ATOM      7  N   UNL     1      -3.299   0.313  24.280  0.00  0.00    -0.266 N 
ATOM      8  C   UNL     1      -4.091   4.929  24.218  0.00  0.00    +0.027 C 
ATOM      9  C   UNL     1      -1.838   4.010  23.846  0.00  0.00    +0.054 C 
ATOM     10  C   UNL     1      -2.729   5.232  23.613  0.00  0.00    +0.018 C 
ATOM     11  C   UNL     1      -4.715   3.675  23.574  0.00  0.00    +0.114 C 
ATOM     12  C   UNL     1      -3.910   4.773  25.728  0.00  0.00    +0.130 C 
ATOM     13  C   UNL     1      -2.461   2.796  23.130  0.00  0.00    +0.119 C 
ATOM     14  C   UNL     1      -1.659   3.702  25.337  0.00  0.00    +0.034 A 
ATOM     15  C   UNL     1      -0.542   3.102  25.829  0.00  0.00    -0.005 A 
ATOM     16  C   UNL     1      -2.697   3.766  27.577  0.00  0.00    +0.252 A 
ATOM     17  C   UNL     1      -4.267   1.315  24.208  0.00  0.00    +0.307 C 
ATOM     18  C   UNL     1      -0.486   2.813  27.253  0.00  0.00    +0.015 A 
ATOM     19  C   UNL     1      -1.480   3.104  28.091  0.00  0.00    +0.071 A 
ATOM     35  H   UNL     1      -2.327   0.590  24.350  0.00  0.00    +0.156 HD
ENDROOT
BRANCH   7  22
ATOM     22  C   UNL     1      -3.511  -1.086  24.319  0.00  0.00    +0.077 A 
ATOM     24  C   UNL     1      -2.674  -1.906  25.072  0.00  0.00    +0.141 A 
ATOM     25  C   UNL     1      -4.569  -1.635  23.599  0.00  0.00    +0.027 A 
ATOM     28  C   UNL     1      -2.895  -3.284  25.102  0.00  0.00    +0.047 A 
ATOM     29  C   UNL     1      -4.791  -3.012  23.629  0.00  0.00    +0.002 A 
ATOM     30  C   UNL     1      -3.954  -3.836  24.381  0.00  0.00    +0.004 A 
BRANCH  24   4
ATOM      4  O   UNL     1      -1.634  -1.387  25.783  0.00  0.00    -0.493 OA
ATOM     34  C   UNL     1      -0.319  -1.745  25.363  0.00  0.00    +0.277 C 
ENDBRANCH  24   4
ENDBRANCH   7  22
BRANCH  15  20
ATOM     20  C   UNL     1       0.576   2.708  24.989  0.00  0.00    +0.010 C 
ATOM     21  C   UNL     1       0.628   1.526  24.378  0.00  0.00    +0.008 C 
BRANCH  21  23
ATOM      1 CL   UNL     1       5.143  -0.294  20.929  0.00  0.00    -0.084 Cl
ATOM     23  C   UNL     1       1.743   1.076  23.526  0.00  0.00    -0.025 A 
ATOM     26  C   UNL     1       2.999   1.638  23.699  0.00  0.00    +0.009 A 
ATOM     27  C   UNL     1       1.517   0.100  22.569  0.00  0.00    +0.009 A 
ATOM     31  C   UNL     1       4.054   1.213  22.892  0.00  0.00    +0.020 A 
ATOM     32  C   UNL     1       2.573  -0.326  21.763  0.00  0.00    +0.020 A 
ATOM     33  C   UNL     1       3.841   0.231  21.924  0.00  0.00    +0.041 A 
ENDBRANCH  21  23
ENDBRANCH  15  20
TORSDOF 4
ENDMDL
