MODEL 1
REMARK VINA RESULT:       2.2      0.000      0.000
REMARK  Name = 26742540
REMARK  9 active torsions:
REMARK  status: ('A' for Active; 'I' for Inactive)
REMARK    1  A    between atoms: O_3  and  C_22
REMARK    2  A    between atoms: O_3  and  C_28
REMARK    3  A    between atoms: O_4  and  C_25
REMARK    4  A    between atoms: O_4  and  C_29
REMARK    5  A    between atoms: N_6  and  C_17
REMARK    6  A    between atoms: N_7  and  C_21
REMARK    7  A    between atoms: C_17  and  C_19
REMARK    8  A    between atoms: C_19  and  C_20
REMARK    9  A    between atoms: C_21  and  C_24
REMARK                            x       y       z     vdW  Elec       q    Type
REMARK                         _______ _______ _______ _____ _____    ______ ____
ROOT
ATOM      1  O   UNL     1      -3.460  -1.813  23.382  0.00  0.00    -0.276 OA
ATOM      2  O   UNL     1       4.316  -0.119  21.707  0.00  0.00    -0.253 OA
ATOM      5  N   UNL     1       2.324  -0.140  22.905  0.00  0.00    -0.285 N 
ATOM      6  N   UNL     1      -2.382  -0.876  25.211  0.00  0.00    -0.301 N 
ATOM      7  N   UNL     1       4.324   0.705  23.847  0.00  0.00    -0.300 N 
ATOM      8  C   UNL     1       0.187   0.660  23.928  0.00  0.00    +0.011 C 
ATOM      9  C   UNL     1      -0.618  -0.035  22.807  0.00  0.00    +0.004 C 
ATOM     10  C   UNL     1       0.256  -0.073  21.541  0.00  0.00    +0.023 C 
ATOM     11  C   UNL     1       1.563   0.000  24.158  0.00  0.00    +0.113 C 
ATOM     12  C   UNL     1      -0.591   0.837  25.244  0.00  0.00    +0.024 C 
ATOM     13  C   UNL     1      -1.117  -1.445  23.168  0.00  0.00    +0.100 C 
ATOM     14  C   UNL     1       1.598  -0.752  21.790  0.00  0.00    +0.109 C 
ATOM     15  C   UNL     1      -1.141  -0.446  25.858  0.00  0.00    +0.108 C 
ATOM     16  C   UNL     1      -2.431  -1.402  23.924  0.00  0.00    +0.216 C 
ATOM     18  C   UNL     1       3.697   0.133  22.747  0.00  0.00    +0.302 C 
ATOM     30  H   UNL     1       3.819   0.952  24.685  0.00  0.00    +0.150 HD
ENDROOT
BRANCH   7  21
ATOM     21  C   UNL     1       5.732   1.037  23.845  0.00  0.00    +0.102 C 
ATOM     24  C   UNL     1       6.595  -0.204  23.765  0.00  0.00    +0.024 C 
ENDBRANCH   7  21
BRANCH   6  17
ATOM     17  C   UNL     1      -3.608  -0.723  25.985  0.00  0.00    +0.112 C 
BRANCH  17  19
ATOM     19  C   UNL     1      -4.757  -0.156  25.155  0.00  0.00    +0.058 C 
BRANCH  19  20
ATOM     20  C   UNL     1      -4.927   1.333  25.326  0.00  0.00    -0.001 A 
ATOM     22  C   UNL     1      -4.040   2.226  24.725  0.00  0.00    +0.165 A 
ATOM     23  C   UNL     1      -5.986   1.813  26.096  0.00  0.00    +0.007 A 
ATOM     25  C   UNL     1      -4.214   3.601  24.893  0.00  0.00    +0.162 A 
ATOM     26  C   UNL     1      -6.159   3.187  26.264  0.00  0.00    +0.004 A 
ATOM     27  C   UNL     1      -5.273   4.081  25.663  0.00  0.00    +0.049 A 
BRANCH  22   3
ATOM      3  O   UNL     1      -3.003   1.761  23.971  0.00  0.00    -0.491 OA
ATOM     28  C   UNL     1      -3.046   2.035  22.573  0.00  0.00    +0.277 C 
ENDBRANCH  22   3
BRANCH  25   4
ATOM      4  O   UNL     1      -3.355   4.484  24.312  0.00  0.00    -0.491 OA
ATOM     29  C   UNL     1      -2.143   4.765  25.010  0.00  0.00    +0.277 C 
ENDBRANCH  25   4
ENDBRANCH  19  20
ENDBRANCH  17  19
ENDBRANCH   6  17
TORSDOF 6
ENDMDL
MODEL 2
REMARK VINA RESULT:       3.0      1.447      2.009
REMARK  Name = 26742540
REMARK  9 active torsions:
REMARK  status: ('A' for Active; 'I' for Inactive)
REMARK    1  A    between atoms: O_3  and  C_22
REMARK    2  A    between atoms: O_3  and  C_28
REMARK    3  A    between atoms: O_4  and  C_25
REMARK    4  A    between atoms: O_4  and  C_29
REMARK    5  A    between atoms: N_6  and  C_17
REMARK    6  A    between atoms: N_7  and  C_21
REMARK    7  A    between atoms: C_17  and  C_19
REMARK    8  A    between atoms: C_19  and  C_20
REMARK    9  A    between atoms: C_21  and  C_24
REMARK                            x       y       z     vdW  Elec       q    Type
REMARK                         _______ _______ _______ _____ _____    ______ ____
ROOT
ATOM      1  O   UNL     1      -3.505   1.994  22.794  0.00  0.00    -0.276 OA
ATOM      2  O   UNL     1       4.513   0.639  22.832  0.00  0.00    -0.253 OA
ATOM      5  N   UNL     1       2.262   0.267  23.275  0.00  0.00    -0.285 N 
ATOM      6  N   UNL     1      -3.005  -0.117  23.617  0.00  0.00    -0.301 N 
ATOM      7  N   UNL     1       3.906  -1.362  23.773  0.00  0.00    -0.300 N 
ATOM      8  C   UNL     1       0.110   0.099  24.539  0.00  0.00    +0.011 C 
ATOM      9  C   UNL     1      -0.352   1.448  23.945  0.00  0.00    +0.004 C 
ATOM     10  C   UNL     1       0.897   2.300  23.657  0.00  0.00    +0.023 C 
ATOM     11  C   UNL     1       1.141  -0.616  23.640  0.00  0.00    +0.113 C 
ATOM     12  C   UNL     1      -1.041  -0.836  24.948  0.00  0.00    +0.024 C 
ATOM     13  C   UNL     1      -1.225   1.318  22.685  0.00  0.00    +0.100 C 
ATOM     14  C   UNL     1       1.886   1.580  22.747  0.00  0.00    +0.109 C 
ATOM     15  C   UNL     1      -2.028  -1.185  23.838  0.00  0.00    +0.108 C 
ATOM     16  C   UNL     1      -2.686   1.103  23.031  0.00  0.00    +0.216 C 
ATOM     18  C   UNL     1       3.622  -0.100  23.266  0.00  0.00    +0.302 C 
ATOM     30  H   UNL     1       3.191  -1.955  24.167  0.00  0.00    +0.150 HD
ENDROOT
BRANCH   7  21
ATOM     21  C   UNL     1       5.253  -1.887  23.824  0.00  0.00    +0.102 C 
ATOM     24  C   UNL     1       6.247  -0.824  24.241  0.00  0.00    +0.024 C 
ENDBRANCH   7  21
BRANCH   6  17
ATOM     17  C   UNL     1      -4.370  -0.383  24.055  0.00  0.00    +0.112 C 
BRANCH  17  19
ATOM     19  C   UNL     1      -4.645   0.137  25.463  0.00  0.00    +0.058 C 
BRANCH  19  20
ATOM     20  C   UNL     1      -4.759   1.640  25.523  0.00  0.00    -0.001 A 
ATOM     22  C   UNL     1      -3.644   2.430  25.802  0.00  0.00    +0.165 A 
ATOM     23  C   UNL     1      -5.998   2.239  25.295  0.00  0.00    +0.007 A 
ATOM     25  C   UNL     1      -3.768   3.819  25.852  0.00  0.00    +0.162 A 
ATOM     26  C   UNL     1      -6.122   3.627  25.345  0.00  0.00    +0.004 A 
ATOM     27  C   UNL     1      -5.007   4.418  25.624  0.00  0.00    +0.049 A 
BRANCH  22   3
ATOM      3  O   UNL     1      -2.430   1.849  26.025  0.00  0.00    -0.491 OA
ATOM     28  C   UNL     1      -1.393   2.690  26.524  0.00  0.00    +0.277 C 
ENDBRANCH  22   3
BRANCH  25   4
ATOM      4  O   UNL     1      -2.686   4.603  26.123  0.00  0.00    -0.491 OA
ATOM     29  C   UNL     1      -2.043   5.225  25.013  0.00  0.00    +0.277 C 
ENDBRANCH  25   4
ENDBRANCH  19  20
ENDBRANCH  17  19
ENDBRANCH   6  17
TORSDOF 6
ENDMDL
MODEL 3
REMARK VINA RESULT:       3.7      1.179      1.993
REMARK  Name = 26742540
REMARK  9 active torsions:
REMARK  status: ('A' for Active; 'I' for Inactive)
REMARK    1  A    between atoms: O_3  and  C_22
REMARK    2  A    between atoms: O_3  and  C_28
REMARK    3  A    between atoms: O_4  and  C_25
REMARK    4  A    between atoms: O_4  and  C_29
REMARK    5  A    between atoms: N_6  and  C_17
REMARK    6  A    between atoms: N_7  and  C_21
REMARK    7  A    between atoms: C_17  and  C_19
REMARK    8  A    between atoms: C_19  and  C_20
REMARK    9  A    between atoms: C_21  and  C_24
REMARK                            x       y       z     vdW  Elec       q    Type
REMARK                         _______ _______ _______ _____ _____    ______ ____
ROOT
ATOM      1  O   UNL     1      -3.497  -1.863  23.446  0.00  0.00    -0.276 OA
ATOM      2  O   UNL     1       4.195   0.005  21.581  0.00  0.00    -0.253 OA
ATOM      5  N   UNL     1       2.252  -0.109  22.851  0.00  0.00    -0.285 N 
ATOM      6  N   UNL     1      -2.355  -1.031  25.287  0.00  0.00    -0.301 N 
ATOM      7  N   UNL     1       4.281   0.694  23.766  0.00  0.00    -0.300 N 
ATOM      8  C   UNL     1       0.150   0.605  24.004  0.00  0.00    +0.011 C 
ATOM      9  C   UNL     1      -0.693  -0.026  22.874  0.00  0.00    +0.004 C 
ATOM     10  C   UNL     1       0.131   0.023  21.575  0.00  0.00    +0.023 C 
ATOM     11  C   UNL     1       1.539  -0.054  24.139  0.00  0.00    +0.113 C 
ATOM     12  C   UNL     1      -0.576   0.693  25.357  0.00  0.00    +0.024 C 
ATOM     13  C   UNL     1      -1.168  -1.460  23.165  0.00  0.00    +0.100 C 
ATOM     14  C   UNL     1       1.487  -0.658  21.729  0.00  0.00    +0.109 C 
ATOM     15  C   UNL     1      -1.093  -0.631  25.911  0.00  0.00    +0.108 C 
ATOM     16  C   UNL     1      -2.451  -1.476  23.973  0.00  0.00    +0.216 C 
ATOM     18  C   UNL     1       3.615   0.186  22.657  0.00  0.00    +0.302 C 
ATOM     30  H   UNL     1       3.807   0.884  24.637  0.00  0.00    +0.150 HD
ENDROOT
BRANCH   7  21
ATOM     21  C   UNL     1       5.686   1.039  23.731  0.00  0.00    +0.102 C 
ATOM     24  C   UNL     1       6.552  -0.186  23.526  0.00  0.00    +0.024 C 
ENDBRANCH   7  21
BRANCH   6  17
ATOM     17  C   UNL     1      -3.551  -0.938  26.116  0.00  0.00    +0.112 C 
BRANCH  17  19
ATOM     19  C   UNL     1      -4.716  -0.271  25.390  0.00  0.00    +0.058 C 
BRANCH  19  20
ATOM     20  C   UNL     1      -4.536   1.219  25.234  0.00  0.00    -0.001 A 
ATOM     22  C   UNL     1      -5.542   2.104  25.623  0.00  0.00    +0.165 A 
ATOM     23  C   UNL     1      -3.347   1.708  24.695  0.00  0.00    +0.007 A 
ATOM     25  C   UNL     1      -5.357   3.479  25.472  0.00  0.00    +0.162 A 
ATOM     26  C   UNL     1      -3.162   3.082  24.544  0.00  0.00    +0.004 A 
ATOM     27  C   UNL     1      -4.168   3.968  24.932  0.00  0.00    +0.049 A 
BRANCH  22   3
ATOM      3  O   UNL     1      -6.706   1.630  26.151  0.00  0.00    -0.491 OA
ATOM     28  C   UNL     1      -6.735   1.410  27.559  0.00  0.00    +0.277 C 
ENDBRANCH  22   3
BRANCH  25   4
ATOM      4  O   UNL     1      -6.331   4.355  25.848  0.00  0.00    -0.491 OA
ATOM     29  C   UNL     1      -6.368   5.610  25.172  0.00  0.00    +0.277 C 
ENDBRANCH  25   4
ENDBRANCH  19  20
ENDBRANCH  17  19
ENDBRANCH   6  17
TORSDOF 6
ENDMDL
MODEL 4
REMARK VINA RESULT:       4.6      1.621      2.433
REMARK  Name = 26742540
REMARK  9 active torsions:
REMARK  status: ('A' for Active; 'I' for Inactive)
REMARK    1  A    between atoms: O_3  and  C_22
REMARK    2  A    between atoms: O_3  and  C_28
REMARK    3  A    between atoms: O_4  and  C_25
REMARK    4  A    between atoms: O_4  and  C_29
REMARK    5  A    between atoms: N_6  and  C_17
REMARK    6  A    between atoms: N_7  and  C_21
REMARK    7  A    between atoms: C_17  and  C_19
REMARK    8  A    between atoms: C_19  and  C_20
REMARK    9  A    between atoms: C_21  and  C_24
REMARK                            x       y       z     vdW  Elec       q    Type
REMARK                         _______ _______ _______ _____ _____    ______ ____
ROOT
ATOM      1  O   UNL     1      -4.306  -1.432  26.570  0.00  0.00    -0.276 OA
ATOM      2  O   UNL     1       3.376  -1.496  23.901  0.00  0.00    -0.253 OA
ATOM      5  N   UNL     1       1.139  -0.875  24.016  0.00  0.00    -0.285 N 
ATOM      6  N   UNL     1      -3.917   0.289  25.063  0.00  0.00    -0.301 N 
ATOM      7  N   UNL     1       2.672   0.276  22.627  0.00  0.00    -0.300 N 
ATOM      8  C   UNL     1      -1.280  -0.673  23.412  0.00  0.00    +0.011 C 
ATOM      9  C   UNL     1      -1.642  -1.731  24.477  0.00  0.00    +0.004 C 
ATOM     10  C   UNL     1      -0.441  -2.681  24.640  0.00  0.00    +0.023 C 
ATOM     11  C   UNL     1       0.037   0.062  23.738  0.00  0.00    +0.113 C 
ATOM     12  C   UNL     1      -2.419   0.309  23.087  0.00  0.00    +0.024 C 
ATOM     13  C   UNL     1      -2.059  -1.143  25.836  0.00  0.00    +0.100 C 
ATOM     14  C   UNL     1       0.841  -1.931  24.987  0.00  0.00    +0.109 C 
ATOM     15  C   UNL     1      -2.973   1.086  24.277  0.00  0.00    +0.108 C 
ATOM     16  C   UNL     1      -3.532  -0.780  25.865  0.00  0.00    +0.216 C 
ATOM     18  C   UNL     1       2.458  -0.752  23.538  0.00  0.00    +0.302 C 
ATOM     30  H   UNL     1       1.921   0.862  22.294  0.00  0.00    +0.150 HD
ENDROOT
BRANCH   7  21
ATOM     21  C   UNL     1       3.972   0.538  22.051  0.00  0.00    +0.102 C 
ATOM     24  C   UNL     1       5.050   0.585  23.114  0.00  0.00    +0.024 C 
ENDBRANCH   7  21
BRANCH   6  17
ATOM     17  C   UNL     1      -5.323   0.661  24.966  0.00  0.00    +0.112 C 
BRANCH  17  19
ATOM     19  C   UNL     1      -5.517   2.118  24.555  0.00  0.00    +0.058 C 
BRANCH  19  20
ATOM     20  C   UNL     1      -4.519   3.048  25.198  0.00  0.00    -0.001 A 
ATOM     22  C   UNL     1      -3.455   3.572  24.464  0.00  0.00    +0.165 A 
ATOM     23  C   UNL     1      -4.670   3.383  26.544  0.00  0.00    +0.007 A 
ATOM     25  C   UNL     1      -2.542   4.432  25.076  0.00  0.00    +0.162 A 
ATOM     26  C   UNL     1      -3.757   4.243  27.155  0.00  0.00    +0.004 A 
ATOM     27  C   UNL     1      -2.693   4.768  26.421  0.00  0.00    +0.049 A 
BRANCH  22   3
ATOM      3  O   UNL     1      -3.303   3.247  23.148  0.00  0.00    -0.491 OA
ATOM     28  C   UNL     1      -4.119   3.946  22.212  0.00  0.00    +0.277 C 
ENDBRANCH  22   3
BRANCH  25   4
ATOM      4  O   UNL     1      -1.498   4.951  24.370  0.00  0.00    -0.491 OA
ATOM     29  C   UNL     1      -0.279   4.211  24.379  0.00  0.00    +0.277 C 
ENDBRANCH  25   4
ENDBRANCH  19  20
ENDBRANCH  17  19
ENDBRANCH   6  17
TORSDOF 6
ENDMDL
MODEL 5
REMARK VINA RESULT:       5.2      1.658      3.142
REMARK  Name = 26742540
REMARK  9 active torsions:
REMARK  status: ('A' for Active; 'I' for Inactive)
REMARK    1  A    between atoms: O_3  and  C_22
REMARK    2  A    between atoms: O_3  and  C_28
REMARK    3  A    between atoms: O_4  and  C_25
REMARK    4  A    between atoms: O_4  and  C_29
REMARK    5  A    between atoms: N_6  and  C_17
REMARK    6  A    between atoms: N_7  and  C_21
REMARK    7  A    between atoms: C_17  and  C_19
REMARK    8  A    between atoms: C_19  and  C_20
REMARK    9  A    between atoms: C_21  and  C_24
REMARK                            x       y       z     vdW  Elec       q    Type
REMARK                         _______ _______ _______ _____ _____    ______ ____
ROOT
ATOM      1  O   UNL     1      -2.998   2.104  26.472  0.00  0.00    -0.276 OA
ATOM      2  O   UNL     1       3.534  -1.710  23.484  0.00  0.00    -0.253 OA
ATOM      5  N   UNL     1       2.042   0.031  23.869  0.00  0.00    -0.285 N 
ATOM      6  N   UNL     1      -1.547   3.590  25.436  0.00  0.00    -0.301 N 
ATOM      7  N   UNL     1       4.095   0.387  22.744  0.00  0.00    -0.300 N 
ATOM      8  C   UNL     1       0.242   1.719  23.462  0.00  0.00    +0.011 C 
ATOM      9  C   UNL     1      -0.765   0.842  24.238  0.00  0.00    +0.004 C 
ATOM     10  C   UNL     1      -0.336  -0.629  24.090  0.00  0.00    +0.023 C 
ATOM     11  C   UNL     1       1.701   1.463  23.897  0.00  0.00    +0.113 C 
ATOM     12  C   UNL     1      -0.100   3.219  23.458  0.00  0.00    +0.024 C 
ATOM     13  C   UNL     1      -0.919   1.219  25.721  0.00  0.00    +0.100 C 
ATOM     14  C   UNL     1       1.099  -0.857  24.551  0.00  0.00    +0.109 C 
ATOM     15  C   UNL     1      -0.241   3.862  24.834  0.00  0.00    +0.108 C 
ATOM     16  C   UNL     1      -1.921   2.340  25.918  0.00  0.00    +0.216 C 
ATOM     18  C   UNL     1       3.242  -0.514  23.371  0.00  0.00    +0.302 C 
ATOM     30  H   UNL     1       3.847   1.356  22.611  0.00  0.00    +0.150 HD
ENDROOT
BRANCH   7  21
ATOM     21  C   UNL     1       5.368  -0.015  22.188  0.00  0.00    +0.102 C 
ATOM     24  C   UNL     1       6.406  -0.218  23.271  0.00  0.00    +0.024 C 
ENDBRANCH   7  21
BRANCH   6  17
ATOM     17  C   UNL     1      -2.477   4.710  25.511  0.00  0.00    +0.112 C 
BRANCH  17  19
ATOM     19  C   UNL     1      -3.615   4.594  24.500  0.00  0.00    +0.058 C 
BRANCH  19  20
ATOM     20  C   UNL     1      -4.520   3.417  24.765  0.00  0.00    -0.001 A 
ATOM     22  C   UNL     1      -4.294   2.189  24.143  0.00  0.00    +0.165 A 
ATOM     23  C   UNL     1      -5.591   3.566  25.645  0.00  0.00    +0.007 A 
ATOM     25  C   UNL     1      -5.141   1.110  24.401  0.00  0.00    +0.162 A 
ATOM     26  C   UNL     1      -6.438   2.488  25.903  0.00  0.00    +0.004 A 
ATOM     27  C   UNL     1      -6.213   1.259  25.281  0.00  0.00    +0.049 A 
BRANCH  22   3
ATOM      3  O   UNL     1      -3.247   2.038  23.282  0.00  0.00    -0.491 OA
ATOM     28  C   UNL     1      -3.353   2.683  22.016  0.00  0.00    +0.277 C 
ENDBRANCH  22   3
BRANCH  25   4
ATOM      4  O   UNL     1      -4.932  -0.095  23.800  0.00  0.00    -0.491 OA
ATOM     29  C   UNL     1      -4.077  -1.015  24.475  0.00  0.00    +0.277 C 
ENDBRANCH  25   4
ENDBRANCH  19  20
ENDBRANCH  17  19
ENDBRANCH   6  17
TORSDOF 6
ENDMDL
