MODEL 1
REMARK VINA RESULT:      -1.8      0.000      0.000
REMARK  Name = 25390023
REMARK  8 active torsions:
REMARK  status: ('A' for Active; 'I' for Inactive)
REMARK    1  A    between atoms: N_3  and  C_17
REMARK    2  A    between atoms: N_4  and  C_10
REMARK    3  A    between atoms: N_6  and  C_21
REMARK    4  A    between atoms: C_8  and  C_11
REMARK    5  A    between atoms: C_14  and  C_16
REMARK    6  A    between atoms: C_15  and  C_18
REMARK    7  A    between atoms: C_17  and  C_20
REMARK    8  A    between atoms: C_20  and  C_22
REMARK                            x       y       z     vdW  Elec       q    Type
REMARK                         _______ _______ _______ _____ _____    ______ ____
ROOT
ATOM      8  C   UNL     1      -6.126  -9.721  13.001  0.00  0.00    +0.047 C 
ATOM      9  C   UNL     1      -4.868 -10.612  12.956  0.00  0.00    +0.039 C 
ATOM     10  C   UNL     1      -4.527 -10.781  11.471  0.00  0.00    +0.098 C 
ATOM     12  C   UNL     1      -6.702  -9.906  11.627  0.00  0.00    -0.021 C 
ATOM     13  C   UNL     1      -5.825 -10.481  10.796  0.00  0.00    -0.009 C 
ENDROOT
BRANCH   8  11
ATOM      3  N   UNL     1      -7.958 -10.426  16.094  0.00  0.00    -0.267 N 
ATOM      5  N   UNL     1      -8.949 -10.737  15.240  0.00  0.00    -0.176 NA
ATOM     11  C   UNL     1      -7.066 -10.070  14.132  0.00  0.00    +0.003 A 
ATOM     14  C   UNL     1      -6.809 -10.020  15.481  0.00  0.00    +0.040 A 
ATOM     15  C   UNL     1      -8.397 -10.518  14.044  0.00  0.00    +0.064 A 
ATOM     16  C   UNL     1      -5.599  -9.630  16.228  0.00  0.00    +0.065 C 
ATOM     18  C   UNL     1      -9.192 -10.754  12.826  0.00  0.00    +0.068 C 
BRANCH   3  17
ATOM     17  C   UNL     1      -8.189 -10.543  17.516  0.00  0.00    +0.158 C 
BRANCH  17  20
ATOM     20  C   UNL     1      -9.668 -10.447  17.901  0.00  0.00    +0.141 C 
BRANCH  20  22
ATOM      7  N   UNL     1     -10.019 -10.447  20.509  0.00  0.00    -0.197 NA
ATOM     22  C   UNL     1      -9.864 -10.447  19.358  0.00  0.00    +0.064 C 
ENDBRANCH  20  22
ENDBRANCH  17  20
ENDBRANCH   3  17
ENDBRANCH   8  11
BRANCH  10   4
ATOM      2  O   UNL     1      -1.908 -10.399  12.567  0.00  0.00    -0.252 OA
ATOM      4  N   UNL     1      -3.532  -9.846  11.017  0.00  0.00    -0.293 N 
ATOM      6  N   UNL     1      -1.519  -8.733  10.961  0.00  0.00    -0.269 N 
ATOM     19  C   UNL     1      -2.268  -9.719  11.610  0.00  0.00    +0.304 C 
ATOM     28  H   UNL     1      -3.768  -9.210  10.260  0.00  0.00    +0.151 HD
ATOM     29  H   UNL     1      -1.967  -8.260  10.180  0.00  0.00    +0.156 HD
BRANCH   6  21
ATOM      1 CL   UNL     1       3.995  -6.950  12.196  0.00  0.00    -0.084 Cl
ATOM     21  C   UNL     1      -0.203  -8.308  11.255  0.00  0.00    +0.035 A 
ATOM     23  C   UNL     1       0.876  -8.822  10.535  0.00  0.00    +0.025 A 
ATOM     24  C   UNL     1       0.018  -7.373  12.268  0.00  0.00    +0.025 A 
ATOM     25  C   UNL     1       2.173  -8.402  10.826  0.00  0.00    +0.022 A 
ATOM     26  C   UNL     1       1.316  -6.953  12.559  0.00  0.00    +0.022 A 
ATOM     27  C   UNL     1       2.394  -7.467  11.838  0.00  0.00    +0.041 A 
ENDBRANCH   6  21
ENDBRANCH  10   4
TORSDOF 6
ENDMDL
