MODEL 1
REMARK VINA RESULT:      -4.6      0.000      0.000
REMARK  Name = 51137291
REMARK  4 active torsions:
REMARK  status: ('A' for Active; 'I' for Inactive)
REMARK    1  A    between atoms: N_3  and  C_11
REMARK    2  A    between atoms: C_7  and  C_12
REMARK    3  A    between atoms: C_11  and  C_13
REMARK    4  A    between atoms: C_16  and  C_19
REMARK                            x       y       z     vdW  Elec       q    Type
REMARK                         _______ _______ _______ _____ _____    ______ ____
ROOT
ATOM      3  N   UNL     1      -4.946 -10.152  10.241  0.00  0.00    -0.297 NA
ATOM      7  C   UNL     1      -6.902  -9.763  11.474  0.00  0.00    +0.092 C 
ATOM      8  C   UNL     1      -6.301  -8.420  11.026  0.00  0.00    +0.029 C 
ATOM      9  C   UNL     1      -5.770 -10.781  11.274  0.00  0.00    +0.097 C 
ATOM     10  C   UNL     1      -4.867  -8.742  10.628  0.00  0.00    +0.085 C 
ENDROOT
BRANCH   7  12
ATOM      2  O   UNL     1      -6.576  -9.981  13.892  0.00  0.00    -0.420 OA
ATOM      4  N   UNL     1      -8.697  -9.604  13.288  0.00  0.00    -0.112 NA
ATOM      5  N   UNL     1      -8.657  -9.706  14.666  0.00  0.00    -0.107 NA
ATOM     12  C   UNL     1      -7.460  -9.771  12.879  0.00  0.00    +0.222 A 
ATOM     16  C   UNL     1      -7.400  -9.926  14.973  0.00  0.00    +0.248 A 
BRANCH  16  19
ATOM      6  N   UNL     1      -5.552 -10.480  18.737  0.00  0.00    -0.263 NA
ATOM     19  C   UNL     1      -6.773 -10.113  16.250  0.00  0.00    +0.041 A 
ATOM     21  C   UNL     1      -7.532 -10.061  17.415  0.00  0.00    +0.033 A 
ATOM     22  C   UNL     1      -5.405 -10.349  16.328  0.00  0.00    +0.033 A 
ATOM     23  C   UNL     1      -6.879 -10.249  18.623  0.00  0.00    +0.111 A 
ATOM     24  C   UNL     1      -4.847 -10.524  17.585  0.00  0.00    +0.111 A 
ENDBRANCH  16  19
ENDBRANCH   7  12
BRANCH   3  11
ATOM     11  C   UNL     1      -3.632 -10.769  10.127  0.00  0.00    +0.119 C 
BRANCH  11  13
ATOM      1 CL   UNL     1      -2.005 -10.780  15.078  0.00  0.00    -0.084 Cl
ATOM     13  C   UNL     1      -2.677 -10.252  11.170  0.00  0.00    -0.032 A 
ATOM     14  C   UNL     1      -2.772 -10.702  12.487  0.00  0.00    +0.025 A 
ATOM     15  C   UNL     1      -1.698  -9.322  10.819  0.00  0.00    +0.005 A 
ATOM     17  C   UNL     1      -1.887 -10.224  13.453  0.00  0.00    +0.041 A 
ATOM     18  C   UNL     1      -0.813  -8.843  11.786  0.00  0.00    +0.002 A 
ATOM     20  C   UNL     1      -0.907  -9.295  13.103  0.00  0.00    +0.020 A 
ENDBRANCH  11  13
ENDBRANCH   3  11
TORSDOF 4
ENDMDL
MODEL 2
REMARK VINA RESULT:      -3.9      1.995      2.482
REMARK  Name = 51137291
REMARK  4 active torsions:
REMARK  status: ('A' for Active; 'I' for Inactive)
REMARK    1  A    between atoms: N_3  and  C_11
REMARK    2  A    between atoms: C_7  and  C_12
REMARK    3  A    between atoms: C_11  and  C_13
REMARK    4  A    between atoms: C_16  and  C_19
REMARK                            x       y       z     vdW  Elec       q    Type
REMARK                         _______ _______ _______ _____ _____    ______ ____
ROOT
ATOM      3  N   UNL     1      -5.202 -10.046   9.767  0.00  0.00    -0.297 NA
ATOM      7  C   UNL     1      -7.450  -9.721  10.348  0.00  0.00    +0.092 C 
ATOM      8  C   UNL     1      -6.721  -8.367  10.339  0.00  0.00    +0.029 C 
ATOM      9  C   UNL     1      -6.327 -10.768  10.365  0.00  0.00    +0.097 C 
ATOM     10  C   UNL     1      -5.239  -8.717  10.378  0.00  0.00    +0.085 C 
ENDROOT
BRANCH   7  12
ATOM      2  O   UNL     1      -8.131  -9.314  12.666  0.00  0.00    -0.420 OA
ATOM      4  N   UNL     1      -9.580 -10.551  11.493  0.00  0.00    -0.112 NA
ATOM      5  N   UNL     1     -10.083 -10.400  12.772  0.00  0.00    -0.107 NA
ATOM     12  C   UNL     1      -8.439  -9.901  11.477  0.00  0.00    +0.222 A 
ATOM     16  C   UNL     1      -9.205  -9.672  13.420  0.00  0.00    +0.248 A 
BRANCH  16  19
ATOM      6  N   UNL     1      -9.200  -8.292  17.418  0.00  0.00    -0.263 NA
ATOM     19  C   UNL     1      -9.203  -9.203  14.776  0.00  0.00    +0.041 A 
ATOM     21  C   UNL     1     -10.015  -8.137  15.148  0.00  0.00    +0.033 A 
ATOM     22  C   UNL     1      -8.390  -9.815  15.724  0.00  0.00    +0.033 A 
ATOM     23  C   UNL     1      -9.978  -7.723  16.470  0.00  0.00    +0.111 A 
ATOM     24  C   UNL     1      -8.425  -9.325  17.021  0.00  0.00    +0.111 A 
ENDBRANCH  16  19
ENDBRANCH   7  12
BRANCH   3  11
ATOM     11  C   UNL     1      -3.931 -10.722   9.987  0.00  0.00    +0.119 C 
BRANCH  11  13
ATOM      1 CL   UNL     1      -5.189 -10.775  15.044  0.00  0.00    -0.084 Cl
ATOM     13  C   UNL     1      -3.491 -10.636  11.424  0.00  0.00    -0.032 A 
ATOM     14  C   UNL     1      -4.433 -10.734  12.448  0.00  0.00    +0.025 A 
ATOM     15  C   UNL     1      -2.142 -10.460  11.731  0.00  0.00    +0.005 A 
ATOM     17  C   UNL     1      -4.026 -10.656  13.780  0.00  0.00    +0.041 A 
ATOM     18  C   UNL     1      -1.735 -10.381  13.063  0.00  0.00    +0.002 A 
ATOM     20  C   UNL     1      -2.677 -10.480  14.088  0.00  0.00    +0.020 A 
ENDBRANCH  11  13
ENDBRANCH   3  11
TORSDOF 4
ENDMDL
MODEL 3
REMARK VINA RESULT:      -3.7     24.846     25.630
REMARK  Name = 51137291
REMARK  4 active torsions:
REMARK  status: ('A' for Active; 'I' for Inactive)
REMARK    1  A    between atoms: N_3  and  C_11
REMARK    2  A    between atoms: C_7  and  C_12
REMARK    3  A    between atoms: C_11  and  C_13
REMARK    4  A    between atoms: C_16  and  C_19
REMARK                            x       y       z     vdW  Elec       q    Type
REMARK                         _______ _______ _______ _____ _____    ______ ____
ROOT
ATOM      3  N   UNL     1      17.405  -6.011  24.424  0.00  0.00    -0.297 NA
ATOM      7  C   UNL     1      17.169  -6.903  26.579  0.00  0.00    +0.092 C 
ATOM      8  C   UNL     1      17.399  -8.044  25.573  0.00  0.00    +0.029 C 
ATOM      9  C   UNL     1      16.792  -5.692  25.714  0.00  0.00    +0.097 C 
ATOM     10  C   UNL     1      17.115  -7.430  24.209  0.00  0.00    +0.085 C 
ENDROOT
BRANCH   7  12
ATOM      2  O   UNL     1      15.847  -6.191  28.514  0.00  0.00    -0.420 OA
ATOM      4  N   UNL     1      15.486  -8.309  27.893  0.00  0.00    -0.112 NA
ATOM      5  N   UNL     1      14.684  -8.042  28.986  0.00  0.00    -0.107 NA
ATOM     12  C   UNL     1      16.147  -7.201  27.653  0.00  0.00    +0.222 A 
ATOM     16  C   UNL     1      14.927  -6.795  29.315  0.00  0.00    +0.248 A 
BRANCH  16  19
ATOM      6  N   UNL     1      13.325  -4.411  32.419  0.00  0.00    -0.263 NA
ATOM     19  C   UNL     1      14.383  -5.986  30.367  0.00  0.00    +0.041 A 
ATOM     21  C   UNL     1      13.188  -6.348  30.979  0.00  0.00    +0.033 A 
ATOM     22  C   UNL     1      15.050  -4.838  30.781  0.00  0.00    +0.033 A 
ATOM     23  C   UNL     1      12.705  -5.535  31.992  0.00  0.00    +0.111 A 
ATOM     24  C   UNL     1      14.483  -4.091  31.802  0.00  0.00    +0.111 A 
ENDBRANCH  16  19
ENDBRANCH   7  12
BRANCH   3  11
ATOM     11  C   UNL     1      16.898  -5.173  23.346  0.00  0.00    +0.119 C 
BRANCH  11  13
ATOM      1 CL   UNL     1      16.832  -1.389  26.929  0.00  0.00    -0.084 Cl
ATOM     13  C   UNL     1      17.012  -3.708  23.675  0.00  0.00    -0.032 A 
ATOM     14  C   UNL     1      16.884  -3.277  24.995  0.00  0.00    +0.025 A 
ATOM     15  C   UNL     1      17.245  -2.782  22.658  0.00  0.00    +0.005 A 
ATOM     17  C   UNL     1      16.990  -1.921  25.299  0.00  0.00    +0.041 A 
ATOM     18  C   UNL     1      17.351  -1.424  22.962  0.00  0.00    +0.002 A 
ATOM     20  C   UNL     1      17.224  -0.993  24.283  0.00  0.00    +0.020 A 
ENDBRANCH  11  13
ENDBRANCH   3  11
TORSDOF 4
ENDMDL
MODEL 4
REMARK VINA RESULT:      -3.7      1.417      2.092
REMARK  Name = 51137291
REMARK  4 active torsions:
REMARK  status: ('A' for Active; 'I' for Inactive)
REMARK    1  A    between atoms: N_3  and  C_11
REMARK    2  A    between atoms: C_7  and  C_12
REMARK    3  A    between atoms: C_11  and  C_13
REMARK    4  A    between atoms: C_16  and  C_19
REMARK                            x       y       z     vdW  Elec       q    Type
REMARK                         _______ _______ _______ _____ _____    ______ ____
ROOT
ATOM      3  N   UNL     1      -4.555  -9.963   9.991  0.00  0.00    -0.297 NA
ATOM      7  C   UNL     1      -6.751  -9.499  10.671  0.00  0.00    +0.092 C 
ATOM      8  C   UNL     1      -5.929  -8.198  10.663  0.00  0.00    +0.029 C 
ATOM      9  C   UNL     1      -5.704 -10.620  10.617  0.00  0.00    +0.097 C 
ATOM     10  C   UNL     1      -4.475  -8.651  10.635  0.00  0.00    +0.085 C 
ENDROOT
BRANCH   7  12
ATOM      2  O   UNL     1      -7.164  -9.600  13.083  0.00  0.00    -0.420 OA
ATOM      4  N   UNL     1      -9.008  -9.797  11.832  0.00  0.00    -0.112 NA
ATOM      5  N   UNL     1      -9.383  -9.872  13.161  0.00  0.00    -0.107 NA
ATOM     12  C   UNL     1      -7.705  -9.639  11.835  0.00  0.00    +0.222 A 
ATOM     16  C   UNL     1      -8.275  -9.752  13.854  0.00  0.00    +0.248 A 
BRANCH  16  19
ATOM      6  N   UNL     1      -7.637  -9.763  18.035  0.00  0.00    -0.263 NA
ATOM     19  C   UNL     1      -8.059  -9.756  15.272  0.00  0.00    +0.041 A 
ATOM     21  C   UNL     1      -6.799 -10.048  15.786  0.00  0.00    +0.033 A 
ATOM     22  C   UNL     1      -9.107  -9.467  16.139  0.00  0.00    +0.033 A 
ATOM     23  C   UNL     1      -6.642 -10.039  17.162  0.00  0.00    +0.111 A 
ATOM     24  C   UNL     1      -8.846  -9.484  17.500  0.00  0.00    +0.111 A 
ENDBRANCH  16  19
ENDBRANCH   7  12
BRANCH   3  11
ATOM     11  C   UNL     1      -3.327 -10.730  10.143  0.00  0.00    +0.119 C 
BRANCH  11  13
ATOM      1 CL   UNL     1       0.515  -7.776  12.060  0.00  0.00    -0.084 Cl
ATOM     13  C   UNL     1      -2.524 -10.273  11.332  0.00  0.00    -0.032 A 
ATOM     14  C   UNL     1      -1.496  -9.345  11.165  0.00  0.00    +0.025 A 
ATOM     15  C   UNL     1      -2.807 -10.780  12.600  0.00  0.00    +0.005 A 
ATOM     17  C   UNL     1      -0.753  -8.921  12.266  0.00  0.00    +0.041 A 
ATOM     18  C   UNL     1      -2.063 -10.357  13.703  0.00  0.00    +0.002 A 
ATOM     20  C   UNL     1      -1.036  -9.427  13.535  0.00  0.00    +0.020 A 
ENDBRANCH  11  13
ENDBRANCH   3  11
TORSDOF 4
ENDMDL
MODEL 5
REMARK VINA RESULT:      -3.0     24.512     25.724
REMARK  Name = 51137291
REMARK  4 active torsions:
REMARK  status: ('A' for Active; 'I' for Inactive)
REMARK    1  A    between atoms: N_3  and  C_11
REMARK    2  A    between atoms: C_7  and  C_12
REMARK    3  A    between atoms: C_11  and  C_13
REMARK    4  A    between atoms: C_16  and  C_19
REMARK                            x       y       z     vdW  Elec       q    Type
REMARK                         _______ _______ _______ _____ _____    ______ ____
ROOT
ATOM      3  N   UNL     1      17.290  -6.639  25.222  0.00  0.00    -0.297 NA
ATOM      7  C   UNL     1      17.125  -6.782  27.557  0.00  0.00    +0.092 C 
ATOM      8  C   UNL     1      16.284  -7.897  26.912  0.00  0.00    +0.029 C 
ATOM      9  C   UNL     1      17.404  -5.796  26.413  0.00  0.00    +0.097 C 
ATOM     10  C   UNL     1      16.110  -7.472  25.460  0.00  0.00    +0.085 C 
ENDROOT
BRANCH   7  12
ATOM      2  O   UNL     1      15.283  -6.605  29.161  0.00  0.00    -0.420 OA
ATOM      4  N   UNL     1      16.932  -5.133  29.500  0.00  0.00    -0.112 NA
ATOM      5  N   UNL     1      15.967  -4.924  30.467  0.00  0.00    -0.107 NA
ATOM     12  C   UNL     1      16.491  -6.123  28.760  0.00  0.00    +0.222 A 
ATOM     16  C   UNL     1      15.024  -5.805  30.230  0.00  0.00    +0.248 A 
BRANCH  16  19
ATOM      6  N   UNL     1      11.372  -6.527  32.239  0.00  0.00    -0.263 NA
ATOM     19  C   UNL     1      13.785  -6.050  30.912  0.00  0.00    +0.041 A 
ATOM     21  C   UNL     1      13.366  -5.196  31.926  0.00  0.00    +0.033 A 
ATOM     22  C   UNL     1      13.000  -7.142  30.561  0.00  0.00    +0.033 A 
ATOM     23  C   UNL     1      12.162  -5.475  32.553  0.00  0.00    +0.111 A 
ATOM     24  C   UNL     1      11.812  -7.335  31.249  0.00  0.00    +0.111 A 
ENDBRANCH  16  19
ENDBRANCH   7  12
BRANCH   3  11
ATOM     11  C   UNL     1      17.179  -5.859  23.998  0.00  0.00    +0.119 C 
BRANCH  11  13
ATOM      1 CL   UNL     1      16.843  -0.983  22.189  0.00  0.00    -0.084 Cl
ATOM     13  C   UNL     1      17.199  -4.378  24.273  0.00  0.00    -0.032 A 
ATOM     14  C   UNL     1      17.031  -3.472  23.226  0.00  0.00    +0.025 A 
ATOM     15  C   UNL     1      17.387  -3.914  25.576  0.00  0.00    +0.005 A 
ATOM     17  C   UNL     1      17.049  -2.101  23.482  0.00  0.00    +0.041 A 
ATOM     18  C   UNL     1      17.405  -2.542  25.831  0.00  0.00    +0.002 A 
ATOM     20  C   UNL     1      17.236  -1.636  24.784  0.00  0.00    +0.020 A 
ENDBRANCH  11  13
ENDBRANCH   3  11
TORSDOF 4
ENDMDL
MODEL 6
REMARK VINA RESULT:      -2.9     24.435     26.298
REMARK  Name = 51137291
REMARK  4 active torsions:
REMARK  status: ('A' for Active; 'I' for Inactive)
REMARK    1  A    between atoms: N_3  and  C_11
REMARK    2  A    between atoms: C_7  and  C_12
REMARK    3  A    between atoms: C_11  and  C_13
REMARK    4  A    between atoms: C_16  and  C_19
REMARK                            x       y       z     vdW  Elec       q    Type
REMARK                         _______ _______ _______ _____ _____    ______ ____
ROOT
ATOM      3  N   UNL     1      16.759  -8.806  25.614  0.00  0.00    -0.297 NA
ATOM      7  C   UNL     1      16.353  -9.226  27.885  0.00  0.00    +0.092 C 
ATOM      8  C   UNL     1      15.014  -9.108  27.136  0.00  0.00    +0.029 C 
ATOM      9  C   UNL     1      17.390  -8.629  26.923  0.00  0.00    +0.097 C 
ATOM     10  C   UNL     1      15.359  -8.430  25.816  0.00  0.00    +0.085 C 
ENDROOT
BRANCH   7  12
ATOM      2  O   UNL     1      16.015  -7.270  29.318  0.00  0.00    -0.420 OA
ATOM      4  N   UNL     1      16.697  -9.096  30.414  0.00  0.00    -0.112 NA
ATOM      5  N   UNL     1      16.548  -8.076  31.335  0.00  0.00    -0.107 NA
ATOM     12  C   UNL     1      16.376  -8.580  29.251  0.00  0.00    +0.222 A 
ATOM     16  C   UNL     1      16.148  -7.030  30.651  0.00  0.00    +0.248 A 
BRANCH  16  19
ATOM      6  N   UNL     1      15.229  -3.104  31.927  0.00  0.00    -0.263 NA
ATOM     19  C   UNL     1      15.836  -5.698  31.084  0.00  0.00    +0.041 A 
ATOM     21  C   UNL     1      15.102  -5.496  32.248  0.00  0.00    +0.033 A 
ATOM     22  C   UNL     1      16.267  -4.605  30.341  0.00  0.00    +0.033 A 
ATOM     23  C   UNL     1      14.828  -4.191  32.623  0.00  0.00    +0.111 A 
ATOM     24  C   UNL     1      15.940  -3.339  30.802  0.00  0.00    +0.111 A 
ENDBRANCH  16  19
ENDBRANCH   7  12
BRANCH   3  11
ATOM     11  C   UNL     1      17.401  -8.011  24.577  0.00  0.00    +0.119 C 
BRANCH  11  13
ATOM      1 CL   UNL     1      16.740  -3.168  22.770  0.00  0.00    -0.084 Cl
ATOM     13  C   UNL     1      17.296  -6.535  24.856  0.00  0.00    -0.032 A 
ATOM     14  C   UNL     1      17.091  -5.639  23.807  0.00  0.00    +0.025 A 
ATOM     15  C   UNL     1      17.404  -6.064  26.165  0.00  0.00    +0.005 A 
ATOM     17  C   UNL     1      16.993  -4.273  24.065  0.00  0.00    +0.041 A 
ATOM     18  C   UNL     1      17.307  -4.696  26.424  0.00  0.00    +0.002 A 
ATOM     20  C   UNL     1      17.100  -3.800  25.374  0.00  0.00    +0.020 A 
ENDBRANCH  11  13
ENDBRANCH   3  11
TORSDOF 4
ENDMDL
MODEL 7
REMARK VINA RESULT:      -2.4     14.686     16.959
REMARK  Name = 51137291
REMARK  4 active torsions:
REMARK  status: ('A' for Active; 'I' for Inactive)
REMARK    1  A    between atoms: N_3  and  C_11
REMARK    2  A    between atoms: C_7  and  C_12
REMARK    3  A    between atoms: C_11  and  C_13
REMARK    4  A    between atoms: C_16  and  C_19
REMARK                            x       y       z     vdW  Elec       q    Type
REMARK                         _______ _______ _______ _____ _____    ______ ____
ROOT
ATOM      3  N   UNL     1      -3.748  -0.997  24.613  0.00  0.00    -0.297 NA
ATOM      7  C   UNL     1      -1.468  -1.078  24.076  0.00  0.00    +0.092 C 
ATOM      8  C   UNL     1      -1.658  -1.426  25.562  0.00  0.00    +0.029 C 
ATOM      9  C   UNL     1      -2.796  -0.435  23.653  0.00  0.00    +0.097 C 
ATOM     10  C   UNL     1      -3.061  -0.940  25.904  0.00  0.00    +0.085 C 
ENDROOT
BRANCH   7  12
ATOM      2  O   UNL     1       0.952  -0.804  23.808  0.00  0.00    -0.420 OA
ATOM      4  N   UNL     1      -0.220   1.073  23.484  0.00  0.00    -0.112 NA
ATOM      5  N   UNL     1       1.118   1.369  23.304  0.00  0.00    -0.107 NA
ATOM     12  C   UNL     1      -0.270  -0.205  23.777  0.00  0.00    +0.222 A 
ATOM     16  C   UNL     1       1.764   0.243  23.503  0.00  0.00    +0.248 A 
BRANCH  16  19
ATOM      6  N   UNL     1       5.904  -0.610  23.346  0.00  0.00    -0.263 NA
ATOM     19  C   UNL     1       3.168  -0.046  23.449  0.00  0.00    +0.041 A 
ATOM     21  C   UNL     1       4.069   0.937  23.052  0.00  0.00    +0.033 A 
ATOM     22  C   UNL     1       3.634  -1.310  23.796  0.00  0.00    +0.033 A 
ATOM     23  C   UNL     1       5.415   0.607  23.018  0.00  0.00    +0.111 A 
ATOM     24  C   UNL     1       4.999  -1.539  23.728  0.00  0.00    +0.111 A 
ENDBRANCH  16  19
ENDBRANCH   7  12
BRANCH   3  11
ATOM     11  C   UNL     1      -5.013  -0.275  24.627  0.00  0.00    +0.119 C 
BRANCH  11  13
ATOM      1 CL   UNL     1      -1.825   3.836  24.938  0.00  0.00    -0.084 Cl
ATOM     13  C   UNL     1      -4.821   1.186  24.938  0.00  0.00    -0.032 A 
ATOM     14  C   UNL     1      -3.560   1.766  24.809  0.00  0.00    +0.025 A 
ATOM     15  C   UNL     1      -5.906   1.958  25.354  0.00  0.00    +0.005 A 
ATOM     17  C   UNL     1      -3.383   3.119  25.096  0.00  0.00    +0.041 A 
ATOM     18  C   UNL     1      -5.729   3.312  25.642  0.00  0.00    +0.002 A 
ATOM     20  C   UNL     1      -4.467   3.893  25.512  0.00  0.00    +0.020 A 
ENDBRANCH  11  13
ENDBRANCH   3  11
TORSDOF 4
ENDMDL
MODEL 8
REMARK VINA RESULT:      -2.1     14.034     16.698
REMARK  Name = 51137291
REMARK  4 active torsions:
REMARK  status: ('A' for Active; 'I' for Inactive)
REMARK    1  A    between atoms: N_3  and  C_11
REMARK    2  A    between atoms: C_7  and  C_12
REMARK    3  A    between atoms: C_11  and  C_13
REMARK    4  A    between atoms: C_16  and  C_19
REMARK                            x       y       z     vdW  Elec       q    Type
REMARK                         _______ _______ _______ _____ _____    ______ ____
ROOT
ATOM      3  N   UNL     1      -4.860   1.866  25.255  0.00  0.00    -0.297 NA
ATOM      7  C   UNL     1      -3.007   3.295  25.111  0.00  0.00    +0.092 C 
ATOM      8  C   UNL     1      -3.950   3.555  23.924  0.00  0.00    +0.029 C 
ATOM      9  C   UNL     1      -3.461   1.944  25.680  0.00  0.00    +0.097 C 
ATOM     10  C   UNL     1      -4.860   2.334  23.869  0.00  0.00    +0.085 C 
ENDROOT
BRANCH   7  12
ATOM      2  O   UNL     1      -1.002   2.191  24.238  0.00  0.00    -0.420 OA
ATOM      4  N   UNL     1      -0.664   4.298  24.910  0.00  0.00    -0.112 NA
ATOM      5  N   UNL     1       0.539   3.800  24.446  0.00  0.00    -0.107 NA
ATOM     12  C   UNL     1      -1.535   3.325  24.770  0.00  0.00    +0.222 A 
ATOM     16  C   UNL     1       0.294   2.568  24.064  0.00  0.00    +0.248 A 
BRANCH  16  19
ATOM      6  N   UNL     1       2.863  -0.354  22.406  0.00  0.00    -0.263 NA
ATOM     19  C   UNL     1       1.165   1.577  23.502  0.00  0.00    +0.041 A 
ATOM     21  C   UNL     1       0.664   0.331  23.138  0.00  0.00    +0.033 A 
ATOM     22  C   UNL     1       2.515   1.857  23.318  0.00  0.00    +0.033 A 
ATOM     23  C   UNL     1       1.546  -0.591  22.599  0.00  0.00    +0.111 A 
ATOM     24  C   UNL     1       3.315   0.866  22.771  0.00  0.00    +0.111 A 
ENDBRANCH  16  19
ENDBRANCH   7  12
BRANCH   3  11
ATOM     11  C   UNL     1      -5.406   0.523  25.386  0.00  0.00    +0.119 C 
BRANCH  11  13
ATOM      1 CL   UNL     1      -0.579  -1.389  25.844  0.00  0.00    -0.084 Cl
ATOM     13  C   UNL     1      -4.397  -0.531  25.013  0.00  0.00    -0.032 A 
ATOM     14  C   UNL     1      -3.106  -0.478  25.539  0.00  0.00    +0.025 A 
ATOM     15  C   UNL     1      -4.754  -1.560  24.140  0.00  0.00    +0.005 A 
ATOM     17  C   UNL     1      -2.172  -1.455  25.194  0.00  0.00    +0.041 A 
ATOM     18  C   UNL     1      -3.819  -2.536  23.795  0.00  0.00    +0.002 A 
ATOM     20  C   UNL     1      -2.528  -2.484  24.322  0.00  0.00    +0.020 A 
ENDBRANCH  11  13
ENDBRANCH   3  11
TORSDOF 4
ENDMDL
MODEL 9
REMARK VINA RESULT:      -1.9     14.762     16.984
REMARK  Name = 51137291
REMARK  4 active torsions:
REMARK  status: ('A' for Active; 'I' for Inactive)
REMARK    1  A    between atoms: N_3  and  C_11
REMARK    2  A    between atoms: C_7  and  C_12
REMARK    3  A    between atoms: C_11  and  C_13
REMARK    4  A    between atoms: C_16  and  C_19
REMARK                            x       y       z     vdW  Elec       q    Type
REMARK                         _______ _______ _______ _____ _____    ______ ____
ROOT
ATOM      3  N   UNL     1      -4.768   1.621  24.527  0.00  0.00    -0.297 NA
ATOM      7  C   UNL     1      -3.441  -0.235  23.988  0.00  0.00    +0.092 C 
ATOM      8  C   UNL     1      -4.354  -0.583  25.177  0.00  0.00    +0.029 C 
ATOM      9  C   UNL     1      -3.486   1.297  23.899  0.00  0.00    +0.097 C 
ATOM     10  C   UNL     1      -4.839   0.759  25.708  0.00  0.00    +0.085 C 
ENDROOT
BRANCH   7  12
ATOM      2  O   UNL     1      -1.031   0.026  23.644  0.00  0.00    -0.420 OA
ATOM      4  N   UNL     1      -1.616  -1.934  24.549  0.00  0.00    -0.112 NA
ATOM      5  N   UNL     1      -0.240  -1.921  24.411  0.00  0.00    -0.107 NA
ATOM     12  C   UNL     1      -2.034  -0.778  24.089  0.00  0.00    +0.222 A 
ATOM     16  C   UNL     1       0.056  -0.758  23.879  0.00  0.00    +0.248 A 
BRANCH  16  19
ATOM      6  N   UNL     1       3.798   0.895  22.803  0.00  0.00    -0.263 NA
ATOM     19  C   UNL     1       1.325  -0.197  23.515  0.00  0.00    +0.041 A 
ATOM     21  C   UNL     1       2.410  -1.031  23.263  0.00  0.00    +0.033 A 
ATOM     22  C   UNL     1       1.475   1.181  23.411  0.00  0.00    +0.033 A 
ATOM     23  C   UNL     1       3.614  -0.440  22.913  0.00  0.00    +0.111 A 
ATOM     24  C   UNL     1       2.722   1.673  23.055  0.00  0.00    +0.111 A 
ENDBRANCH  16  19
ENDBRANCH   7  12
BRANCH   3  11
ATOM     11  C   UNL     1      -4.879   3.033  24.864  0.00  0.00    +0.119 C 
BRANCH  11  13
ATOM      1 CL   UNL     1       0.111   2.703  26.328  0.00  0.00    -0.084 Cl
ATOM     13  C   UNL     1      -3.529   3.686  24.993  0.00  0.00    -0.032 A 
ATOM     14  C   UNL     1      -2.459   2.975  25.538  0.00  0.00    +0.025 A 
ATOM     15  C   UNL     1      -3.348   5.003  24.569  0.00  0.00    +0.005 A 
ATOM     17  C   UNL     1      -1.209   3.580  25.656  0.00  0.00    +0.041 A 
ATOM     18  C   UNL     1      -2.097   5.609  24.688  0.00  0.00    +0.002 A 
ATOM     20  C   UNL     1      -1.027   4.897  25.232  0.00  0.00    +0.020 A 
ENDBRANCH  11  13
ENDBRANCH   3  11
TORSDOF 4
ENDMDL
MODEL 10
REMARK VINA RESULT:      -1.9     24.096     25.492
REMARK  Name = 51137291
REMARK  4 active torsions:
REMARK  status: ('A' for Active; 'I' for Inactive)
REMARK    1  A    between atoms: N_3  and  C_11
REMARK    2  A    between atoms: C_7  and  C_12
REMARK    3  A    between atoms: C_11  and  C_13
REMARK    4  A    between atoms: C_16  and  C_19
REMARK                            x       y       z     vdW  Elec       q    Type
REMARK                         _______ _______ _______ _____ _____    ______ ____
ROOT
ATOM      3  N   UNL     1      16.618  -9.730  25.718  0.00  0.00    -0.297 NA
ATOM      7  C   UNL     1      15.658 -10.435  27.738  0.00  0.00    +0.092 C 
ATOM      8  C   UNL     1      14.579 -10.395  26.642  0.00  0.00    +0.029 C 
ATOM      9  C   UNL     1      16.826  -9.621  27.163  0.00  0.00    +0.097 C 
ATOM     10  C   UNL     1      15.179  -9.545  25.529  0.00  0.00    +0.085 C 
ENDROOT
BRANCH   7  12
ATOM      2  O   UNL     1      14.773  -8.652  29.164  0.00  0.00    -0.420 OA
ATOM      4  N   UNL     1      15.161 -10.573  30.241  0.00  0.00    -0.112 NA
ATOM      5  N   UNL     1      14.669  -9.662  31.157  0.00  0.00    -0.107 NA
ATOM     12  C   UNL     1      15.205  -9.940  29.092  0.00  0.00    +0.222 A 
ATOM     16  C   UNL     1      14.457  -8.555  30.484  0.00  0.00    +0.248 A 
BRANCH  16  19
ATOM      6  N   UNL     1      12.971  -4.808  31.763  0.00  0.00    -0.263 NA
ATOM     19  C   UNL     1      13.953  -7.284  30.917  0.00  0.00    +0.041 A 
ATOM     21  C   UNL     1      12.581  -7.062  30.983  0.00  0.00    +0.033 A 
ATOM     22  C   UNL     1      14.834  -6.269  31.275  0.00  0.00    +0.033 A 
ATOM     23  C   UNL     1      12.145  -5.818  31.409  0.00  0.00    +0.111 A 
ATOM     24  C   UNL     1      14.296  -5.060  31.687  0.00  0.00    +0.111 A 
ENDBRANCH  16  19
ENDBRANCH   7  12
BRANCH   3  11
ATOM     11  C   UNL     1      17.404  -8.759  24.970  0.00  0.00    +0.119 C 
BRANCH  11  13
ATOM      1 CL   UNL     1      16.761  -3.637  24.254  0.00  0.00    -0.084 Cl
ATOM     13  C   UNL     1      17.301  -7.379  25.562  0.00  0.00    -0.032 A 
ATOM     14  C   UNL     1      17.102  -6.276  24.731  0.00  0.00    +0.025 A 
ATOM     15  C   UNL     1      17.405  -7.203  26.943  0.00  0.00    +0.005 A 
ATOM     17  C   UNL     1      17.006  -4.998  25.280  0.00  0.00    +0.041 A 
ATOM     18  C   UNL     1      17.310  -5.923  27.492  0.00  0.00    +0.002 A 
ATOM     20  C   UNL     1      17.109  -4.821  26.660  0.00  0.00    +0.020 A 
ENDBRANCH  11  13
ENDBRANCH   3  11
TORSDOF 4
ENDMDL
