MODEL 1
REMARK VINA RESULT:       1.4      0.000      0.000
REMARK  Name = 7143899
REMARK  5 active torsions:
REMARK  status: ('A' for Active; 'I' for Inactive)
REMARK    1  A    between atoms: N_5  and  C_20
REMARK    2  A    between atoms: N_5  and  C_22
REMARK    3  A    between atoms: N_5  and  C_23
REMARK    4  A    between atoms: C_17  and  C_20
REMARK    5  A    between atoms: C_18  and  C_21
REMARK                            x       y       z     vdW  Elec       q    Type
REMARK                         _______ _______ _______ _____ _____    ______ ____
ROOT
ATOM      1  O   UNL     1       0.246   2.102  25.646  0.00  0.00    -0.267 OA
ATOM      2  O   UNL     1      -5.053  -0.076  26.681  0.00  0.00    -0.274 OA
ATOM      3  N   UNL     1      -4.741   1.698  25.215  0.00  0.00    -0.299 N 
ATOM      4  N   UNL     1      -1.763   2.686  24.616  0.00  0.00    -0.311 N 
ATOM      8  C   UNL     1      -3.665   3.855  25.871  0.00  0.00    +0.027 C 
ATOM      9  C   UNL     1      -3.933   3.299  23.490  0.00  0.00    +0.054 C 
ATOM     10  C   UNL     1      -4.023   4.435  24.508  0.00  0.00    +0.018 C 
ATOM     11  C   UNL     1      -4.642   2.728  26.251  0.00  0.00    +0.113 C 
ATOM     12  C   UNL     1      -2.211   3.370  25.838  0.00  0.00    +0.130 C 
ATOM     13  C   UNL     1      -4.954   2.203  23.850  0.00  0.00    +0.117 C 
ATOM     14  C   UNL     1      -2.535   2.709  23.452  0.00  0.00    +0.027 A 
ATOM     15  C   UNL     1      -2.054   2.183  22.315  0.00  0.00    +0.022 A 
ATOM     16  C   UNL     1      -0.478   2.110  24.649  0.00  0.00    +0.259 A 
ATOM     17  C   UNL     1      -4.708   0.352  25.578  0.00  0.00    +0.230 C 
ATOM     18  C   UNL     1       0.019   1.496  23.368  0.00  0.00    +0.050 A 
ATOM     19  C   UNL     1      -0.759   1.564  22.278  0.00  0.00    +0.015 A 
ENDROOT
BRANCH  18  21
ATOM      6  N   UNL     1       2.642  -1.185  23.377  0.00  0.00    -0.243 NA
ATOM      7  N   UNL     1       3.714   0.947  23.043  0.00  0.00    -0.243 NA
ATOM     21  C   UNL     1       1.330   0.825  23.302  0.00  0.00    +0.024 A 
ATOM     24  C   UNL     1       1.459  -0.539  23.431  0.00  0.00    +0.122 A 
ATOM     25  C   UNL     1       2.499   1.527  23.107  0.00  0.00    +0.122 A 
ATOM     26  C   UNL     1       3.714  -0.393  23.183  0.00  0.00    +0.221 A 
ENDBRANCH  18  21
BRANCH  17  20
ATOM     20  C   UNL     1      -4.208  -0.617  24.536  0.00  0.00    +0.180 C 
BRANCH  20   5
ATOM      5  N   UNL     1      -3.366  -1.564  25.233  0.00  0.00    -0.300 NA
ATOM     22  C   UNL     1      -1.975  -1.098  25.279  0.00  0.00    +0.105 C 
ATOM     23  C   UNL     1      -3.428  -2.888  24.603  0.00  0.00    +0.105 C 
ENDBRANCH  20   5
ENDBRANCH  17  20
TORSDOF 3
ENDMDL
MODEL 2
REMARK VINA RESULT:       1.8      1.255      1.548
REMARK  Name = 7143899
REMARK  5 active torsions:
REMARK  status: ('A' for Active; 'I' for Inactive)
REMARK    1  A    between atoms: N_5  and  C_20
REMARK    2  A    between atoms: N_5  and  C_22
REMARK    3  A    between atoms: N_5  and  C_23
REMARK    4  A    between atoms: C_17  and  C_20
REMARK    5  A    between atoms: C_18  and  C_21
REMARK                            x       y       z     vdW  Elec       q    Type
REMARK                         _______ _______ _______ _____ _____    ______ ____
ROOT
ATOM      1  O   UNL     1       0.901   1.925  25.251  0.00  0.00    -0.267 OA
ATOM      2  O   UNL     1      -3.928  -0.928  26.813  0.00  0.00    -0.274 OA
ATOM      3  N   UNL     1      -3.898   0.476  24.962  0.00  0.00    -0.299 N 
ATOM      4  N   UNL     1      -1.139   1.850  24.124  0.00  0.00    -0.311 N 
ATOM      8  C   UNL     1      -3.276   2.893  25.075  0.00  0.00    +0.027 C 
ATOM      9  C   UNL     1      -3.338   1.749  22.899  0.00  0.00    +0.054 C 
ATOM     10  C   UNL     1      -3.682   3.053  23.615  0.00  0.00    +0.018 C 
ATOM     11  C   UNL     1      -4.037   1.720  25.720  0.00  0.00    +0.113 C 
ATOM     12  C   UNL     1      -1.756   2.704  25.149  0.00  0.00    +0.130 C 
ATOM     13  C   UNL     1      -4.148   0.592  23.517  0.00  0.00    +0.117 C 
ATOM     14  C   UNL     1      -1.854   1.447  22.994  0.00  0.00    +0.027 A 
ATOM     15  C   UNL     1      -1.237   0.771  22.013  0.00  0.00    +0.022 A 
ATOM     16  C   UNL     1       0.229   1.558  24.286  0.00  0.00    +0.259 A 
ATOM     17  C   UNL     1      -3.626  -0.714  25.637  0.00  0.00    +0.230 C 
ATOM     18  C   UNL     1       0.884   0.765  23.186  0.00  0.00    +0.050 A 
ATOM     19  C   UNL     1       0.152   0.422  22.117  0.00  0.00    +0.015 A 
ENDROOT
BRANCH  18  21
ATOM      6  N   UNL     1       3.961  -1.320  23.690  0.00  0.00    -0.243 NA
ATOM      7  N   UNL     1       4.631   0.920  23.110  0.00  0.00    -0.243 NA
ATOM     21  C   UNL     1       2.300   0.364  23.275  0.00  0.00    +0.024 A 
ATOM     24  C   UNL     1       2.676  -0.920  23.600  0.00  0.00    +0.122 A 
ATOM     25  C   UNL     1       3.325   1.252  23.037  0.00  0.00    +0.122 A 
ATOM     26  C   UNL     1       4.874  -0.363  23.436  0.00  0.00    +0.221 A 
ENDBRANCH  18  21
BRANCH  17  20
ATOM     20  C   UNL     1      -2.910  -1.786  24.854  0.00  0.00    +0.180 C 
BRANCH  20   5
ATOM      5  N   UNL     1      -1.511  -1.419  24.849  0.00  0.00    -0.300 NA
ATOM     22  C   UNL     1      -0.678  -2.521  24.355  0.00  0.00    +0.105 C 
ATOM     23  C   UNL     1      -1.067  -1.020  26.190  0.00  0.00    +0.105 C 
ENDBRANCH  20   5
ENDBRANCH  17  20
TORSDOF 3
ENDMDL
MODEL 3
REMARK VINA RESULT:       2.0      2.037      3.456
REMARK  Name = 7143899
REMARK  5 active torsions:
REMARK  status: ('A' for Active; 'I' for Inactive)
REMARK    1  A    between atoms: N_5  and  C_20
REMARK    2  A    between atoms: N_5  and  C_22
REMARK    3  A    between atoms: N_5  and  C_23
REMARK    4  A    between atoms: C_17  and  C_20
REMARK    5  A    between atoms: C_18  and  C_21
REMARK                            x       y       z     vdW  Elec       q    Type
REMARK                         _______ _______ _______ _____ _____    ______ ____
ROOT
ATOM      1  O   UNL     1      -1.415   2.120  22.023  0.00  0.00    -0.267 OA
ATOM      2  O   UNL     1      -3.409   5.471  26.347  0.00  0.00    -0.274 OA
ATOM      3  N   UNL     1      -4.258   3.341  25.978  0.00  0.00    -0.299 N 
ATOM      4  N   UNL     1      -2.960   1.550  23.674  0.00  0.00    -0.311 N 
ATOM      8  C   UNL     1      -5.282   2.620  23.816  0.00  0.00    +0.027 C 
ATOM      9  C   UNL     1      -4.612   0.930  25.473  0.00  0.00    +0.054 C 
ATOM     10  C   UNL     1      -5.696   1.304  24.464  0.00  0.00    +0.018 C 
ATOM     11  C   UNL     1      -5.145   3.725  24.879  0.00  0.00    +0.113 C 
ATOM     12  C   UNL     1      -3.977   2.401  23.041  0.00  0.00    +0.130 C 
ATOM     13  C   UNL     1      -4.523   2.017  26.562  0.00  0.00    +0.117 C 
ATOM     14  C   UNL     1      -3.264   0.771  24.793  0.00  0.00    +0.027 A 
ATOM     15  C   UNL     1      -2.358  -0.090  25.281  0.00  0.00    +0.022 A 
ATOM     16  C   UNL     1      -1.708   1.476  23.031  0.00  0.00    +0.259 A 
ATOM     17  C   UNL     1      -3.304   4.246  26.442  0.00  0.00    +0.230 C 
ATOM     18  C   UNL     1      -0.700   0.529  23.624  0.00  0.00    +0.050 A 
ATOM     19  C   UNL     1      -1.056  -0.206  24.688  0.00  0.00    +0.015 A 
ENDROOT
BRANCH  18  21
ATOM      6  N   UNL     1       2.148  -0.506  21.413  0.00  0.00    -0.243 NA
ATOM      7  N   UNL     1       2.989   0.976  23.117  0.00  0.00    -0.243 NA
ATOM     21  C   UNL     1       0.656   0.407  23.059  0.00  0.00    +0.024 A 
ATOM     24  C   UNL     1       0.920  -0.371  21.955  0.00  0.00    +0.122 A 
ATOM     25  C   UNL     1       1.735   1.065  23.606  0.00  0.00    +0.122 A 
ATOM     26  C   UNL     1       3.122   0.186  22.034  0.00  0.00    +0.221 A 
ENDBRANCH  18  21
BRANCH  17  20
ATOM     20  C   UNL     1      -2.074   3.660  27.088  0.00  0.00    +0.180 C 
BRANCH  20   5
ATOM      5  N   UNL     1      -1.215   3.229  26.008  0.00  0.00    -0.300 NA
ATOM     22  C   UNL     1       0.012   2.610  26.524  0.00  0.00    +0.105 C 
ATOM     23  C   UNL     1      -0.874   4.351  25.125  0.00  0.00    +0.105 C 
ENDBRANCH  20   5
ENDBRANCH  17  20
TORSDOF 3
ENDMDL
MODEL 4
REMARK VINA RESULT:       2.1      2.686      3.612
REMARK  Name = 7143899
REMARK  5 active torsions:
REMARK  status: ('A' for Active; 'I' for Inactive)
REMARK    1  A    between atoms: N_5  and  C_20
REMARK    2  A    between atoms: N_5  and  C_22
REMARK    3  A    between atoms: N_5  and  C_23
REMARK    4  A    between atoms: C_17  and  C_20
REMARK    5  A    between atoms: C_18  and  C_21
REMARK                            x       y       z     vdW  Elec       q    Type
REMARK                         _______ _______ _______ _____ _____    ______ ____
ROOT
ATOM      1  O   UNL     1      -1.666   3.871  27.235  0.00  0.00    -0.267 OA
ATOM      2  O   UNL     1      -5.505  -0.199  25.624  0.00  0.00    -0.274 OA
ATOM      3  N   UNL     1      -4.181   0.900  24.063  0.00  0.00    -0.299 N 
ATOM      4  N   UNL     1      -2.003   2.992  25.101  0.00  0.00    -0.311 N 
ATOM      8  C   UNL     1      -4.160   3.381  23.777  0.00  0.00    +0.027 C 
ATOM      9  C   UNL     1      -2.355   2.024  22.802  0.00  0.00    +0.054 C 
ATOM     10  C   UNL     1      -3.271   3.220  22.549  0.00  0.00    +0.018 C 
ATOM     11  C   UNL     1      -5.000   2.111  24.004  0.00  0.00    +0.113 C 
ATOM     12  C   UNL     1      -3.279   3.713  24.987  0.00  0.00    +0.130 C 
ATOM     13  C   UNL     1      -3.205   0.751  22.973  0.00  0.00    +0.117 C 
ATOM     14  C   UNL     1      -1.499   2.242  24.036  0.00  0.00    +0.027 A 
ATOM     15  C   UNL     1      -0.278   1.692  24.118  0.00  0.00    +0.022 A 
ATOM     16  C   UNL     1      -1.271   3.188  26.289  0.00  0.00    +0.259 A 
ATOM     17  C   UNL     1      -4.418  -0.043  25.063  0.00  0.00    +0.230 C 
ATOM     18  C   UNL     1       0.080   2.528  26.365  0.00  0.00    +0.050 A 
ATOM     19  C   UNL     1       0.518   1.836  25.304  0.00  0.00    +0.015 A 
ENDROOT
BRANCH  18  21
ATOM      6  N   UNL     1       2.993   3.200  28.631  0.00  0.00    -0.243 NA
ATOM      7  N   UNL     1       1.168   2.339  29.949  0.00  0.00    -0.243 NA
ATOM     21  C   UNL     1       0.910   2.629  27.579  0.00  0.00    +0.024 A 
ATOM     24  C   UNL     1       2.205   3.095  27.540  0.00  0.00    +0.122 A 
ATOM     25  C   UNL     1       0.436   2.261  28.819  0.00  0.00    +0.122 A 
ATOM     26  C   UNL     1       2.419   2.811  29.786  0.00  0.00    +0.221 A 
ENDBRANCH  18  21
BRANCH  17  20
ATOM     20  C   UNL     1      -3.250  -0.907  25.468  0.00  0.00    +0.180 C 
BRANCH  20   5
ATOM      5  N   UNL     1      -2.969  -1.765  24.338  0.00  0.00    -0.300 NA
ATOM     22  C   UNL     1      -3.959  -2.844  24.236  0.00  0.00    +0.105 C 
ATOM     23  C   UNL     1      -1.619  -2.334  24.429  0.00  0.00    +0.105 C 
ENDBRANCH  20   5
ENDBRANCH  17  20
TORSDOF 3
ENDMDL
MODEL 5
REMARK VINA RESULT:       4.0      2.468      4.856
REMARK  Name = 7143899
REMARK  5 active torsions:
REMARK  status: ('A' for Active; 'I' for Inactive)
REMARK    1  A    between atoms: N_5  and  C_20
REMARK    2  A    between atoms: N_5  and  C_22
REMARK    3  A    between atoms: N_5  and  C_23
REMARK    4  A    between atoms: C_17  and  C_20
REMARK    5  A    between atoms: C_18  and  C_21
REMARK                            x       y       z     vdW  Elec       q    Type
REMARK                         _______ _______ _______ _____ _____    ______ ____
ROOT
ATOM      1  O   UNL     1      -3.325   0.590  22.376  0.00  0.00    -0.267 OA
ATOM      2  O   UNL     1      -0.002   4.703  24.813  0.00  0.00    -0.274 OA
ATOM      3  N   UNL     1      -2.259   4.510  25.327  0.00  0.00    -0.299 N 
ATOM      4  N   UNL     1      -3.925   2.108  24.043  0.00  0.00    -0.311 N 
ATOM      8  C   UNL     1      -4.078   4.628  23.619  0.00  0.00    +0.027 C 
ATOM      9  C   UNL     1      -4.563   3.734  25.858  0.00  0.00    +0.054 C 
ATOM     10  C   UNL     1      -5.113   4.613  24.737  0.00  0.00    +0.018 C 
ATOM     11  C   UNL     1      -2.742   5.198  24.130  0.00  0.00    +0.113 C 
ATOM     12  C   UNL     1      -3.924   3.206  23.067  0.00  0.00    +0.130 C 
ATOM     13  C   UNL     1      -3.255   4.345  26.398  0.00  0.00    +0.117 C 
ATOM     14  C   UNL     1      -4.308   2.320  25.369  0.00  0.00    +0.027 A 
ATOM     15  C   UNL     1      -4.418   1.282  26.213  0.00  0.00    +0.022 A 
ATOM     16  C   UNL     1      -3.632   0.822  23.547  0.00  0.00    +0.259 A 
ATOM     17  C   UNL     1      -0.918   4.138  25.415  0.00  0.00    +0.230 C 
ATOM     18  C   UNL     1      -3.729  -0.317  24.526  0.00  0.00    +0.050 A 
ATOM     19  C   UNL     1      -4.119  -0.054  25.782  0.00  0.00    +0.015 A 
ENDROOT
BRANCH  18  21
ATOM      6  N   UNL     1      -4.098  -3.856  23.341  0.00  0.00    -0.243 NA
ATOM      7  N   UNL     1      -1.769  -3.428  23.788  0.00  0.00    -0.243 NA
ATOM     21  C   UNL     1      -3.399  -1.697  24.127  0.00  0.00    +0.024 A 
ATOM     24  C   UNL     1      -4.364  -2.587  23.713  0.00  0.00    +0.122 A 
ATOM     25  C   UNL     1      -2.106  -2.172  24.146  0.00  0.00    +0.122 A 
ATOM     26  C   UNL     1      -2.798  -4.206  23.401  0.00  0.00    +0.221 A 
ENDBRANCH  18  21
BRANCH  17  20
ATOM     20  C   UNL     1      -0.599   2.961  26.302  0.00  0.00    +0.180 C 
BRANCH  20   5
ATOM      5  N   UNL     1      -0.810   1.778  25.497  0.00  0.00    -0.300 NA
ATOM     22  C   UNL     1      -0.691   0.560  26.308  0.00  0.00    +0.105 C 
ATOM     23  C   UNL     1       0.138   1.726  24.378  0.00  0.00    +0.105 C 
ENDBRANCH  20   5
ENDBRANCH  17  20
TORSDOF 3
ENDMDL
