MODEL 1
REMARK VINA RESULT:      -1.3      0.000      0.000
REMARK  Name = 38027325
REMARK  12 active torsions:
REMARK  status: ('A' for Active; 'I' for Inactive)
REMARK    1  A    between atoms: O_3  and  C_26
REMARK    2  A    between atoms: O_3  and  C_31
REMARK    3  A    between atoms: N_4  and  C_15
REMARK    4  A    between atoms: N_5  and  C_14
REMARK    5  A    between atoms: C_6  and  C_10
REMARK    6  A    between atoms: C_7  and  C_14
REMARK    7  A    between atoms: C_9  and  C_13
REMARK    8  A    between atoms: C_10  and  C_16
REMARK    9  A    between atoms: C_10  and  C_17
REMARK   10  A    between atoms: C_11  and  C_20
REMARK   11  A    between atoms: C_13  and  C_21
REMARK   12  A    between atoms: C_24  and  C_25
REMARK                            x       y       z     vdW  Elec       q    Type
REMARK                         _______ _______ _______ _____ _____    ______ ____
ROOT
ATOM      6  C   UNL     1      -1.513   0.459  24.803  0.00  0.00    +0.000 C 
ATOM      7  C   UNL     1      -0.864  -0.910  24.479  0.00  0.00    +0.032 C 
ATOM      8  C   UNL     1      -2.678   0.280  25.788  0.00  0.00    +0.012 C 
ATOM      9  C   UNL     1      -3.768  -0.658  25.235  0.00  0.00    +0.023 C 
ATOM     11  C   UNL     1      -3.177  -1.924  24.648  0.00  0.00    -0.073 C 
ATOM     12  C   UNL     1      -1.875  -2.022  24.328  0.00  0.00    -0.022 C 
ATOM     20  C   UNL     1      -4.110  -3.091  24.479  0.00  0.00    +0.039 C 
ENDROOT
BRANCH   6  10
ATOM     10  C   UNL     1      -0.495   1.448  25.380  0.00  0.00    -0.013 C 
ATOM     16  C   UNL     1      -0.351   2.659  24.463  0.00  0.00    +0.007 C 
ATOM     17  C   UNL     1      -0.907   1.879  26.783  0.00  0.00    +0.007 C 
ENDBRANCH   6  10
BRANCH   9  13
ATOM     13  C   UNL     1      -4.650   0.063  24.209  0.00  0.00    +0.103 C 
BRANCH  13  21
ATOM      1  O   UNL     1      -6.123   1.514  25.466  0.00  0.00    -0.276 OA
ATOM      4  N   UNL     1      -4.373   2.437  24.247  0.00  0.00    -0.312 N 
ATOM     21  C   UNL     1      -5.151   1.394  24.725  0.00  0.00    +0.214 C 
ATOM     32  H   UNL     1      -3.564   2.227  23.670  0.00  0.00    +0.149 HD
BRANCH   4  15
ATOM     15  C   UNL     1      -4.622   3.819  24.576  0.00  0.00    +0.073 C 
ATOM     18  C   UNL     1      -3.491   4.722  24.101  0.00  0.00    +0.022 C 
ATOM     19  C   UNL     1      -4.630   4.053  26.083  0.00  0.00    +0.022 C 
ATOM     22  C   UNL     1      -2.422   4.601  25.186  0.00  0.00    +0.002 C 
ATOM     23  C   UNL     1      -3.160   4.211  26.466  0.00  0.00    +0.002 C 
ENDBRANCH   4  15
ENDBRANCH  13  21
ENDBRANCH   9  13
BRANCH   7  14
ATOM     14  C   UNL     1      -0.004  -0.827  23.213  0.00  0.00    +0.112 C 
BRANCH  14   5
ATOM      2  O   UNL     1       2.173  -0.410  21.388  0.00  0.00    -0.270 OA
ATOM      5  N   UNL     1       1.383  -0.735  23.545  0.00  0.00    -0.311 N 
ATOM     24  C   UNL     1       2.380  -0.531  22.593  0.00  0.00    +0.248 C 
ATOM     33  H   UNL     1       1.638  -0.811  24.525  0.00  0.00    +0.149 HD
BRANCH  24  25
ATOM     25  C   UNL     1       3.777  -0.486  23.097  0.00  0.00    +0.078 A 
ATOM     26  C   UNL     1       4.530   0.685  23.017  0.00  0.00    +0.132 A 
ATOM     27  C   UNL     1       4.335  -1.636  23.656  0.00  0.00    +0.017 A 
ATOM     28  C   UNL     1       5.840   0.707  23.495  0.00  0.00    +0.046 A 
ATOM     29  C   UNL     1       5.644  -1.615  24.136  0.00  0.00    +0.001 A 
ATOM     30  C   UNL     1       6.397  -0.443  24.055  0.00  0.00    +0.004 A 
BRANCH  26   3
ATOM      3  O   UNL     1       4.004   1.819  22.473  0.00  0.00    -0.494 OA
ATOM     31  C   UNL     1       2.751   2.262  22.991  0.00  0.00    +0.277 C 
ENDBRANCH  26   3
ENDBRANCH  24  25
ENDBRANCH  14   5
ENDBRANCH   7  14
TORSDOF 8
ENDMDL
MODEL 2
REMARK VINA RESULT:      -1.1      1.540      7.816
REMARK  Name = 38027325
REMARK  12 active torsions:
REMARK  status: ('A' for Active; 'I' for Inactive)
REMARK    1  A    between atoms: O_3  and  C_26
REMARK    2  A    between atoms: O_3  and  C_31
REMARK    3  A    between atoms: N_4  and  C_15
REMARK    4  A    between atoms: N_5  and  C_14
REMARK    5  A    between atoms: C_6  and  C_10
REMARK    6  A    between atoms: C_7  and  C_14
REMARK    7  A    between atoms: C_9  and  C_13
REMARK    8  A    between atoms: C_10  and  C_16
REMARK    9  A    between atoms: C_10  and  C_17
REMARK   10  A    between atoms: C_11  and  C_20
REMARK   11  A    between atoms: C_13  and  C_21
REMARK   12  A    between atoms: C_24  and  C_25
REMARK                            x       y       z     vdW  Elec       q    Type
REMARK                         _______ _______ _______ _____ _____    ______ ____
ROOT
ATOM      6  C   UNL     1      -1.816  -1.899  24.433  0.00  0.00    +0.000 C 
ATOM      7  C   UNL     1      -2.591  -1.285  25.627  0.00  0.00    +0.032 C 
ATOM      8  C   UNL     1      -0.302  -1.734  24.636  0.00  0.00    +0.012 C 
ATOM      9  C   UNL     1       0.109  -0.257  24.777  0.00  0.00    +0.023 C 
ATOM     11  C   UNL     1      -0.788   0.487  25.745  0.00  0.00    -0.073 C 
ATOM     12  C   UNL     1      -1.985   0.006  26.123  0.00  0.00    -0.022 C 
ATOM     20  C   UNL     1      -0.257   1.778  26.305  0.00  0.00    +0.039 C 
ENDROOT
BRANCH   6  10
ATOM     10  C   UNL     1      -2.155  -3.380  24.237  0.00  0.00    -0.013 C 
ATOM     16  C   UNL     1      -3.663  -3.567  24.103  0.00  0.00    +0.007 C 
ATOM     17  C   UNL     1      -1.430  -3.934  23.014  0.00  0.00    +0.007 C 
ENDBRANCH   6  10
BRANCH   9  13
ATOM     13  C   UNL     1       0.143   0.441  23.412  0.00  0.00    +0.103 C 
BRANCH  13  21
ATOM      1  O   UNL     1       1.111  -0.446  21.381  0.00  0.00    -0.276 OA
ATOM      4  N   UNL     1       2.473  -0.058  23.224  0.00  0.00    -0.312 N 
ATOM     21  C   UNL     1       1.266  -0.071  22.539  0.00  0.00    +0.214 C 
ATOM     32  H   UNL     1       2.501   0.311  24.169  0.00  0.00    +0.149 HD
BRANCH   4  15
ATOM     15  C   UNL     1       3.715  -0.495  22.636  0.00  0.00    +0.073 C 
ATOM     18  C   UNL     1       4.474  -1.436  23.562  0.00  0.00    +0.022 C 
ATOM     19  C   UNL     1       4.695   0.659  22.451  0.00  0.00    +0.022 C 
ATOM     22  C   UNL     1       5.199  -0.512  24.538  0.00  0.00    +0.002 C 
ATOM     23  C   UNL     1       5.376   0.820  23.809  0.00  0.00    +0.002 C 
ENDBRANCH   4  15
ENDBRANCH  13  21
ENDBRANCH   9  13
BRANCH   7  14
ATOM     14  C   UNL     1      -4.063  -1.054  25.269  0.00  0.00    +0.112 C 
BRANCH  14   5
ATOM      2  O   UNL     1      -3.634   1.118  23.441  0.00  0.00    -0.270 OA
ATOM      5  N   UNL     1      -4.426   0.314  25.469  0.00  0.00    -0.311 N 
ATOM     24  C   UNL     1      -4.179   1.310  24.525  0.00  0.00    +0.248 C 
ATOM     33  H   UNL     1      -4.896   0.555  26.336  0.00  0.00    +0.149 HD
BRANCH  24  25
ATOM     25  C   UNL     1      -4.593   2.688  24.895  0.00  0.00    +0.078 A 
ATOM     26  C   UNL     1      -3.679   3.742  24.865  0.00  0.00    +0.132 A 
ATOM     27  C   UNL     1      -5.914   2.922  25.277  0.00  0.00    +0.017 A 
ATOM     28  C   UNL     1      -4.087   5.029  25.217  0.00  0.00    +0.046 A 
ATOM     29  C   UNL     1      -6.322   4.208  25.627  0.00  0.00    +0.001 A 
ATOM     30  C   UNL     1      -5.408   5.262  25.597  0.00  0.00    +0.004 A 
BRANCH  26   3
ATOM      3  O   UNL     1      -2.384   3.534  24.496  0.00  0.00    -0.494 OA
ATOM     31  C   UNL     1      -1.435   4.527  24.879  0.00  0.00    +0.277 C 
ENDBRANCH  26   3
ENDBRANCH  24  25
ENDBRANCH  14   5
ENDBRANCH   7  14
TORSDOF 8
ENDMDL
MODEL 3
REMARK VINA RESULT:      -0.9      1.716      7.100
REMARK  Name = 38027325
REMARK  12 active torsions:
REMARK  status: ('A' for Active; 'I' for Inactive)
REMARK    1  A    between atoms: O_3  and  C_26
REMARK    2  A    between atoms: O_3  and  C_31
REMARK    3  A    between atoms: N_4  and  C_15
REMARK    4  A    between atoms: N_5  and  C_14
REMARK    5  A    between atoms: C_6  and  C_10
REMARK    6  A    between atoms: C_7  and  C_14
REMARK    7  A    between atoms: C_9  and  C_13
REMARK    8  A    between atoms: C_10  and  C_16
REMARK    9  A    between atoms: C_10  and  C_17
REMARK   10  A    between atoms: C_11  and  C_20
REMARK   11  A    between atoms: C_13  and  C_21
REMARK   12  A    between atoms: C_24  and  C_25
REMARK                            x       y       z     vdW  Elec       q    Type
REMARK                         _______ _______ _______ _____ _____    ______ ____
ROOT
ATOM      6  C   UNL     1      -2.802   3.144  25.535  0.00  0.00    +0.000 C 
ATOM      7  C   UNL     1      -3.045   3.734  24.123  0.00  0.00    +0.032 C 
ATOM      8  C   UNL     1      -1.573   3.798  26.185  0.00  0.00    +0.012 C 
ATOM      9  C   UNL     1      -0.296   3.599  25.347  0.00  0.00    +0.023 C 
ATOM     11  C   UNL     1      -0.531   3.906  23.882  0.00  0.00    -0.073 C 
ATOM     12  C   UNL     1      -1.766   3.975  23.356  0.00  0.00    -0.022 C 
ATOM     20  C   UNL     1       0.688   4.177  23.044  0.00  0.00    +0.039 C 
ENDROOT
BRANCH   6  10
ATOM     10  C   UNL     1      -4.023   3.320  26.442  0.00  0.00    -0.013 C 
ATOM     16  C   UNL     1      -3.666   4.173  27.656  0.00  0.00    +0.007 C 
ATOM     17  C   UNL     1      -5.179   3.943  25.666  0.00  0.00    +0.007 C 
ENDBRANCH   6  10
BRANCH   9  13
ATOM     13  C   UNL     1       0.269   2.185  25.528  0.00  0.00    +0.103 C 
BRANCH  13  21
ATOM      1  O   UNL     1      -0.382   1.062  23.487  0.00  0.00    -0.276 OA
ATOM      4  N   UNL     1       1.871   1.426  23.924  0.00  0.00    -0.312 N 
ATOM     21  C   UNL     1       0.514   1.497  24.204  0.00  0.00    +0.214 C 
ATOM     32  H   UNL     1       2.532   1.854  24.566  0.00  0.00    +0.149 HD
BRANCH   4  15
ATOM     15  C   UNL     1       2.396   0.819  22.726  0.00  0.00    +0.073 C 
ATOM     18  C   UNL     1       2.549  -0.690  22.882  0.00  0.00    +0.022 C 
ATOM     19  C   UNL     1       3.822   1.273  22.436  0.00  0.00    +0.022 C 
ATOM     22  C   UNL     1       3.875  -0.867  23.619  0.00  0.00    +0.002 C 
ATOM     23  C   UNL     1       4.707   0.374  23.297  0.00  0.00    +0.002 C 
ENDBRANCH   4  15
ENDBRANCH  13  21
ENDBRANCH   9  13
BRANCH   7  14
ATOM     14  C   UNL     1      -3.972   2.833  23.300  0.00  0.00    +0.112 C 
BRANCH  14   5
ATOM      2  O   UNL     1      -5.461   0.867  24.770  0.00  0.00    -0.270 OA
ATOM      5  N   UNL     1      -3.629   1.456  23.474  0.00  0.00    -0.311 N 
ATOM     24  C   UNL     1      -4.411   0.566  24.207  0.00  0.00    +0.248 C 
ATOM     33  H   UNL     1      -2.781   1.122  23.026  0.00  0.00    +0.149 HD
BRANCH  24  25
ATOM     25  C   UNL     1      -3.903  -0.826  24.317  0.00  0.00    +0.078 A 
ATOM     26  C   UNL     1      -2.770  -1.117  25.077  0.00  0.00    +0.132 A 
ATOM     27  C   UNL     1      -4.574  -1.849  23.646  0.00  0.00    +0.017 A 
ATOM     28  C   UNL     1      -2.308  -2.429  25.167  0.00  0.00    +0.046 A 
ATOM     29  C   UNL     1      -4.113  -3.162  23.737  0.00  0.00    +0.001 A 
ATOM     30  C   UNL     1      -2.980  -3.452  24.497  0.00  0.00    +0.004 A 
BRANCH  26   3
ATOM      3  O   UNL     1      -2.100  -0.131  25.739  0.00  0.00    -0.494 OA
ATOM     31  C   UNL     1      -1.044  -0.537  26.607  0.00  0.00    +0.277 C 
ENDBRANCH  26   3
ENDBRANCH  24  25
ENDBRANCH  14   5
ENDBRANCH   7  14
TORSDOF 8
ENDMDL
MODEL 4
REMARK VINA RESULT:      -0.7      0.811      1.620
REMARK  Name = 38027325
REMARK  12 active torsions:
REMARK  status: ('A' for Active; 'I' for Inactive)
REMARK    1  A    between atoms: O_3  and  C_26
REMARK    2  A    between atoms: O_3  and  C_31
REMARK    3  A    between atoms: N_4  and  C_15
REMARK    4  A    between atoms: N_5  and  C_14
REMARK    5  A    between atoms: C_6  and  C_10
REMARK    6  A    between atoms: C_7  and  C_14
REMARK    7  A    between atoms: C_9  and  C_13
REMARK    8  A    between atoms: C_10  and  C_16
REMARK    9  A    between atoms: C_10  and  C_17
REMARK   10  A    between atoms: C_11  and  C_20
REMARK   11  A    between atoms: C_13  and  C_21
REMARK   12  A    between atoms: C_24  and  C_25
REMARK                            x       y       z     vdW  Elec       q    Type
REMARK                         _______ _______ _______ _____ _____    ______ ____
ROOT
ATOM      6  C   UNL     1      -1.463   0.296  24.809  0.00  0.00    +0.000 C 
ATOM      7  C   UNL     1      -0.852  -1.075  24.424  0.00  0.00    +0.032 C 
ATOM      8  C   UNL     1      -2.611   0.108  25.812  0.00  0.00    +0.012 C 
ATOM      9  C   UNL     1      -3.734  -0.786  25.252  0.00  0.00    +0.023 C 
ATOM     11  C   UNL     1      -3.184  -2.044  24.610  0.00  0.00    -0.073 C 
ATOM     12  C   UNL     1      -1.891  -2.159  24.259  0.00  0.00    -0.022 C 
ATOM     20  C   UNL     1      -4.145  -3.184  24.421  0.00  0.00    +0.039 C 
ENDROOT
BRANCH   6  10
ATOM     10  C   UNL     1      -0.412   1.242  25.397  0.00  0.00    -0.013 C 
ATOM     16  C   UNL     1      -0.075   2.348  24.401  0.00  0.00    +0.007 C 
ATOM     17  C   UNL     1      -0.904   1.833  26.714  0.00  0.00    +0.007 C 
ENDBRANCH   6  10
BRANCH   9  13
ATOM     13  C   UNL     1      -4.621  -0.011  24.271  0.00  0.00    +0.103 C 
BRANCH  13  21
ATOM      1  O   UNL     1      -6.005   1.406  25.659  0.00  0.00    -0.276 OA
ATOM      4  N   UNL     1      -4.354   2.364  24.332  0.00  0.00    -0.312 N 
ATOM     21  C   UNL     1      -5.090   1.306  24.846  0.00  0.00    +0.214 C 
ATOM     32  H   UNL     1      -3.589   2.170  23.694  0.00  0.00    +0.149 HD
BRANCH   4  15
ATOM     15  C   UNL     1      -4.587   3.738  24.704  0.00  0.00    +0.073 C 
ATOM     18  C   UNL     1      -3.577   4.674  24.053  0.00  0.00    +0.022 C 
ATOM     19  C   UNL     1      -4.353   3.971  26.193  0.00  0.00    +0.022 C 
ATOM     22  C   UNL     1      -2.341   4.585  24.946  0.00  0.00    +0.002 C 
ATOM     23  C   UNL     1      -2.845   4.174  26.329  0.00  0.00    +0.002 C 
ENDBRANCH   4  15
ENDBRANCH  13  21
ENDBRANCH   9  13
BRANCH   7  14
ATOM     14  C   UNL     1      -0.018  -0.967  23.144  0.00  0.00    +0.112 C 
BRANCH  14   5
ATOM      2  O   UNL     1       2.009  -0.241  21.244  0.00  0.00    -0.270 OA
ATOM      5  N   UNL     1       1.311  -0.529  23.438  0.00  0.00    -0.311 N 
ATOM     24  C   UNL     1       2.236  -0.196  22.450  0.00  0.00    +0.248 C 
ATOM     33  H   UNL     1       1.575  -0.450  24.415  0.00  0.00    +0.149 HD
BRANCH  24  25
ATOM     25  C   UNL     1       3.585   0.215  22.920  0.00  0.00    +0.078 A 
ATOM     26  C   UNL     1       4.393  -0.667  23.638  0.00  0.00    +0.132 A 
ATOM     27  C   UNL     1       4.041   1.502  22.634  0.00  0.00    +0.017 A 
ATOM     28  C   UNL     1       5.655  -0.262  24.070  0.00  0.00    +0.046 A 
ATOM     29  C   UNL     1       5.303   1.907  23.065  0.00  0.00    +0.001 A 
ATOM     30  C   UNL     1       6.111   1.025  23.784  0.00  0.00    +0.004 A 
BRANCH  26   3
ATOM      3  O   UNL     1       3.965  -1.929  23.927  0.00  0.00    -0.494 OA
ATOM     31  C   UNL     1       4.954  -2.956  23.953  0.00  0.00    +0.277 C 
ENDBRANCH  26   3
ENDBRANCH  24  25
ENDBRANCH  14   5
ENDBRANCH   7  14
TORSDOF 8
ENDMDL
MODEL 5
REMARK VINA RESULT:       1.1      2.523      4.910
REMARK  Name = 38027325
REMARK  12 active torsions:
REMARK  status: ('A' for Active; 'I' for Inactive)
REMARK    1  A    between atoms: O_3  and  C_26
REMARK    2  A    between atoms: O_3  and  C_31
REMARK    3  A    between atoms: N_4  and  C_15
REMARK    4  A    between atoms: N_5  and  C_14
REMARK    5  A    between atoms: C_6  and  C_10
REMARK    6  A    between atoms: C_7  and  C_14
REMARK    7  A    between atoms: C_9  and  C_13
REMARK    8  A    between atoms: C_10  and  C_16
REMARK    9  A    between atoms: C_10  and  C_17
REMARK   10  A    between atoms: C_11  and  C_20
REMARK   11  A    between atoms: C_13  and  C_21
REMARK   12  A    between atoms: C_24  and  C_25
REMARK                            x       y       z     vdW  Elec       q    Type
REMARK                         _______ _______ _______ _____ _____    ______ ____
ROOT
ATOM      6  C   UNL     1      -2.412   4.264  24.868  0.00  0.00    +0.000 C 
ATOM      7  C   UNL     1      -2.901   3.652  26.205  0.00  0.00    +0.032 C 
ATOM      8  C   UNL     1      -3.600   4.823  24.070  0.00  0.00    +0.012 C 
ATOM      9  C   UNL     1      -4.650   3.741  23.755  0.00  0.00    +0.023 C 
ATOM     11  C   UNL     1      -4.987   2.911  24.978  0.00  0.00    -0.073 C 
ATOM     12  C   UNL     1      -4.200   2.894  26.067  0.00  0.00    -0.022 C 
ATOM     20  C   UNL     1      -6.274   2.136  24.935  0.00  0.00    +0.039 C 
ENDROOT
BRANCH   6  10
ATOM     10  C   UNL     1      -1.375   5.369  25.095  0.00  0.00    -0.013 C 
ATOM     16  C   UNL     1      -0.131   5.112  24.251  0.00  0.00    +0.007 C 
ATOM     17  C   UNL     1      -1.974   6.735  24.775  0.00  0.00    +0.007 C 
ENDBRANCH   6  10
BRANCH   9  13
ATOM     13  C   UNL     1      -4.195   2.849  22.594  0.00  0.00    +0.103 C 
BRANCH  13  21
ATOM      1  O   UNL     1      -1.912   2.081  22.820  0.00  0.00    -0.276 OA
ATOM      4  N   UNL     1      -3.648   0.764  23.628  0.00  0.00    -0.312 N 
ATOM     21  C   UNL     1      -3.108   1.883  23.012  0.00  0.00    +0.214 C 
ATOM     32  H   UNL     1      -4.651   0.715  23.775  0.00  0.00    +0.149 HD
BRANCH   4  15
ATOM     15  C   UNL     1      -2.843  -0.324  24.126  0.00  0.00    +0.073 C 
ATOM     18  C   UNL     1      -3.129  -1.622  23.382  0.00  0.00    +0.022 C 
ATOM     19  C   UNL     1      -3.194  -0.678  25.568  0.00  0.00    +0.022 C 
ATOM     22  C   UNL     1      -4.387  -2.176  24.047  0.00  0.00    +0.002 C 
ATOM     23  C   UNL     1      -4.405  -1.602  25.464  0.00  0.00    +0.002 C 
ENDBRANCH   4  15
ENDBRANCH  13  21
ENDBRANCH   9  13
BRANCH   7  14
ATOM     14  C   UNL     1      -1.836   2.732  26.813  0.00  0.00    +0.112 C 
BRANCH  14   5
ATOM      2  O   UNL     1       1.006   2.570  26.441  0.00  0.00    -0.270 OA
ATOM      5  N   UNL     1      -1.148   2.006  25.791  0.00  0.00    -0.311 N 
ATOM     24  C   UNL     1       0.241   1.981  25.682  0.00  0.00    +0.248 C 
ATOM     33  H   UNL     1      -1.710   1.478  25.130  0.00  0.00    +0.149 HD
BRANCH  24  25
ATOM     25  C   UNL     1       0.801   1.202  24.548  0.00  0.00    +0.078 A 
ATOM     26  C   UNL     1       0.453  -0.136  24.357  0.00  0.00    +0.132 A 
ATOM     27  C   UNL     1       1.688   1.823  23.669  0.00  0.00    +0.017 A 
ATOM     28  C   UNL     1       0.990  -0.850  23.286  0.00  0.00    +0.046 A 
ATOM     29  C   UNL     1       2.225   1.109  22.598  0.00  0.00    +0.001 A 
ATOM     30  C   UNL     1       1.876  -0.228  22.407  0.00  0.00    +0.004 A 
BRANCH  26   3
ATOM      3  O   UNL     1      -0.412  -0.761  25.205  0.00  0.00    -0.494 OA
ATOM     31  C   UNL     1      -0.172  -2.141  25.471  0.00  0.00    +0.277 C 
ENDBRANCH  26   3
ENDBRANCH  24  25
ENDBRANCH  14   5
ENDBRANCH   7  14
TORSDOF 8
ENDMDL
MODEL 6
REMARK VINA RESULT:       1.1      2.614      5.776
REMARK  Name = 38027325
REMARK  12 active torsions:
REMARK  status: ('A' for Active; 'I' for Inactive)
REMARK    1  A    between atoms: O_3  and  C_26
REMARK    2  A    between atoms: O_3  and  C_31
REMARK    3  A    between atoms: N_4  and  C_15
REMARK    4  A    between atoms: N_5  and  C_14
REMARK    5  A    between atoms: C_6  and  C_10
REMARK    6  A    between atoms: C_7  and  C_14
REMARK    7  A    between atoms: C_9  and  C_13
REMARK    8  A    between atoms: C_10  and  C_16
REMARK    9  A    between atoms: C_10  and  C_17
REMARK   10  A    between atoms: C_11  and  C_20
REMARK   11  A    between atoms: C_13  and  C_21
REMARK   12  A    between atoms: C_24  and  C_25
REMARK                            x       y       z     vdW  Elec       q    Type
REMARK                         _______ _______ _______ _____ _____    ______ ____
ROOT
ATOM      6  C   UNL     1       0.081   1.765  24.210  0.00  0.00    +0.000 C 
ATOM      7  C   UNL     1       0.199   2.154  25.705  0.00  0.00    +0.032 C 
ATOM      8  C   UNL     1       0.141   3.019  23.324  0.00  0.00    +0.012 C 
ATOM      9  C   UNL     1      -0.980   4.021  23.658  0.00  0.00    +0.023 C 
ATOM     11  C   UNL     1      -1.103   4.253  25.150  0.00  0.00    -0.073 C 
ATOM     12  C   UNL     1      -0.558   3.415  26.050  0.00  0.00    -0.022 C 
ATOM     20  C   UNL     1      -1.828   5.496  25.585  0.00  0.00    +0.039 C 
ENDROOT
BRANCH   6  10
ATOM     10  C   UNL     1       1.178   0.782  23.790  0.00  0.00    -0.013 C 
ATOM     16  C   UNL     1       0.640  -0.205  22.759  0.00  0.00    +0.007 C 
ATOM     17  C   UNL     1       2.386   1.533  23.241  0.00  0.00    +0.007 C 
ENDBRANCH   6  10
BRANCH   9  13
ATOM     13  C   UNL     1      -2.319   3.573  23.060  0.00  0.00    +0.103 C 
BRANCH  13  21
ATOM      1  O   UNL     1      -4.188   4.795  23.990  0.00  0.00    -0.276 OA
ATOM      4  N   UNL     1      -3.596   2.740  24.900  0.00  0.00    -0.312 N 
ATOM     21  C   UNL     1      -3.471   3.798  24.013  0.00  0.00    +0.214 C 
ATOM     32  H   UNL     1      -2.975   1.941  24.809  0.00  0.00    +0.149 HD
BRANCH   4  15
ATOM     15  C   UNL     1      -4.610   2.687  25.924  0.00  0.00    +0.073 C 
ATOM     18  C   UNL     1      -5.042   1.255  26.214  0.00  0.00    +0.022 C 
ATOM     19  C   UNL     1      -5.909   3.346  25.472  0.00  0.00    +0.022 C 
ATOM     22  C   UNL     1      -6.054   0.930  25.118  0.00  0.00    +0.002 C 
ATOM     23  C   UNL     1      -6.640   2.269  24.672  0.00  0.00    +0.002 C 
ENDBRANCH   4  15
ENDBRANCH  13  21
ENDBRANCH   9  13
BRANCH   7  14
ATOM     14  C   UNL     1      -0.272   1.012  26.612  0.00  0.00    +0.112 C 
BRANCH  14   5
ATOM      2  O   UNL     1      -0.169  -1.713  25.712  0.00  0.00    -0.270 OA
ATOM      5  N   UNL     1      -1.330   0.276  25.994  0.00  0.00    -0.311 N 
ATOM     24  C   UNL     1      -1.195  -1.050  25.585  0.00  0.00    +0.248 C 
ATOM     33  H   UNL     1      -2.220   0.749  25.866  0.00  0.00    +0.149 HD
BRANCH  24  25
ATOM     25  C   UNL     1      -2.381  -1.665  24.934  0.00  0.00    +0.078 A 
ATOM     26  C   UNL     1      -3.153  -0.943  24.024  0.00  0.00    +0.132 A 
ATOM     27  C   UNL     1      -2.719  -2.982  25.244  0.00  0.00    +0.017 A 
ATOM     28  C   UNL     1      -4.262  -1.538  23.424  0.00  0.00    +0.046 A 
ATOM     29  C   UNL     1      -3.827  -3.578  24.644  0.00  0.00    +0.001 A 
ATOM     30  C   UNL     1      -4.600  -2.856  23.733  0.00  0.00    +0.004 A 
BRANCH  26   3
ATOM      3  O   UNL     1      -2.839   0.346  23.708  0.00  0.00    -0.494 OA
ATOM     31  C   UNL     1      -2.851   0.694  22.325  0.00  0.00    +0.277 C 
ENDBRANCH  26   3
ENDBRANCH  24  25
ENDBRANCH  14   5
ENDBRANCH   7  14
TORSDOF 8
ENDMDL
MODEL 7
REMARK VINA RESULT:       1.4      3.122      6.733
REMARK  Name = 38027325
REMARK  12 active torsions:
REMARK  status: ('A' for Active; 'I' for Inactive)
REMARK    1  A    between atoms: O_3  and  C_26
REMARK    2  A    between atoms: O_3  and  C_31
REMARK    3  A    between atoms: N_4  and  C_15
REMARK    4  A    between atoms: N_5  and  C_14
REMARK    5  A    between atoms: C_6  and  C_10
REMARK    6  A    between atoms: C_7  and  C_14
REMARK    7  A    between atoms: C_9  and  C_13
REMARK    8  A    between atoms: C_10  and  C_16
REMARK    9  A    between atoms: C_10  and  C_17
REMARK   10  A    between atoms: C_11  and  C_20
REMARK   11  A    between atoms: C_13  and  C_21
REMARK   12  A    between atoms: C_24  and  C_25
REMARK                            x       y       z     vdW  Elec       q    Type
REMARK                         _______ _______ _______ _____ _____    ______ ____
ROOT
ATOM      6  C   UNL     1      -3.953   3.270  25.656  0.00  0.00    +0.000 C 
ATOM      7  C   UNL     1      -3.860   3.868  24.230  0.00  0.00    +0.032 C 
ATOM      8  C   UNL     1      -2.954   3.964  26.594  0.00  0.00    +0.012 C 
ATOM      9  C   UNL     1      -1.501   3.826  26.102  0.00  0.00    +0.023 C 
ATOM     11  C   UNL     1      -1.375   4.143  24.625  0.00  0.00    -0.073 C 
ATOM     12  C   UNL     1      -2.442   4.170  23.807  0.00  0.00    -0.022 C 
ATOM     20  C   UNL     1       0.001   4.473  24.119  0.00  0.00    +0.039 C 
ENDROOT
BRANCH   6  10
ATOM     10  C   UNL     1      -5.369   3.386  26.230  0.00  0.00    -0.013 C 
ATOM     16  C   UNL     1      -6.129   4.518  25.546  0.00  0.00    +0.007 C 
ATOM     17  C   UNL     1      -6.115   2.065  26.079  0.00  0.00    +0.007 C 
ENDBRANCH   6  10
BRANCH   9  13
ATOM     13  C   UNL     1      -0.940   2.434  26.415  0.00  0.00    +0.103 C 
BRANCH  13  21
ATOM      1  O   UNL     1       1.411   3.001  26.434  0.00  0.00    -0.276 OA
ATOM      4  N   UNL     1       0.477   1.925  28.271  0.00  0.00    -0.312 N 
ATOM     21  C   UNL     1       0.448   2.501  27.009  0.00  0.00    +0.214 C 
ATOM     32  H   UNL     1      -0.386   1.575  28.675  0.00  0.00    +0.149 HD
BRANCH   4  15
ATOM     15  C   UNL     1       1.674   1.847  29.072  0.00  0.00    +0.073 C 
ATOM     18  C   UNL     1       1.366   1.994  30.557  0.00  0.00    +0.022 C 
ATOM     19  C   UNL     1       2.615   3.016  28.805  0.00  0.00    +0.022 C 
ATOM     22  C   UNL     1       1.252   3.501  30.777  0.00  0.00    +0.002 C 
ATOM     23  C   UNL     1       2.088   4.154  29.677  0.00  0.00    +0.002 C 
ENDBRANCH   4  15
ENDBRANCH  13  21
ENDBRANCH   9  13
BRANCH   7  14
ATOM     14  C   UNL     1      -4.514   2.942  23.199  0.00  0.00    +0.112 C 
BRANCH  14   5
ATOM      2  O   UNL     1      -2.123   1.368  22.986  0.00  0.00    -0.270 OA
ATOM      5  N   UNL     1      -4.358   1.572  23.575  0.00  0.00    -0.311 N 
ATOM     24  C   UNL     1      -3.156   0.880  23.437  0.00  0.00    +0.248 C 
ATOM     33  H   UNL     1      -5.163   1.097  23.971  0.00  0.00    +0.149 HD
BRANCH  24  25
ATOM     25  C   UNL     1      -3.164  -0.548  23.848  0.00  0.00    +0.078 A 
ATOM     26  C   UNL     1      -2.049  -1.124  24.459  0.00  0.00    +0.132 A 
ATOM     27  C   UNL     1      -4.305  -1.316  23.615  0.00  0.00    +0.017 A 
ATOM     28  C   UNL     1      -2.077  -2.466  24.837  0.00  0.00    +0.046 A 
ATOM     29  C   UNL     1      -4.333  -2.657  23.994  0.00  0.00    +0.001 A 
ATOM     30  C   UNL     1      -3.219  -3.233  24.605  0.00  0.00    +0.004 A 
BRANCH  26   3
ATOM      3  O   UNL     1      -0.925  -0.391  24.695  0.00  0.00    -0.494 OA
ATOM     31  C   UNL     1       0.232  -0.717  23.928  0.00  0.00    +0.277 C 
ENDBRANCH  26   3
ENDBRANCH  24  25
ENDBRANCH  14   5
ENDBRANCH   7  14
TORSDOF 8
ENDMDL
MODEL 8
REMARK VINA RESULT:       1.5      3.151      6.653
REMARK  Name = 38027325
REMARK  12 active torsions:
REMARK  status: ('A' for Active; 'I' for Inactive)
REMARK    1  A    between atoms: O_3  and  C_26
REMARK    2  A    between atoms: O_3  and  C_31
REMARK    3  A    between atoms: N_4  and  C_15
REMARK    4  A    between atoms: N_5  and  C_14
REMARK    5  A    between atoms: C_6  and  C_10
REMARK    6  A    between atoms: C_7  and  C_14
REMARK    7  A    between atoms: C_9  and  C_13
REMARK    8  A    between atoms: C_10  and  C_16
REMARK    9  A    between atoms: C_10  and  C_17
REMARK   10  A    between atoms: C_11  and  C_20
REMARK   11  A    between atoms: C_13  and  C_21
REMARK   12  A    between atoms: C_24  and  C_25
REMARK                            x       y       z     vdW  Elec       q    Type
REMARK                         _______ _______ _______ _____ _____    ______ ____
ROOT
ATOM      6  C   UNL     1      -1.983   3.617  24.604  0.00  0.00    +0.000 C 
ATOM      7  C   UNL     1      -2.420   3.041  23.234  0.00  0.00    +0.032 C 
ATOM      8  C   UNL     1      -0.454   3.745  24.668  0.00  0.00    +0.012 C 
ATOM      9  C   UNL     1       0.252   2.391  24.461  0.00  0.00    +0.023 C 
ATOM     11  C   UNL     1      -0.315   1.636  23.276  0.00  0.00    -0.073 C 
ATOM     12  C   UNL     1      -1.504   1.949  22.733  0.00  0.00    -0.022 C 
ATOM     20  C   UNL     1       0.539   0.540  22.701  0.00  0.00    +0.039 C 
ENDROOT
BRANCH   6  10
ATOM     10  C   UNL     1      -2.628   4.979  24.879  0.00  0.00    -0.013 C 
ATOM     16  C   UNL     1      -3.455   4.928  26.160  0.00  0.00    +0.007 C 
ATOM     17  C   UNL     1      -1.561   6.066  24.967  0.00  0.00    +0.007 C 
ENDBRANCH   6  10
BRANCH   9  13
ATOM     13  C   UNL     1       0.196   1.538  25.734  0.00  0.00    +0.103 C 
BRANCH  13  21
ATOM      1  O   UNL     1      -0.840   2.847  27.484  0.00  0.00    -0.276 OA
ATOM      4  N   UNL     1       1.467   2.564  27.480  0.00  0.00    -0.312 N 
ATOM     21  C   UNL     1       0.183   2.385  26.986  0.00  0.00    +0.214 C 
ATOM     32  H   UNL     1       2.244   2.104  27.015  0.00  0.00    +0.149 HD
BRANCH   4  15
ATOM     15  C   UNL     1       1.754   3.333  28.665  0.00  0.00    +0.073 C 
ATOM     18  C   UNL     1       3.147   3.034  29.205  0.00  0.00    +0.022 C 
ATOM     19  C   UNL     1       0.850   2.941  29.830  0.00  0.00    +0.022 C 
ATOM     22  C   UNL     1       2.978   1.749  30.013  0.00  0.00    +0.002 C 
ATOM     23  C   UNL     1       1.514   1.712  30.448  0.00  0.00    +0.002 C 
ENDBRANCH   4  15
ENDBRANCH  13  21
ENDBRANCH   9  13
BRANCH   7  14
ATOM     14  C   UNL     1      -3.859   2.515  23.289  0.00  0.00    +0.112 C 
BRANCH  14   5
ATOM      2  O   UNL     1      -3.291   0.876  25.577  0.00  0.00    -0.270 OA
ATOM      5  N   UNL     1      -3.876   1.086  23.342  0.00  0.00    -0.311 N 
ATOM     24  C   UNL     1      -3.586   0.366  24.500  0.00  0.00    +0.248 C 
ATOM     33  H   UNL     1      -4.126   0.587  22.494  0.00  0.00    +0.149 HD
BRANCH  24  25
ATOM     25  C   UNL     1      -3.620  -1.115  24.383  0.00  0.00    +0.078 A 
ATOM     26  C   UNL     1      -2.581  -1.897  24.887  0.00  0.00    +0.132 A 
ATOM     27  C   UNL     1      -4.710  -1.722  23.759  0.00  0.00    +0.017 A 
ATOM     28  C   UNL     1      -2.631  -3.286  24.767  0.00  0.00    +0.046 A 
ATOM     29  C   UNL     1      -4.762  -3.110  23.640  0.00  0.00    +0.001 A 
ATOM     30  C   UNL     1      -3.722  -3.893  24.143  0.00  0.00    +0.004 A 
BRANCH  26   3
ATOM      3  O   UNL     1      -1.507  -1.323  25.499  0.00  0.00    -0.494 OA
ATOM     31  C   UNL     1      -0.242  -1.956  25.315  0.00  0.00    +0.277 C 
ENDBRANCH  26   3
ENDBRANCH  24  25
ENDBRANCH  14   5
ENDBRANCH   7  14
TORSDOF 8
ENDMDL
MODEL 9
REMARK VINA RESULT:       1.6      2.928      6.974
REMARK  Name = 38027325
REMARK  12 active torsions:
REMARK  status: ('A' for Active; 'I' for Inactive)
REMARK    1  A    between atoms: O_3  and  C_26
REMARK    2  A    between atoms: O_3  and  C_31
REMARK    3  A    between atoms: N_4  and  C_15
REMARK    4  A    between atoms: N_5  and  C_14
REMARK    5  A    between atoms: C_6  and  C_10
REMARK    6  A    between atoms: C_7  and  C_14
REMARK    7  A    between atoms: C_9  and  C_13
REMARK    8  A    between atoms: C_10  and  C_16
REMARK    9  A    between atoms: C_10  and  C_17
REMARK   10  A    between atoms: C_11  and  C_20
REMARK   11  A    between atoms: C_13  and  C_21
REMARK   12  A    between atoms: C_24  and  C_25
REMARK                            x       y       z     vdW  Elec       q    Type
REMARK                         _______ _______ _______ _____ _____    ______ ____
ROOT
ATOM      6  C   UNL     1      -4.169   3.390  25.285  0.00  0.00    +0.000 C 
ATOM      7  C   UNL     1      -3.704   3.612  23.824  0.00  0.00    +0.032 C 
ATOM      8  C   UNL     1      -3.476   4.388  26.225  0.00  0.00    +0.012 C 
ATOM      9  C   UNL     1      -1.942   4.264  26.177  0.00  0.00    +0.023 C 
ATOM     11  C   UNL     1      -1.426   4.205  24.754  0.00  0.00    -0.073 C 
ATOM     12  C   UNL     1      -2.230   3.925  23.714  0.00  0.00    -0.022 C 
ATOM     20  C   UNL     1       0.030   4.520  24.548  0.00  0.00    +0.039 C 
ENDROOT
BRANCH   6  10
ATOM     10  C   UNL     1      -5.689   3.518  25.423  0.00  0.00    -0.013 C 
ATOM     16  C   UNL     1      -6.202   2.598  26.527  0.00  0.00    +0.007 C 
ATOM     17  C   UNL     1      -6.079   4.966  25.701  0.00  0.00    +0.007 C 
ENDBRANCH   6  10
BRANCH   9  13
ATOM     13  C   UNL     1      -1.459   3.054  26.987  0.00  0.00    +0.103 C 
BRANCH  13  21
ATOM      1  O   UNL     1       0.917   2.838  26.588  0.00  0.00    -0.276 OA
ATOM      4  N   UNL     1      -0.553   1.339  25.590  0.00  0.00    -0.312 N 
ATOM     21  C   UNL     1      -0.222   2.425  26.387  0.00  0.00    +0.214 C 
ATOM     32  H   UNL     1      -1.525   1.054  25.521  0.00  0.00    +0.149 HD
BRANCH   4  15
ATOM     15  C   UNL     1       0.430   0.550  24.889  0.00  0.00    +0.073 C 
ATOM     18  C   UNL     1       0.633   1.044  23.462  0.00  0.00    +0.022 C 
ATOM     19  C   UNL     1      -0.035  -0.888  24.685  0.00  0.00    +0.022 C 
ATOM     22  C   UNL     1      -0.514   0.417  22.672  0.00  0.00    +0.002 C 
ATOM     23  C   UNL     1      -0.914  -0.845  23.436  0.00  0.00    +0.002 C 
ENDBRANCH   4  15
ENDBRANCH  13  21
ENDBRANCH   9  13
BRANCH   7  14
ATOM     14  C   UNL     1      -4.035   2.398  22.948  0.00  0.00    +0.112 C 
BRANCH  14   5
ATOM      2  O   UNL     1      -5.738   0.522  24.299  0.00  0.00    -0.270 OA
ATOM      5  N   UNL     1      -3.631   1.185  23.588  0.00  0.00    -0.311 N 
ATOM     24  C   UNL     1      -4.527   0.327  24.224  0.00  0.00    +0.248 C 
ATOM     33  H   UNL     1      -2.645   0.943  23.558  0.00  0.00    +0.149 HD
BRANCH  24  25
ATOM     25  C   UNL     1      -3.946  -0.880  24.865  0.00  0.00    +0.078 A 
ATOM     26  C   UNL     1      -3.970  -2.116  24.219  0.00  0.00    +0.132 A 
ATOM     27  C   UNL     1      -3.370  -0.767  26.131  0.00  0.00    +0.017 A 
ATOM     28  C   UNL     1      -3.419  -3.238  24.838  0.00  0.00    +0.046 A 
ATOM     29  C   UNL     1      -2.819  -1.888  26.750  0.00  0.00    +0.001 A 
ATOM     30  C   UNL     1      -2.843  -3.124  26.103  0.00  0.00    +0.004 A 
BRANCH  26   3
ATOM      3  O   UNL     1      -4.528  -2.248  22.982  0.00  0.00    -0.494 OA
ATOM     31  C   UNL     1      -4.976  -3.549  22.610  0.00  0.00    +0.277 C 
ENDBRANCH  26   3
ENDBRANCH  24  25
ENDBRANCH  14   5
ENDBRANCH   7  14
TORSDOF 8
ENDMDL
MODEL 10
REMARK VINA RESULT:       1.6      1.900      4.509
REMARK  Name = 38027325
REMARK  12 active torsions:
REMARK  status: ('A' for Active; 'I' for Inactive)
REMARK    1  A    between atoms: O_3  and  C_26
REMARK    2  A    between atoms: O_3  and  C_31
REMARK    3  A    between atoms: N_4  and  C_15
REMARK    4  A    between atoms: N_5  and  C_14
REMARK    5  A    between atoms: C_6  and  C_10
REMARK    6  A    between atoms: C_7  and  C_14
REMARK    7  A    between atoms: C_9  and  C_13
REMARK    8  A    between atoms: C_10  and  C_16
REMARK    9  A    between atoms: C_10  and  C_17
REMARK   10  A    between atoms: C_11  and  C_20
REMARK   11  A    between atoms: C_13  and  C_21
REMARK   12  A    between atoms: C_24  and  C_25
REMARK                            x       y       z     vdW  Elec       q    Type
REMARK                         _______ _______ _______ _____ _____    ______ ____
ROOT
ATOM      6  C   UNL     1      -1.816   3.915  24.657  0.00  0.00    +0.000 C 
ATOM      7  C   UNL     1      -1.994   3.415  26.113  0.00  0.00    +0.032 C 
ATOM      8  C   UNL     1      -3.098   4.606  24.168  0.00  0.00    +0.012 C 
ATOM      9  C   UNL     1      -4.319   3.668  24.215  0.00  0.00    +0.023 C 
ATOM     11  C   UNL     1      -4.410   2.928  25.535  0.00  0.00    -0.073 C 
ATOM     12  C   UNL     1      -3.365   2.837  26.375  0.00  0.00    -0.022 C 
ATOM     20  C   UNL     1      -5.745   2.334  25.887  0.00  0.00    +0.039 C 
ENDROOT
BRANCH   6  10
ATOM     10  C   UNL     1      -0.629   4.875  24.527  0.00  0.00    -0.013 C 
ATOM     16  C   UNL     1      -0.034   4.799  23.125  0.00  0.00    +0.007 C 
ATOM     17  C   UNL     1      -1.059   6.301  24.856  0.00  0.00    +0.007 C 
ENDBRANCH   6  10
BRANCH   9  13
ATOM     13  C   UNL     1      -4.309   2.687  23.036  0.00  0.00    +0.103 C 
BRANCH  13  21
ATOM      1  O   UNL     1      -2.061   1.877  22.661  0.00  0.00    -0.276 OA
ATOM      4  N   UNL     1      -3.576   0.553  23.824  0.00  0.00    -0.312 N 
ATOM     21  C   UNL     1      -3.177   1.689  23.136  0.00  0.00    +0.214 C 
ATOM     32  H   UNL     1      -4.513   0.513  24.213  0.00  0.00    +0.149 HD
BRANCH   4  15
ATOM     15  C   UNL     1      -2.700  -0.567  24.067  0.00  0.00    +0.073 C 
ATOM     18  C   UNL     1      -3.348  -1.885  23.663  0.00  0.00    +0.022 C 
ATOM     19  C   UNL     1      -2.430  -0.765  25.554  0.00  0.00    +0.022 C 
ATOM     22  C   UNL     1      -4.237  -2.254  24.848  0.00  0.00    +0.002 C 
ATOM     23  C   UNL     1      -3.623  -1.569  26.068  0.00  0.00    +0.002 C 
ENDBRANCH   4  15
ENDBRANCH  13  21
ENDBRANCH   9  13
BRANCH   7  14
ATOM     14  C   UNL     1      -0.925   2.378  26.475  0.00  0.00    +0.112 C 
BRANCH  14   5
ATOM      2  O   UNL     1       1.680   2.253  25.274  0.00  0.00    -0.270 OA
ATOM      5  N   UNL     1      -0.549   1.613  25.327  0.00  0.00    -0.311 N 
ATOM     24  C   UNL     1       0.743   1.610  24.807  0.00  0.00    +0.248 C 
ATOM     33  H   UNL     1      -1.264   1.040  24.889  0.00  0.00    +0.149 HD
BRANCH  24  25
ATOM     25  C   UNL     1       0.966   0.783  23.592  0.00  0.00    +0.078 A 
ATOM     26  C   UNL     1       2.220   0.726  22.984  0.00  0.00    +0.132 A 
ATOM     27  C   UNL     1      -0.100   0.057  23.060  0.00  0.00    +0.017 A 
ATOM     28  C   UNL     1       2.408  -0.055  21.845  0.00  0.00    +0.046 A 
ATOM     29  C   UNL     1       0.087  -0.725  21.921  0.00  0.00    +0.001 A 
ATOM     30  C   UNL     1       1.342  -0.781  21.313  0.00  0.00    +0.004 A 
BRANCH  26   3
ATOM      3  O   UNL     1       3.274   1.428  23.489  0.00  0.00    -0.494 OA
ATOM     31  C   UNL     1       4.578   0.918  23.220  0.00  0.00    +0.277 C 
ENDBRANCH  26   3
ENDBRANCH  24  25
ENDBRANCH  14   5
ENDBRANCH   7  14
TORSDOF 8
ENDMDL
