MODEL 1
REMARK VINA RESULT:       4.9      0.000      0.000
REMARK  Name = 51136858
REMARK  5 active torsions:
REMARK  status: ('A' for Active; 'I' for Inactive)
REMARK    1  A    between atoms: N_2  and  C_13
REMARK    2  A    between atoms: N_4  and  C_22
REMARK    3  A    between atoms: C_9  and  C_14
REMARK    4  A    between atoms: C_13  and  C_19
REMARK    5  A    between atoms: C_21  and  C_24
REMARK                            x       y       z     vdW  Elec       q    Type
REMARK                         _______ _______ _______ _____ _____    ______ ____
ROOT
ATOM      1  O   UNL     1      -3.758   2.842  22.640  0.00  0.00    -0.336 OA
ATOM      5  N   UNL     1      -2.770   1.685  24.284  0.00  0.00    -0.190 NA
ATOM      6  N   UNL     1      -2.424   2.673  22.250  0.00  0.00    -0.056 NA
ATOM     14  C   UNL     1      -3.877   2.232  23.848  0.00  0.00    +0.245 A 
ATOM     21  C   UNL     1      -1.906   1.982  23.270  0.00  0.00    +0.204 A 
ENDROOT
BRANCH  21  24
ATOM      3  N   UNL     1       3.399   0.320  23.371  0.00  0.00    -0.313 N 
ATOM      4  N   UNL     1       6.089  -0.625  23.197  0.00  0.00    -0.302 NA
ATOM      7  N   UNL     1       1.148  -0.071  22.751  0.00  0.00    -0.240 NA
ATOM     15  C   UNL     1       3.677  -1.122  23.411  0.00  0.00    +0.122 C 
ATOM     16  C   UNL     1       4.428   1.146  22.733  0.00  0.00    +0.122 C 
ATOM     17  C   UNL     1       5.085  -1.382  23.953  0.00  0.00    +0.103 C 
ATOM     18  C   UNL     1       5.812   0.813  23.296  0.00  0.00    +0.103 C 
ATOM     20  C   UNL     1       2.063   0.731  23.342  0.00  0.00    +0.121 A 
ATOM     22  C   UNL     1       7.434  -0.924  23.688  0.00  0.00    +0.105 C 
ATOM     24  C   UNL     1      -0.533   1.574  23.308  0.00  0.00    +0.041 A 
ATOM     26  C   UNL     1       1.760   1.949  23.929  0.00  0.00    +0.044 A 
ATOM     27  C   UNL     1       0.436   2.371  23.907  0.00  0.00    +0.016 A 
ATOM     28  C   UNL     1      -0.128   0.372  22.750  0.00  0.00    +0.124 A 
ENDBRANCH  21  24
BRANCH  14   9
ATOM      2  N   UNL     1      -5.380   1.311  25.606  0.00  0.00    -0.287 NA
ATOM      9  C   UNL     1      -5.246   2.274  24.494  0.00  0.00    +0.146 C 
ATOM     10  C   UNL     1      -5.566   3.643  25.121  0.00  0.00    +0.030 C 
ATOM     11  C   UNL     1      -5.925   3.342  26.569  0.00  0.00    +0.017 C 
ATOM     12  C   UNL     1      -6.348   1.887  26.538  0.00  0.00    +0.085 C 
BRANCH   2  13
ATOM     13  C   UNL     1      -5.768  -0.023  25.167  0.00  0.00    +0.121 C 
BRANCH  13  19
ATOM      8  N   UNL     1      -2.374  -1.616  25.694  0.00  0.00    -0.263 NA
ATOM     19  C   UNL     1      -4.573  -0.919  24.972  0.00  0.00    -0.015 A 
ATOM     23  C   UNL     1      -4.537  -1.850  23.939  0.00  0.00    +0.008 A 
ATOM     25  C   UNL     1      -3.476  -0.842  25.814  0.00  0.00    +0.115 A 
ATOM     29  C   UNL     1      -3.420  -2.664  23.784  0.00  0.00    +0.020 A 
ATOM     30  C   UNL     1      -2.374  -2.509  24.680  0.00  0.00    +0.111 A 
ENDBRANCH  13  19
ENDBRANCH   2  13
ENDBRANCH  14   9
TORSDOF 4
ENDMDL
MODEL 2
REMARK VINA RESULT:       6.0      1.978      3.435
REMARK  Name = 51136858
REMARK  5 active torsions:
REMARK  status: ('A' for Active; 'I' for Inactive)
REMARK    1  A    between atoms: N_2  and  C_13
REMARK    2  A    between atoms: N_4  and  C_22
REMARK    3  A    between atoms: C_9  and  C_14
REMARK    4  A    between atoms: C_13  and  C_19
REMARK    5  A    between atoms: C_21  and  C_24
REMARK                            x       y       z     vdW  Elec       q    Type
REMARK                         _______ _______ _______ _____ _____    ______ ____
ROOT
ATOM      1  O   UNL     1      -4.258  -0.247  24.335  0.00  0.00    -0.336 OA
ATOM      5  N   UNL     1      -2.711   1.203  25.057  0.00  0.00    -0.190 NA
ATOM      6  N   UNL     1      -3.027  -0.727  23.869  0.00  0.00    -0.056 NA
ATOM     14  C   UNL     1      -3.982   0.891  25.023  0.00  0.00    +0.245 A 
ATOM     21  C   UNL     1      -2.164   0.182  24.335  0.00  0.00    +0.204 A 
ENDROOT
BRANCH  21  24
ATOM      3  N   UNL     1       3.303  -0.233  23.409  0.00  0.00    -0.313 N 
ATOM      4  N   UNL     1       6.061  -0.633  22.782  0.00  0.00    -0.302 NA
ATOM      7  N   UNL     1       1.199  -1.274  23.713  0.00  0.00    -0.240 NA
ATOM     15  C   UNL     1       4.006  -1.424  23.903  0.00  0.00    +0.122 C 
ATOM     16  C   UNL     1       3.886   0.399  22.221  0.00  0.00    +0.122 C 
ATOM     17  C   UNL     1       5.504  -1.146  24.039  0.00  0.00    +0.103 C 
ATOM     18  C   UNL     1       5.388   0.618  22.410  0.00  0.00    +0.103 C 
ATOM     20  C   UNL     1       1.927  -0.137  23.642  0.00  0.00    +0.121 A 
ATOM     22  C   UNL     1       7.503  -0.423  22.907  0.00  0.00    +0.105 C 
ATOM     24  C   UNL     1      -0.754   0.100  24.097  0.00  0.00    +0.041 A 
ATOM     26  C   UNL     1       1.395   1.135  23.787  0.00  0.00    +0.044 A 
ATOM     27  C   UNL     1       0.029   1.246  24.018  0.00  0.00    +0.016 A 
ATOM     28  C   UNL     1      -0.125  -1.126  23.940  0.00  0.00    +0.124 A 
ENDBRANCH  21  24
BRANCH  14   9
ATOM      2  N   UNL     1      -5.109   3.073  25.430  0.00  0.00    -0.287 NA
ATOM      9  C   UNL     1      -5.164   1.612  25.637  0.00  0.00    +0.146 C 
ATOM     10  C   UNL     1      -6.507   1.181  25.021  0.00  0.00    +0.030 C 
ATOM     11  C   UNL     1      -7.162   2.472  24.550  0.00  0.00    +0.017 C 
ATOM     12  C   UNL     1      -6.494   3.539  25.394  0.00  0.00    +0.085 C 
BRANCH   2  13
ATOM     13  C   UNL     1      -4.323   3.767  26.443  0.00  0.00    +0.121 C 
BRANCH  13  19
ATOM      8  N   UNL     1      -0.575   3.655  25.921  0.00  0.00    -0.263 NA
ATOM     19  C   UNL     1      -2.948   4.120  25.941  0.00  0.00    -0.015 A 
ATOM     23  C   UNL     1      -2.754   5.186  25.069  0.00  0.00    +0.008 A 
ATOM     25  C   UNL     1      -1.835   3.392  26.333  0.00  0.00    +0.115 A 
ATOM     29  C   UNL     1      -1.472   5.487  24.623  0.00  0.00    +0.020 A 
ATOM     30  C   UNL     1      -0.425   4.698  25.074  0.00  0.00    +0.111 A 
ENDBRANCH  13  19
ENDBRANCH   2  13
ENDBRANCH  14   9
TORSDOF 4
ENDMDL
MODEL 3
REMARK VINA RESULT:       7.3      1.800      3.479
REMARK  Name = 51136858
REMARK  5 active torsions:
REMARK  status: ('A' for Active; 'I' for Inactive)
REMARK    1  A    between atoms: N_2  and  C_13
REMARK    2  A    between atoms: N_4  and  C_22
REMARK    3  A    between atoms: C_9  and  C_14
REMARK    4  A    between atoms: C_13  and  C_19
REMARK    5  A    between atoms: C_21  and  C_24
REMARK                            x       y       z     vdW  Elec       q    Type
REMARK                         _______ _______ _______ _____ _____    ______ ____
ROOT
ATOM      1  O   UNL     1      -3.643   1.488  23.130  0.00  0.00    -0.336 OA
ATOM      5  N   UNL     1      -2.242   1.100  24.834  0.00  0.00    -0.190 NA
ATOM      6  N   UNL     1      -2.396   1.214  22.554  0.00  0.00    -0.056 NA
ATOM     14  C   UNL     1      -3.464   1.401  24.475  0.00  0.00    +0.245 A 
ATOM     21  C   UNL     1      -1.623   0.996  23.622  0.00  0.00    +0.204 A 
ENDROOT
BRANCH  21  24
ATOM      3  N   UNL     1       3.800  -0.173  23.238  0.00  0.00    -0.313 N 
ATOM      4  N   UNL     1       6.616  -0.654  23.255  0.00  0.00    -0.302 NA
ATOM      7  N   UNL     1       2.073   1.331  23.838  0.00  0.00    -0.240 NA
ATOM     15  C   UNL     1       4.738   0.935  23.016  0.00  0.00    +0.122 C 
ATOM     16  C   UNL     1       4.344  -1.328  23.959  0.00  0.00    +0.122 C 
ATOM     17  C   UNL     1       6.051   0.416  22.425  0.00  0.00    +0.103 C 
ATOM     18  C   UNL     1       5.670  -1.774  23.339  0.00  0.00    +0.103 C 
ATOM     20  C   UNL     1       2.438   0.129  23.338  0.00  0.00    +0.121 A 
ATOM     22  C   UNL     1       7.897  -1.104  22.711  0.00  0.00    +0.105 C 
ATOM     24  C   UNL     1      -0.231   0.672  23.513  0.00  0.00    +0.041 A 
ATOM     26  C   UNL     1       1.541  -0.838  22.911  0.00  0.00    +0.044 A 
ATOM     27  C   UNL     1       0.184  -0.553  23.005  0.00  0.00    +0.016 A 
ATOM     28  C   UNL     1       0.745   1.572  23.912  0.00  0.00    +0.124 A 
ENDBRANCH  21  24
BRANCH  14   9
ATOM      2  N   UNL     1      -5.072   3.082  25.359  0.00  0.00    -0.287 NA
ATOM      9  C   UNL     1      -4.683   1.657  25.336  0.00  0.00    +0.146 C 
ATOM     10  C   UNL     1      -5.935   0.919  24.828  0.00  0.00    +0.030 C 
ATOM     11  C   UNL     1      -6.991   2.002  24.653  0.00  0.00    +0.017 C 
ATOM     12  C   UNL     1      -6.519   3.113  25.568  0.00  0.00    +0.085 C 
BRANCH   2  13
ATOM     13  C   UNL     1      -4.355   3.856  26.365  0.00  0.00    +0.121 C 
BRANCH  13  19
ATOM      8  N   UNL     1      -0.583   3.637  26.144  0.00  0.00    -0.263 NA
ATOM     19  C   UNL     1      -2.938   4.145  25.947  0.00  0.00    -0.015 A 
ATOM     23  C   UNL     1      -2.653   5.138  25.016  0.00  0.00    +0.008 A 
ATOM     25  C   UNL     1      -1.876   3.429  26.477  0.00  0.00    +0.115 A 
ATOM     29  C   UNL     1      -1.334   5.381  24.649  0.00  0.00    +0.020 A 
ATOM     30  C   UNL     1      -0.344   4.610  25.237  0.00  0.00    +0.111 A 
ENDBRANCH  13  19
ENDBRANCH   2  13
ENDBRANCH  14   9
TORSDOF 4
ENDMDL
