MODEL 1
REMARK VINA RESULT:      -0.4      0.000      0.000
REMARK  Name = 38026613
REMARK  10 active torsions:
REMARK  status: ('A' for Active; 'I' for Inactive)
REMARK    1  A    between atoms: O_2  and  C_10
REMARK    2  A    between atoms: O_3  and  C_16
REMARK    3  A    between atoms: N_5  and  C_8
REMARK    4  A    between atoms: N_6  and  C_14
REMARK    5  A    between atoms: N_7  and  C_29
REMARK    6  A    between atoms: N_7  and  C_30
REMARK    7  A    between atoms: N_7  and  C_31
REMARK    8  A    between atoms: C_9  and  C_14
REMARK    9  A    between atoms: C_11  and  C_16
REMARK   10  A    between atoms: C_23  and  C_24
REMARK                            x       y       z     vdW  Elec       q    Type
REMARK                         _______ _______ _______ _____ _____    ______ ____
ROOT
ATOM      1  O   UNL     1       3.339   1.588  22.952  0.00  0.00    -0.365 OA
ATOM      8  C   UNL     1       1.620  -0.014  22.575  0.00  0.00    +0.118 C 
ATOM      9  C   UNL     1       1.922   1.381  23.140  0.00  0.00    +0.155 C 
ATOM     10  C   UNL     1       2.952  -0.735  22.710  0.00  0.00    +0.165 C 
ATOM     11  C   UNL     1       3.918   0.397  22.384  0.00  0.00    +0.174 C 
ENDROOT
BRANCH   8   5
ATOM      5  N   UNL     1       0.472  -0.711  23.154  0.00  0.00    -0.290 NA
ATOM     12  C   UNL     1       0.724  -1.053  24.559  0.00  0.00    +0.090 C 
ATOM     13  C   UNL     1      -0.742   0.117  23.041  0.00  0.00    +0.120 C 
ATOM     15  C   UNL     1      -0.394  -1.958  25.084  0.00  0.00    +0.051 C 
ATOM     17  C   UNL     1      -1.940  -0.479  23.743  0.00  0.00    -0.030 A 
ATOM     18  C   UNL     1      -1.770  -1.441  24.753  0.00  0.00    -0.042 A 
ATOM     19  C   UNL     1      -3.229  -0.025  23.432  0.00  0.00    +0.005 A 
ATOM     20  C   UNL     1      -2.892  -1.964  25.409  0.00  0.00    +0.004 A 
ATOM     21  C   UNL     1      -4.339  -0.543  24.098  0.00  0.00    +0.000 A 
ATOM     22  C   UNL     1      -4.171  -1.514  25.084  0.00  0.00    +0.000 A 
ENDBRANCH   8   5
BRANCH  10   2
ATOM      2  O   UNL     1       3.161  -1.197  24.038  0.00  0.00    -0.388 OA
ATOM     32  H   UNL     1       2.469  -1.833  24.272  0.00  0.00    +0.210 HD
ENDBRANCH  10   2
BRANCH   9  14
ATOM     14  C   UNL     1       1.624   1.599  24.618  0.00  0.00    +0.137 C 
BRANCH  14   6
ATOM      4  O   UNL     1       0.256   3.988  23.805  0.00  0.00    -0.270 OA
ATOM      6  N   UNL     1       0.241   1.905  24.827  0.00  0.00    -0.309 N 
ATOM     23  C   UNL     1      -0.342   3.095  24.396  0.00  0.00    +0.244 C 
ATOM     33  H   UNL     1      -0.298   1.232  25.358  0.00  0.00    +0.149 HD
BRANCH  23  24
ATOM     24  C   UNL     1      -1.783   3.273  24.712  0.00  0.00    +0.037 A 
ATOM     25  C   UNL     1      -2.179   3.577  26.015  0.00  0.00    +0.015 A 
ATOM     26  C   UNL     1      -2.741   3.133  23.707  0.00  0.00    +0.015 A 
ATOM     27  C   UNL     1      -3.531   3.744  26.312  0.00  0.00    +0.024 A 
ATOM     28  C   UNL     1      -4.093   3.299  24.006  0.00  0.00    +0.024 A 
ATOM     29  C   UNL     1      -4.488   3.605  25.308  0.00  0.00    +0.029 A 
BRANCH  29   7
ATOM      7  N   UNL     1      -5.856   3.774  25.608  0.00  0.00    -0.336 N 
ATOM     30  C   UNL     1      -6.470   5.084  25.524  0.00  0.00    +0.129 C 
ATOM     31  C   UNL     1      -6.668   2.638  25.998  0.00  0.00    +0.129 C 
ENDBRANCH  29   7
ENDBRANCH  23  24
ENDBRANCH  14   6
ENDBRANCH   9  14
BRANCH  11  16
ATOM     16  C   UNL     1       5.330   0.225  22.914  0.00  0.00    +0.190 C 
BRANCH  16   3
ATOM      3  O   UNL     1       5.335   0.499  24.305  0.00  0.00    -0.392 OA
ATOM     34  H   UNL     1       5.454   1.459  24.407  0.00  0.00    +0.210 HD
ENDBRANCH  16   3
ENDBRANCH  11  16
TORSDOF 8
ENDMDL
MODEL 2
REMARK VINA RESULT:       0.6      2.418      7.093
REMARK  Name = 38026613
REMARK  10 active torsions:
REMARK  status: ('A' for Active; 'I' for Inactive)
REMARK    1  A    between atoms: O_2  and  C_10
REMARK    2  A    between atoms: O_3  and  C_16
REMARK    3  A    between atoms: N_5  and  C_8
REMARK    4  A    between atoms: N_6  and  C_14
REMARK    5  A    between atoms: N_7  and  C_29
REMARK    6  A    between atoms: N_7  and  C_30
REMARK    7  A    between atoms: N_7  and  C_31
REMARK    8  A    between atoms: C_9  and  C_14
REMARK    9  A    between atoms: C_11  and  C_16
REMARK   10  A    between atoms: C_23  and  C_24
REMARK                            x       y       z     vdW  Elec       q    Type
REMARK                         _______ _______ _______ _____ _____    ______ ____
ROOT
ATOM      1  O   UNL     1      -3.022   4.766  25.621  0.00  0.00    -0.365 OA
ATOM      8  C   UNL     1      -2.975   2.405  25.920  0.00  0.00    +0.118 C 
ATOM      9  C   UNL     1      -2.146   3.624  25.496  0.00  0.00    +0.155 C 
ATOM     10  C   UNL     1      -4.402   2.842  25.628  0.00  0.00    +0.165 C 
ATOM     11  C   UNL     1      -4.331   4.313  26.019  0.00  0.00    +0.174 C 
ENDROOT
BRANCH   8   5
ATOM      5  N   UNL     1      -2.584   1.122  25.338  0.00  0.00    -0.290 NA
ATOM     12  C   UNL     1      -1.664   0.404  26.229  0.00  0.00    +0.090 C 
ATOM     13  C   UNL     1      -3.774   0.299  25.062  0.00  0.00    +0.120 C 
ATOM     15  C   UNL     1      -1.105  -0.831  25.515  0.00  0.00    +0.051 C 
ATOM     17  C   UNL     1      -3.439  -1.097  24.588  0.00  0.00    -0.030 A 
ATOM     18  C   UNL     1      -2.175  -1.654  24.844  0.00  0.00    -0.042 A 
ATOM     19  C   UNL     1      -4.415  -1.869  23.944  0.00  0.00    +0.005 A 
ATOM     20  C   UNL     1      -1.892  -2.958  24.419  0.00  0.00    +0.004 A 
ATOM     21  C   UNL     1      -4.128  -3.170  23.533  0.00  0.00    +0.000 A 
ATOM     22  C   UNL     1      -2.867  -3.713  23.768  0.00  0.00    +0.000 A 
ENDBRANCH   8   5
BRANCH  10   2
ATOM      2  O   UNL     1      -4.714   2.711  24.248  0.00  0.00    -0.388 OA
ATOM     32  H   UNL     1      -4.675   3.580  23.822  0.00  0.00    +0.210 HD
ENDBRANCH  10   2
BRANCH   9  14
ATOM     14  C   UNL     1      -1.606   3.621  24.070  0.00  0.00    +0.137 C 
BRANCH  14   6
ATOM      4  O   UNL     1      -1.161   1.203  22.589  0.00  0.00    -0.270 OA
ATOM      6  N   UNL     1      -0.381   2.886  23.983  0.00  0.00    -0.309 N 
ATOM     23  C   UNL     1      -0.254   1.716  23.238  0.00  0.00    +0.244 C 
ATOM     33  H   UNL     1       0.394   3.227  24.540  0.00  0.00    +0.149 HD
BRANCH  23  24
ATOM     24  C   UNL     1       1.077   1.057  23.271  0.00  0.00    +0.037 A 
ATOM     25  C   UNL     1       2.238   1.827  23.201  0.00  0.00    +0.015 A 
ATOM     26  C   UNL     1       1.167  -0.332  23.370  0.00  0.00    +0.015 A 
ATOM     27  C   UNL     1       3.488   1.209  23.232  0.00  0.00    +0.024 A 
ATOM     28  C   UNL     1       2.417  -0.949  23.400  0.00  0.00    +0.024 A 
ATOM     29  C   UNL     1       3.578  -0.179  23.331  0.00  0.00    +0.029 A 
BRANCH  29   7
ATOM      7  N   UNL     1       4.842  -0.804  23.363  0.00  0.00    -0.336 N 
ATOM     30  C   UNL     1       6.036  -0.063  23.013  0.00  0.00    +0.129 C 
ATOM     31  C   UNL     1       4.963  -2.195  23.752  0.00  0.00    +0.129 C 
ENDBRANCH  29   7
ENDBRANCH  23  24
ENDBRANCH  14   6
ENDBRANCH   9  14
BRANCH  11  16
ATOM     16  C   UNL     1      -5.384   5.208  25.391  0.00  0.00    +0.190 C 
BRANCH  16   3
ATOM      3  O   UNL     1      -6.668   4.741  25.767  0.00  0.00    -0.392 OA
ATOM     34  H   UNL     1      -6.628   4.526  26.715  0.00  0.00    +0.210 HD
ENDBRANCH  16   3
ENDBRANCH  11  16
TORSDOF 8
ENDMDL
MODEL 3
REMARK VINA RESULT:       1.9      2.562      7.096
REMARK  Name = 38026613
REMARK  10 active torsions:
REMARK  status: ('A' for Active; 'I' for Inactive)
REMARK    1  A    between atoms: O_2  and  C_10
REMARK    2  A    between atoms: O_3  and  C_16
REMARK    3  A    between atoms: N_5  and  C_8
REMARK    4  A    between atoms: N_6  and  C_14
REMARK    5  A    between atoms: N_7  and  C_29
REMARK    6  A    between atoms: N_7  and  C_30
REMARK    7  A    between atoms: N_7  and  C_31
REMARK    8  A    between atoms: C_9  and  C_14
REMARK    9  A    between atoms: C_11  and  C_16
REMARK   10  A    between atoms: C_23  and  C_24
REMARK                            x       y       z     vdW  Elec       q    Type
REMARK                         _______ _______ _______ _____ _____    ______ ____
ROOT
ATOM      1  O   UNL     1      -4.194  -2.060  24.429  0.00  0.00    -0.365 OA
ATOM      8  C   UNL     1      -4.232   0.145  25.324  0.00  0.00    +0.118 C 
ATOM      9  C   UNL     1      -4.590  -0.710  24.101  0.00  0.00    +0.155 C 
ATOM     10  C   UNL     1      -3.094  -0.634  25.966  0.00  0.00    +0.165 C 
ATOM     11  C   UNL     1      -3.562  -2.064  25.724  0.00  0.00    +0.174 C 
ENDROOT
BRANCH   8   5
ATOM      5  N   UNL     1      -3.953   1.557  25.065  0.00  0.00    -0.290 NA
ATOM     12  C   UNL     1      -4.833   2.417  25.866  0.00  0.00    +0.090 C 
ATOM     13  C   UNL     1      -2.541   1.863  25.354  0.00  0.00    +0.120 C 
ATOM     15  C   UNL     1      -4.671   3.877  25.430  0.00  0.00    +0.051 C 
ATOM     17  C   UNL     1      -2.212   3.334  25.244  0.00  0.00    -0.030 A 
ATOM     18  C   UNL     1      -3.229   4.300  25.324  0.00  0.00    -0.042 A 
ATOM     19  C   UNL     1      -0.878   3.744  25.123  0.00  0.00    +0.005 A 
ATOM     20  C   UNL     1      -2.902   5.660  25.245  0.00  0.00    +0.004 A 
ATOM     21  C   UNL     1      -0.560   5.100  25.055  0.00  0.00    +0.000 A 
ATOM     22  C   UNL     1      -1.571   6.057  25.113  0.00  0.00    +0.000 A 
ENDBRANCH   8   5
BRANCH  10   2
ATOM      2  O   UNL     1      -1.861  -0.397  25.301  0.00  0.00    -0.388 OA
ATOM     32  H   UNL     1      -1.176  -0.188  25.953  0.00  0.00    +0.210 HD
ENDBRANCH  10   2
BRANCH   9  14
ATOM     14  C   UNL     1      -3.909  -0.345  22.787  0.00  0.00    +0.137 C 
BRANCH  14   6
ATOM      4  O   UNL     1      -2.088   1.761  22.087  0.00  0.00    -0.270 OA
ATOM      6  N   UNL     1      -2.484  -0.368  22.922  0.00  0.00    -0.309 N 
ATOM     23  C   UNL     1      -1.674   0.704  22.554  0.00  0.00    +0.244 C 
ATOM     33  H   UNL     1      -2.072  -1.233  23.252  0.00  0.00    +0.149 HD
BRANCH  23  24
ATOM     24  C   UNL     1      -0.211   0.513  22.732  0.00  0.00    +0.037 A 
ATOM     25  C   UNL     1       0.470  -0.423  21.953  0.00  0.00    +0.015 A 
ATOM     26  C   UNL     1       0.482   1.269  23.679  0.00  0.00    +0.015 A 
ATOM     27  C   UNL     1       1.843  -0.602  22.119  0.00  0.00    +0.024 A 
ATOM     28  C   UNL     1       1.855   1.088  23.845  0.00  0.00    +0.024 A 
ATOM     29  C   UNL     1       2.536   0.153  23.065  0.00  0.00    +0.029 A 
BRANCH  29   7
ATOM      7  N   UNL     1       3.924  -0.028  23.233  0.00  0.00    -0.336 N 
ATOM     30  C   UNL     1       4.850   1.031  22.888  0.00  0.00    +0.129 C 
ATOM     31  C   UNL     1       4.443  -1.275  23.761  0.00  0.00    +0.129 C 
ENDBRANCH  29   7
ENDBRANCH  23  24
ENDBRANCH  14   6
ENDBRANCH   9  14
BRANCH  11  16
ATOM     16  C   UNL     1      -2.473  -3.121  25.747  0.00  0.00    +0.190 C 
BRANCH  16   3
ATOM      3  O   UNL     1      -1.684  -2.993  24.575  0.00  0.00    -0.392 OA
ATOM     34  H   UNL     1      -0.984  -2.347  24.771  0.00  0.00    +0.210 HD
ENDBRANCH  16   3
ENDBRANCH  11  16
TORSDOF 8
ENDMDL
MODEL 4
REMARK VINA RESULT:       3.0      2.133      7.326
REMARK  Name = 38026613
REMARK  10 active torsions:
REMARK  status: ('A' for Active; 'I' for Inactive)
REMARK    1  A    between atoms: O_2  and  C_10
REMARK    2  A    between atoms: O_3  and  C_16
REMARK    3  A    between atoms: N_5  and  C_8
REMARK    4  A    between atoms: N_6  and  C_14
REMARK    5  A    between atoms: N_7  and  C_29
REMARK    6  A    between atoms: N_7  and  C_30
REMARK    7  A    between atoms: N_7  and  C_31
REMARK    8  A    between atoms: C_9  and  C_14
REMARK    9  A    between atoms: C_11  and  C_16
REMARK   10  A    between atoms: C_23  and  C_24
REMARK                            x       y       z     vdW  Elec       q    Type
REMARK                         _______ _______ _______ _____ _____    ______ ____
ROOT
ATOM      1  O   UNL     1      -0.553   3.983  25.336  0.00  0.00    -0.365 OA
ATOM      8  C   UNL     1      -2.272   2.469  25.985  0.00  0.00    +0.118 C 
ATOM      9  C   UNL     1      -0.839   2.571  25.445  0.00  0.00    +0.155 C 
ATOM     10  C   UNL     1      -2.904   3.776  25.529  0.00  0.00    +0.165 C 
ATOM     11  C   UNL     1      -1.730   4.731  25.701  0.00  0.00    +0.174 C 
ENDROOT
BRANCH   8   5
ATOM      5  N   UNL     1      -3.012   1.260  25.629  0.00  0.00    -0.290 NA
ATOM     12  C   UNL     1      -3.911   1.513  24.496  0.00  0.00    +0.090 C 
ATOM     13  C   UNL     1      -2.082   0.164  25.306  0.00  0.00    +0.120 C 
ATOM     15  C   UNL     1      -4.823   0.303  24.273  0.00  0.00    +0.051 C 
ATOM     17  C   UNL     1      -2.774  -1.077  24.793  0.00  0.00    -0.030 A 
ATOM     18  C   UNL     1      -4.071  -1.002  24.258  0.00  0.00    -0.042 A 
ATOM     19  C   UNL     1      -2.097  -2.304  24.792  0.00  0.00    +0.005 A 
ATOM     20  C   UNL     1      -4.686  -2.160  23.765  0.00  0.00    +0.004 A 
ATOM     21  C   UNL     1      -2.714  -3.450  24.289  0.00  0.00    +0.000 A 
ATOM     22  C   UNL     1      -4.008  -3.378  23.779  0.00  0.00    +0.000 A 
ENDBRANCH   8   5
BRANCH  10   2
ATOM      2  O   UNL     1      -3.297   3.714  24.164  0.00  0.00    -0.388 OA
ATOM     32  H   UNL     1      -2.778   3.036  23.708  0.00  0.00    +0.210 HD
ENDBRANCH  10   2
BRANCH   9  14
ATOM     14  C   UNL     1      -0.577   1.949  24.079  0.00  0.00    +0.137 C 
BRANCH  14   6
ATOM      4  O   UNL     1       0.466  -0.419  22.835  0.00  0.00    -0.270 OA
ATOM      6  N   UNL     1       0.803   1.601  23.926  0.00  0.00    -0.309 N 
ATOM     23  C   UNL     1       1.221   0.425  23.306  0.00  0.00    +0.244 C 
ATOM     33  H   UNL     1       1.479   2.231  24.342  0.00  0.00    +0.149 HD
BRANCH  23  24
ATOM     24  C   UNL     1       2.689   0.198  23.250  0.00  0.00    +0.037 A 
ATOM     25  C   UNL     1       3.218  -1.037  23.624  0.00  0.00    +0.015 A 
ATOM     26  C   UNL     1       3.538   1.220  22.826  0.00  0.00    +0.015 A 
ATOM     27  C   UNL     1       4.595  -1.251  23.572  0.00  0.00    +0.024 A 
ATOM     28  C   UNL     1       4.915   1.006  22.774  0.00  0.00    +0.024 A 
ATOM     29  C   UNL     1       5.444  -0.230  23.147  0.00  0.00    +0.029 A 
BRANCH  29   7
ATOM      7  N   UNL     1       6.837  -0.446  23.094  0.00  0.00    -0.336 N 
ATOM     30  C   UNL     1       7.380  -1.545  22.322  0.00  0.00    +0.129 C 
ATOM     31  C   UNL     1       7.743   0.433  23.806  0.00  0.00    +0.129 C 
ENDBRANCH  29   7
ENDBRANCH  23  24
ENDBRANCH  14   6
ENDBRANCH   9  14
BRANCH  11  16
ATOM     16  C   UNL     1      -1.793   6.001  24.872  0.00  0.00    +0.190 C 
BRANCH  16   3
ATOM      3  O   UNL     1      -0.970   5.845  23.728  0.00  0.00    -0.392 OA
ATOM     34  H   UNL     1      -0.127   5.465  24.032  0.00  0.00    +0.210 HD
ENDBRANCH  16   3
ENDBRANCH  11  16
TORSDOF 8
ENDMDL
MODEL 5
REMARK VINA RESULT:       3.5      2.804      7.768
REMARK  Name = 38026613
REMARK  10 active torsions:
REMARK  status: ('A' for Active; 'I' for Inactive)
REMARK    1  A    between atoms: O_2  and  C_10
REMARK    2  A    between atoms: O_3  and  C_16
REMARK    3  A    between atoms: N_5  and  C_8
REMARK    4  A    between atoms: N_6  and  C_14
REMARK    5  A    between atoms: N_7  and  C_29
REMARK    6  A    between atoms: N_7  and  C_30
REMARK    7  A    between atoms: N_7  and  C_31
REMARK    8  A    between atoms: C_9  and  C_14
REMARK    9  A    between atoms: C_11  and  C_16
REMARK   10  A    between atoms: C_23  and  C_24
REMARK                            x       y       z     vdW  Elec       q    Type
REMARK                         _______ _______ _______ _____ _____    ______ ____
ROOT
ATOM      1  O   UNL     1      -2.112  -2.220  23.980  0.00  0.00    -0.365 OA
ATOM      8  C   UNL     1      -3.126  -0.164  23.341  0.00  0.00    +0.118 C 
ATOM      9  C   UNL     1      -1.796  -0.838  23.704  0.00  0.00    +0.155 C 
ATOM     10  C   UNL     1      -4.154  -1.025  24.058  0.00  0.00    +0.165 C 
ATOM     11  C   UNL     1      -3.537  -2.407  23.879  0.00  0.00    +0.174 C 
ENDROOT
BRANCH   8   5
ATOM      5  N   UNL     1      -3.218   1.271  23.609  0.00  0.00    -0.290 NA
ATOM     12  C   UNL     1      -4.217   1.544  24.650  0.00  0.00    +0.090 C 
ATOM     13  C   UNL     1      -1.904   1.803  24.010  0.00  0.00    +0.120 C 
ATOM     15  C   UNL     1      -4.447   3.053  24.768  0.00  0.00    +0.051 C 
ATOM     17  C   UNL     1      -1.951   3.252  24.438  0.00  0.00    -0.030 A 
ATOM     18  C   UNL     1      -3.163   3.838  24.843  0.00  0.00    -0.042 A 
ATOM     19  C   UNL     1      -0.769   4.003  24.493  0.00  0.00    +0.005 A 
ATOM     20  C   UNL     1      -3.181   5.175  25.260  0.00  0.00    +0.004 A 
ATOM     21  C   UNL     1      -0.796   5.330  24.920  0.00  0.00    +0.000 A 
ATOM     22  C   UNL     1      -2.001   5.917  25.300  0.00  0.00    +0.000 A 
ENDBRANCH   8   5
BRANCH  10   2
ATOM      2  O   UNL     1      -4.237  -0.695  25.438  0.00  0.00    -0.388 OA
ATOM     32  H   UNL     1      -5.054  -0.203  25.605  0.00  0.00    +0.210 HD
ENDBRANCH  10   2
BRANCH   9  14
ATOM     14  C   UNL     1      -1.061  -0.289  24.921  0.00  0.00    +0.137 C 
BRANCH  14   6
ATOM      4  O   UNL     1       0.271  -0.224  22.379  0.00  0.00    -0.270 OA
ATOM      6  N   UNL     1       0.352  -0.254  24.698  0.00  0.00    -0.309 N 
ATOM     23  C   UNL     1       0.915  -0.224  23.424  0.00  0.00    +0.244 C 
ATOM     33  H   UNL     1       0.944  -0.306  25.520  0.00  0.00    +0.149 HD
BRANCH  23  24
ATOM     24  C   UNL     1       2.400  -0.215  23.361  0.00  0.00    +0.037 A 
ATOM     25  C   UNL     1       3.070   0.900  22.856  0.00  0.00    +0.015 A 
ATOM     26  C   UNL     1       3.124  -1.321  23.806  0.00  0.00    +0.015 A 
ATOM     27  C   UNL     1       4.463   0.909  22.797  0.00  0.00    +0.024 A 
ATOM     28  C   UNL     1       4.517  -1.312  23.746  0.00  0.00    +0.024 A 
ATOM     29  C   UNL     1       5.187  -0.197  23.242  0.00  0.00    +0.029 A 
BRANCH  29   7
ATOM      7  N   UNL     1       6.596  -0.188  23.182  0.00  0.00    -0.336 N 
ATOM     30  C   UNL     1       7.303  -1.165  22.379  0.00  0.00    +0.129 C 
ATOM     31  C   UNL     1       7.356   0.802  23.919  0.00  0.00    +0.129 C 
ENDBRANCH  29   7
ENDBRANCH  23  24
ENDBRANCH  14   6
ENDBRANCH   9  14
BRANCH  11  16
ATOM     16  C   UNL     1      -3.978  -3.455  24.885  0.00  0.00    +0.190 C 
BRANCH  16   3
ATOM      3  O   UNL     1      -3.253  -3.269  26.089  0.00  0.00    -0.392 OA
ATOM     34  H   UNL     1      -2.308  -3.305  25.863  0.00  0.00    +0.210 HD
ENDBRANCH  16   3
ENDBRANCH  11  16
TORSDOF 8
ENDMDL
