MODEL 1
REMARK VINA RESULT:      -1.0      0.000      0.000
REMARK  Name = 11912978
REMARK  6 active torsions:
REMARK  status: ('A' for Active; 'I' for Inactive)
REMARK    1  A    between atoms: S_1  and  N_7
REMARK    2  A    between atoms: S_1  and  C_18
REMARK    3  A    between atoms: N_7  and  C_13
REMARK    4  A    between atoms: N_8  and  C_14
REMARK    5  A    between atoms: C_21  and  C_27
REMARK    6  A    between atoms: C_25  and  C_28
REMARK                            x       y       z     vdW  Elec       q    Type
REMARK                         _______ _______ _______ _____ _____    ______ ____
ROOT
ATOM      2  O   UNL     1      -1.574  -1.452  26.606  0.00  0.00    -0.370 OA
ATOM      3  O   UNL     1      -2.711  -2.163  23.788  0.00  0.00    -0.370 OA
ATOM     11  C   UNL     1      -1.968  -1.042  24.296  0.00  0.00    +0.170 C 
ATOM     12  C   UNL     1      -2.463  -0.773  25.704  0.00  0.00    +0.171 C 
ATOM     13  C   UNL     1      -0.515  -1.415  24.483  0.00  0.00    +0.133 C 
ATOM     14  C   UNL     1      -3.833  -1.408  25.741  0.00  0.00    +0.130 C 
ATOM     15  C   UNL     1      -0.521  -2.071  25.852  0.00  0.00    +0.183 C 
ATOM     16  C   UNL     1      -3.696  -2.555  24.756  0.00  0.00    +0.185 C 
ENDROOT
BRANCH  14   8
ATOM      8  N   UNL     1      -4.829  -0.467  25.278  0.00  0.00    -0.306 N 
ATOM      9  N   UNL     1      -3.306   1.318  25.287  0.00  0.00    -0.211 NA
ATOM     10  N   UNL     1      -5.596   1.649  24.616  0.00  0.00    -0.223 NA
ATOM     17  C   UNL     1      -4.569   0.873  25.053  0.00  0.00    +0.216 A 
ATOM     21  C   UNL     1      -3.088   2.629  25.059  0.00  0.00    +0.111 A 
ATOM     24  C   UNL     1      -5.309   2.951  24.407  0.00  0.00    +0.116 A 
ATOM     26  C   UNL     1      -4.061   3.502  24.614  0.00  0.00    +0.051 A 
ATOM     33  H   UNL     1      -5.759  -0.799  25.049  0.00  0.00    +0.149 HD
BRANCH  21  27
ATOM      6  O   UNL     1      -0.965   2.192  25.996  0.00  0.00    -0.461 OA
ATOM     27  C   UNL     1      -1.744   3.071  25.315  0.00  0.00    +0.153 A 
ATOM     29  C   UNL     1      -1.043   4.216  25.021  0.00  0.00    +0.051 A 
ATOM     30  C   UNL     1       0.254   4.029  25.556  0.00  0.00    +0.042 A 
ATOM     31  C   UNL     1       0.250   2.783  26.139  0.00  0.00    +0.196 A 
ENDBRANCH  21  27
ENDBRANCH  14   8
BRANCH  13   7
ATOM      7  N   UNL     1       0.330  -0.246  24.467  0.00  0.00    -0.182 NA
ATOM     32  H   UNL     1       0.263   0.391  25.270  0.00  0.00    +0.148 HD
BRANCH   7   1
ATOM      1  S   UNL     1       0.900   0.364  22.987  0.00  0.00    +0.059 S 
ATOM      4  O   UNL     1       0.642   1.789  22.922  0.00  0.00    -0.153 OA
ATOM      5  O   UNL     1       0.454  -0.509  21.919  0.00  0.00    -0.153 OA
BRANCH   1  18
ATOM     18  C   UNL     1       2.646   0.132  23.146  0.00  0.00    +0.105 A 
ATOM     19  C   UNL     1       3.498   1.172  22.818  0.00  0.00    +0.029 A 
ATOM     20  C   UNL     1       3.127  -1.084  23.595  0.00  0.00    +0.029 A 
ATOM     22  C   UNL     1       4.875   0.990  22.944  0.00  0.00    +0.005 A 
ATOM     23  C   UNL     1       4.504  -1.266  23.722  0.00  0.00    +0.005 A 
ATOM     25  C   UNL     1       5.378  -0.229  23.397  0.00  0.00    -0.050 A 
ATOM     28  C   UNL     1       6.850  -0.424  23.532  0.00  0.00    +0.044 C 
ENDBRANCH   1  18
ENDBRANCH   7   1
ENDBRANCH  13   7
TORSDOF 5
ENDMDL
MODEL 2
REMARK VINA RESULT:      -0.7      1.557      3.996
REMARK  Name = 11912978
REMARK  6 active torsions:
REMARK  status: ('A' for Active; 'I' for Inactive)
REMARK    1  A    between atoms: S_1  and  N_7
REMARK    2  A    between atoms: S_1  and  C_18
REMARK    3  A    between atoms: N_7  and  C_13
REMARK    4  A    between atoms: N_8  and  C_14
REMARK    5  A    between atoms: C_21  and  C_27
REMARK    6  A    between atoms: C_25  and  C_28
REMARK                            x       y       z     vdW  Elec       q    Type
REMARK                         _______ _______ _______ _____ _____    ______ ____
ROOT
ATOM      2  O   UNL     1      -1.157   2.731  23.143  0.00  0.00    -0.370 OA
ATOM      3  O   UNL     1      -0.813   4.076  25.938  0.00  0.00    -0.370 OA
ATOM     11  C   UNL     1      -1.164   2.745  25.522  0.00  0.00    +0.170 C 
ATOM     12  C   UNL     1      -2.024   2.873  24.280  0.00  0.00    +0.171 C 
ATOM     13  C   UNL     1       0.063   2.003  25.044  0.00  0.00    +0.133 C 
ATOM     14  C   UNL     1      -2.568   4.280  24.352  0.00  0.00    +0.130 C 
ATOM     15  C   UNL     1       0.177   2.457  23.600  0.00  0.00    +0.183 C 
ATOM     16  C   UNL     1      -1.469   5.026  25.086  0.00  0.00    +0.185 C 
ENDROOT
BRANCH  14   8
ATOM      8  N   UNL     1      -3.791   4.301  25.125  0.00  0.00    -0.306 N 
ATOM      9  N   UNL     1      -4.038   1.971  25.003  0.00  0.00    -0.211 NA
ATOM     10  N   UNL     1      -5.644   3.326  26.181  0.00  0.00    -0.223 NA
ATOM     17  C   UNL     1      -4.512   3.165  25.446  0.00  0.00    +0.216 A 
ATOM     21  C   UNL     1      -4.766   0.885  25.334  0.00  0.00    +0.111 A 
ATOM     24  C   UNL     1      -6.324   2.198  26.477  0.00  0.00    +0.116 A 
ATOM     26  C   UNL     1      -5.928   0.938  26.076  0.00  0.00    +0.051 A 
ATOM     33  H   UNL     1      -4.123   5.180  25.506  0.00  0.00    +0.149 HD
BRANCH  21  27
ATOM      6  O   UNL     1      -3.770  -1.203  25.808  0.00  0.00    -0.461 OA
ATOM     27  C   UNL     1      -4.240  -0.364  24.851  0.00  0.00    +0.153 A 
ATOM     29  C   UNL     1      -4.098  -0.919  23.602  0.00  0.00    +0.051 A 
ATOM     30  C   UNL     1      -3.500  -2.186  23.804  0.00  0.00    +0.042 A 
ATOM     31  C   UNL     1      -3.320  -2.312  25.162  0.00  0.00    +0.196 A 
ENDBRANCH  21  27
ENDBRANCH  14   8
BRANCH  13   7
ATOM      7  N   UNL     1      -0.125   0.575  25.130  0.00  0.00    -0.182 NA
ATOM     32  H   UNL     1      -0.041   0.146  26.060  0.00  0.00    +0.148 HD
BRANCH   7   1
ATOM      1  S   UNL     1       0.132  -0.395  23.759  0.00  0.00    +0.059 S 
ATOM      4  O   UNL     1      -0.484   0.230  22.604  0.00  0.00    -0.153 OA
ATOM      5  O   UNL     1      -0.177  -1.771  24.095  0.00  0.00    -0.153 OA
BRANCH   1  18
ATOM     18  C   UNL     1       1.885  -0.293  23.563  0.00  0.00    +0.105 A 
ATOM     19  C   UNL     1       2.440   0.857  23.031  0.00  0.00    +0.029 A 
ATOM     20  C   UNL     1       2.671  -1.366  23.946  0.00  0.00    +0.029 A 
ATOM     22  C   UNL     1       3.824   0.938  22.877  0.00  0.00    +0.005 A 
ATOM     23  C   UNL     1       4.055  -1.285  23.793  0.00  0.00    +0.005 A 
ATOM     25  C   UNL     1       4.632  -0.133  23.259  0.00  0.00    -0.050 A 
ATOM     28  C   UNL     1       6.111  -0.047  23.095  0.00  0.00    +0.044 C 
ENDBRANCH   1  18
ENDBRANCH   7   1
ENDBRANCH  13   7
TORSDOF 5
ENDMDL
MODEL 3
REMARK VINA RESULT:       1.0      2.590      6.944
REMARK  Name = 11912978
REMARK  6 active torsions:
REMARK  status: ('A' for Active; 'I' for Inactive)
REMARK    1  A    between atoms: S_1  and  N_7
REMARK    2  A    between atoms: S_1  and  C_18
REMARK    3  A    between atoms: N_7  and  C_13
REMARK    4  A    between atoms: N_8  and  C_14
REMARK    5  A    between atoms: C_21  and  C_27
REMARK    6  A    between atoms: C_25  and  C_28
REMARK                            x       y       z     vdW  Elec       q    Type
REMARK                         _______ _______ _______ _____ _____    ______ ____
ROOT
ATOM      2  O   UNL     1      -1.208   2.490  26.630  0.00  0.00    -0.370 OA
ATOM      3  O   UNL     1      -1.683   4.053  23.972  0.00  0.00    -0.370 OA
ATOM     11  C   UNL     1      -2.485   3.130  24.729  0.00  0.00    +0.170 C 
ATOM     12  C   UNL     1      -1.550   2.080  25.296  0.00  0.00    +0.171 C 
ATOM     13  C   UNL     1      -3.059   3.811  25.950  0.00  0.00    +0.133 C 
ATOM     14  C   UNL     1      -0.336   2.145  24.401  0.00  0.00    +0.130 C 
ATOM     15  C   UNL     1      -1.923   3.693  26.952  0.00  0.00    +0.183 C 
ATOM     16  C   UNL     1      -0.323   3.597  23.961  0.00  0.00    +0.185 C 
ENDROOT
BRANCH  14   8
ATOM      8  N   UNL     1      -0.516   1.277  23.257  0.00  0.00    -0.306 N 
ATOM      9  N   UNL     1       1.740   0.632  23.251  0.00  0.00    -0.211 NA
ATOM     10  N   UNL     1       0.197  -0.245  21.621  0.00  0.00    -0.223 NA
ATOM     17  C   UNL     1       0.504   0.533  22.693  0.00  0.00    +0.216 A 
ATOM     21  C   UNL     1       2.711  -0.106  22.675  0.00  0.00    +0.111 A 
ATOM     24  C   UNL     1       1.215  -0.958  21.095  0.00  0.00    +0.116 A 
ATOM     26  C   UNL     1       2.505  -0.927  21.585  0.00  0.00    +0.051 A 
ATOM     33  H   UNL     1      -1.444   1.154  22.868  0.00  0.00    +0.149 HD
BRANCH  21  27
ATOM      6  O   UNL     1       4.498  -1.115  23.843  0.00  0.00    -0.461 OA
ATOM     27  C   UNL     1       4.007   0.020  23.286  0.00  0.00    +0.153 A 
ATOM     29  C   UNL     1       4.890   1.061  23.441  0.00  0.00    +0.051 A 
ATOM     30  C   UNL     1       6.000   0.531  24.141  0.00  0.00    +0.042 A 
ATOM     31  C   UNL     1       5.713  -0.796  24.363  0.00  0.00    +0.196 A 
ENDBRANCH  21  27
ENDBRANCH  14   8
BRANCH  13   7
ATOM      7  N   UNL     1      -4.242   3.132  26.419  0.00  0.00    -0.182 NA
ATOM     32  H   UNL     1      -4.232   2.789  27.388  0.00  0.00    +0.148 HD
BRANCH   7   1
ATOM      1  S   UNL     1      -5.292   2.397  25.305  0.00  0.00    +0.059 S 
ATOM      4  O   UNL     1      -5.235   3.112  24.045  0.00  0.00    -0.153 OA
ATOM      5  O   UNL     1      -6.568   2.158  25.951  0.00  0.00    -0.153 OA
BRANCH   1  18
ATOM     18  C   UNL     1      -4.530   0.819  25.071  0.00  0.00    +0.105 A 
ATOM     19  C   UNL     1      -4.203   0.056  26.178  0.00  0.00    +0.029 A 
ATOM     20  C   UNL     1      -4.275   0.377  23.785  0.00  0.00    +0.029 A 
ATOM     22  C   UNL     1      -3.602  -1.189  25.993  0.00  0.00    +0.005 A 
ATOM     23  C   UNL     1      -3.675  -0.869  23.600  0.00  0.00    +0.005 A 
ATOM     25  C   UNL     1      -3.339  -1.653  24.705  0.00  0.00    -0.050 A 
ATOM     28  C   UNL     1      -2.698  -2.984  24.507  0.00  0.00    +0.044 C 
ENDBRANCH   1  18
ENDBRANCH   7   1
ENDBRANCH  13   7
TORSDOF 5
ENDMDL
