MODEL 1
REMARK VINA RESULT:      -2.0      0.000      0.000
REMARK  Name = 71694322
REMARK  5 active torsions:
REMARK  status: ('A' for Active; 'I' for Inactive)
REMARK    1  A    between atoms: O_6  and  C_26
REMARK    2  A    between atoms: O_6  and  C_27
REMARK    3  A    between atoms: C_10  and  C_13
REMARK    4  A    between atoms: C_14  and  C_18
REMARK    5  A    between atoms: C_19  and  C_21
REMARK                            x       y       z     vdW  Elec       q    Type
REMARK                         _______ _______ _______ _____ _____    ______ ____
ROOT
ATOM      8  N   UNL     1      -1.504   1.476  23.556  0.00  0.00    -0.340 N 
ATOM      9  N   UNL     1      -1.990   3.334  24.671  0.00  0.00    -0.238 NA
ATOM     18  C   UNL     1      -2.487   2.288  24.050  0.00  0.00    +0.130 A 
ATOM     19  C   UNL     1      -0.303   2.041  23.883  0.00  0.00    +0.066 A 
ATOM     20  C   UNL     1      -0.629   3.186  24.571  0.00  0.00    +0.139 A 
ATOM     28  H   UNL     1      -1.650   0.620  23.037  0.00  0.00    +0.167 HD
ENDROOT
BRANCH  18  14
ATOM      4  O   UNL     1      -5.149   3.142  25.666  0.00  0.00    -0.376 OA
ATOM      5  O   UNL     1      -3.862  -0.624  22.655  0.00  0.00    -0.275 OA
ATOM      7  N   UNL     1      -4.319   0.685  24.530  0.00  0.00    -0.287 N 
ATOM     13  C   UNL     1      -4.176  -0.527  23.839  0.00  0.00    +0.219 C 
ATOM     14  C   UNL     1      -3.963   1.952  23.862  0.00  0.00    +0.167 C 
ATOM     15  C   UNL     1      -4.695   0.784  25.945  0.00  0.00    +0.136 C 
ATOM     16  C   UNL     1      -4.934   3.079  24.255  0.00  0.00    +0.190 C 
ATOM     17  C   UNL     1      -5.686   1.917  26.162  0.00  0.00    +0.179 C 
BRANCH  13  10
ATOM     10  C   UNL     1      -4.429  -1.787  24.600  0.00  0.00    +0.075 C 
ATOM     11  C   UNL     1      -3.741  -3.034  24.159  0.00  0.00    +0.013 C 
ATOM     12  C   UNL     1      -3.324  -2.352  25.427  0.00  0.00    +0.013 C 
ENDBRANCH  13  10
ENDBRANCH  18  14
BRANCH  19  21
ATOM     21  C   UNL     1       0.966   1.463  23.529  0.00  0.00    +0.000 A 
ATOM     22  C   UNL     1       2.081   2.283  23.355  0.00  0.00    +0.013 A 
ATOM     23  C   UNL     1       1.081   0.083  23.359  0.00  0.00    +0.013 A 
ATOM     24  C   UNL     1       3.312   1.723  23.013  0.00  0.00    +0.046 A 
ATOM     25  C   UNL     1       2.312  -0.477  23.017  0.00  0.00    +0.046 A 
ATOM     26  C   UNL     1       3.427   0.343  22.843  0.00  0.00    +0.130 A 
BRANCH  26   6
ATOM      6  O   UNL     1       4.629  -0.203  22.512  0.00  0.00    -0.406 OA
BRANCH   6  27
ATOM      1  F   UNL     1       6.859  -0.442  22.963  0.00  0.00    -0.133 F 
ATOM      2  F   UNL     1       5.650   0.895  24.200  0.00  0.00    -0.133 F 
ATOM      3  F   UNL     1       5.386  -1.266  24.391  0.00  0.00    -0.133 F 
ATOM     27  C   UNL     1       5.638  -0.270  23.513  0.00  0.00    +0.575 C 
ENDBRANCH   6  27
ENDBRANCH  26   6
ENDBRANCH  19  21
TORSDOF 5
ENDMDL
MODEL 2
REMARK VINA RESULT:      -0.4      1.678      3.687
REMARK  Name = 71694322
REMARK  5 active torsions:
REMARK  status: ('A' for Active; 'I' for Inactive)
REMARK    1  A    between atoms: O_6  and  C_26
REMARK    2  A    between atoms: O_6  and  C_27
REMARK    3  A    between atoms: C_10  and  C_13
REMARK    4  A    between atoms: C_14  and  C_18
REMARK    5  A    between atoms: C_19  and  C_21
REMARK                            x       y       z     vdW  Elec       q    Type
REMARK                         _______ _______ _______ _____ _____    ______ ____
ROOT
ATOM      8  N   UNL     1      -1.590   1.165  24.709  0.00  0.00    -0.340 N 
ATOM      9  N   UNL     1      -3.131  -0.409  24.426  0.00  0.00    -0.238 NA
ATOM     18  C   UNL     1      -2.874   0.766  24.955  0.00  0.00    +0.130 A 
ATOM     19  C   UNL     1      -0.989   0.180  23.975  0.00  0.00    +0.066 A 
ATOM     20  C   UNL     1      -1.960  -0.780  23.813  0.00  0.00    +0.139 A 
ATOM     28  H   UNL     1      -1.168   2.029  25.024  0.00  0.00    +0.167 HD
ENDROOT
BRANCH  18  14
ATOM      4  O   UNL     1      -5.971   1.575  24.525  0.00  0.00    -0.376 OA
ATOM      5  O   UNL     1      -2.088   3.517  26.987  0.00  0.00    -0.275 OA
ATOM      7  N   UNL     1      -3.717   3.060  25.382  0.00  0.00    -0.287 N 
ATOM     13  C   UNL     1      -2.778   3.872  26.034  0.00  0.00    +0.219 C 
ATOM     14  C   UNL     1      -3.836   1.637  25.756  0.00  0.00    +0.167 C 
ATOM     15  C   UNL     1      -4.534   3.499  24.244  0.00  0.00    +0.136 C 
ATOM     16  C   UNL     1      -5.303   1.175  25.723  0.00  0.00    +0.190 C 
ATOM     17  C   UNL     1      -5.962   2.994  24.379  0.00  0.00    +0.179 C 
BRANCH  13  10
ATOM     10  C   UNL     1      -2.611   5.269  25.532  0.00  0.00    +0.075 C 
ATOM     11  C   UNL     1      -1.257   5.705  25.083  0.00  0.00    +0.013 C 
ATOM     12  C   UNL     1      -2.346   5.475  24.078  0.00  0.00    +0.013 C 
ENDBRANCH  13  10
ENDBRANCH  18  14
BRANCH  19  21
ATOM     21  C   UNL     1       0.375   0.250  23.525  0.00  0.00    +0.000 A 
ATOM     22  C   UNL     1       1.198   1.293  23.950  0.00  0.00    +0.013 A 
ATOM     23  C   UNL     1       0.876  -0.726  22.663  0.00  0.00    +0.013 A 
ATOM     24  C   UNL     1       2.521   1.360  23.515  0.00  0.00    +0.046 A 
ATOM     25  C   UNL     1       2.200  -0.659  22.227  0.00  0.00    +0.046 A 
ATOM     26  C   UNL     1       3.022   0.385  22.653  0.00  0.00    +0.130 A 
BRANCH  26   6
ATOM      6  O   UNL     1       4.315   0.448  22.230  0.00  0.00    -0.406 OA
BRANCH   6  27
ATOM      1  F   UNL     1       5.610   1.062  24.012  0.00  0.00    -0.133 F 
ATOM      2  F   UNL     1       4.921  -1.006  23.847  0.00  0.00    -0.133 F 
ATOM      3  F   UNL     1       6.468  -0.282  22.482  0.00  0.00    -0.133 F 
ATOM     27  C   UNL     1       5.341   0.068  23.140  0.00  0.00    +0.575 C 
ENDBRANCH   6  27
ENDBRANCH  26   6
ENDBRANCH  19  21
TORSDOF 5
ENDMDL
MODEL 3
REMARK VINA RESULT:       1.7      1.756      2.806
REMARK  Name = 71694322
REMARK  5 active torsions:
REMARK  status: ('A' for Active; 'I' for Inactive)
REMARK    1  A    between atoms: O_6  and  C_26
REMARK    2  A    between atoms: O_6  and  C_27
REMARK    3  A    between atoms: C_10  and  C_13
REMARK    4  A    between atoms: C_14  and  C_18
REMARK    5  A    between atoms: C_19  and  C_21
REMARK                            x       y       z     vdW  Elec       q    Type
REMARK                         _______ _______ _______ _____ _____    ______ ____
ROOT
ATOM      8  N   UNL     1      -1.388   2.148  23.594  0.00  0.00    -0.340 N 
ATOM      9  N   UNL     1      -3.001   0.679  24.009  0.00  0.00    -0.238 NA
ATOM     18  C   UNL     1      -2.710   1.954  23.884  0.00  0.00    +0.130 A 
ATOM     19  C   UNL     1      -0.798   0.917  23.532  0.00  0.00    +0.066 A 
ATOM     20  C   UNL     1      -1.813   0.026  23.791  0.00  0.00    +0.139 A 
ATOM     28  H   UNL     1      -0.937   3.044  23.462  0.00  0.00    +0.167 HD
ENDROOT
BRANCH  18  14
ATOM      4  O   UNL     1      -2.308   5.006  24.862  0.00  0.00    -0.376 OA
ATOM      5  O   UNL     1      -6.152   1.837  24.558  0.00  0.00    -0.275 OA
ATOM      7  N   UNL     1      -4.359   3.110  25.333  0.00  0.00    -0.287 N 
ATOM     13  C   UNL     1      -5.554   2.392  25.477  0.00  0.00    +0.219 C 
ATOM     14  C   UNL     1      -3.672   3.129  24.027  0.00  0.00    +0.167 C 
ATOM     15  C   UNL     1      -3.657   3.768  26.442  0.00  0.00    +0.136 C 
ATOM     16  C   UNL     1      -3.049   4.508  23.747  0.00  0.00    +0.190 C 
ATOM     17  C   UNL     1      -3.136   5.132  26.017  0.00  0.00    +0.179 C 
BRANCH  13  10
ATOM     10  C   UNL     1      -6.142   2.301  26.848  0.00  0.00    +0.075 C 
ATOM     11  C   UNL     1      -7.451   1.608  27.015  0.00  0.00    +0.013 C 
ATOM     12  C   UNL     1      -6.191   0.966  27.513  0.00  0.00    +0.013 C 
ENDBRANCH  13  10
ENDBRANCH  18  14
BRANCH  19  21
ATOM     21  C   UNL     1       0.599   0.723  23.245  0.00  0.00    +0.000 A 
ATOM     22  C   UNL     1       1.524   1.710  23.585  0.00  0.00    +0.013 A 
ATOM     23  C   UNL     1       1.028  -0.452  22.627  0.00  0.00    +0.013 A 
ATOM     24  C   UNL     1       2.879   1.521  23.309  0.00  0.00    +0.046 A 
ATOM     25  C   UNL     1       2.382  -0.641  22.351  0.00  0.00    +0.046 A 
ATOM     26  C   UNL     1       3.307   0.346  22.691  0.00  0.00    +0.130 A 
BRANCH  26   6
ATOM      6  O   UNL     1       4.629   0.161  22.424  0.00  0.00    -0.406 OA
BRANCH   6  27
ATOM      1  F   UNL     1       5.120  -1.332  24.085  0.00  0.00    -0.133 F 
ATOM      2  F   UNL     1       6.749  -0.333  23.023  0.00  0.00    -0.133 F 
ATOM      3  F   UNL     1       5.526   0.814  24.424  0.00  0.00    -0.133 F 
ATOM     27  C   UNL     1       5.495  -0.173  23.503  0.00  0.00    +0.575 C 
ENDBRANCH   6  27
ENDBRANCH  26   6
ENDBRANCH  19  21
TORSDOF 5
ENDMDL
