MODEL 1
REMARK VINA RESULT:      -1.8      0.000      0.000
REMARK  Name = 7155689
REMARK  4 active torsions:
REMARK  status: ('A' for Active; 'I' for Inactive)
REMARK    1  A    between atoms: N_4  and  C_15
REMARK    2  A    between atoms: N_6  and  C_18
REMARK    3  A    between atoms: C_15  and  C_20
REMARK    4  A    between atoms: C_25  and  C_27
REMARK                            x       y       z     vdW  Elec       q    Type
REMARK                         _______ _______ _______ _____ _____    ______ ____
ROOT
ATOM      2  O   UNL     1      14.115  -6.351  27.108  0.00  0.00    -0.266 OA
ATOM      4  N   UNL     1      15.450  -8.212  31.567  0.00  0.00    -0.297 NA
ATOM      5  N   UNL     1      15.010  -8.073  28.409  0.00  0.00    -0.310 N 
ATOM      8  C   UNL     1      13.659  -9.311  30.200  0.00  0.00    +0.024 C 
ATOM      9  C   UNL     1      16.002  -9.909  29.818  0.00  0.00    +0.050 C 
ATOM     10  C   UNL     1      14.588 -10.476  29.884  0.00  0.00    +0.017 C 
ATOM     11  C   UNL     1      14.056  -8.669  31.546  0.00  0.00    +0.090 C 
ATOM     12  C   UNL     1      16.375  -9.289  31.185  0.00  0.00    +0.094 C 
ATOM     13  C   UNL     1      13.703  -8.312  29.035  0.00  0.00    +0.130 C 
ATOM     14  C   UNL     1      16.117  -8.872  28.716  0.00  0.00    +0.026 A 
ATOM     16  C   UNL     1      17.274  -8.707  28.054  0.00  0.00    +0.024 A 
ATOM     17  C   UNL     1      15.067  -7.068  27.422  0.00  0.00    +0.273 A 
ATOM     18  C   UNL     1      16.380  -6.901  26.723  0.00  0.00    +0.099 A 
ATOM     19  C   UNL     1      17.405  -7.700  27.039  0.00  0.00    +0.030 A 
ENDROOT
BRANCH  18   6
ATOM      3  O   UNL     1      17.403  -4.264  27.101  0.00  0.00    -0.270 OA
ATOM      6  N   UNL     1      16.479  -5.932  25.769  0.00  0.00    -0.277 N 
ATOM     25  C   UNL     1      16.987  -4.664  26.016  0.00  0.00    +0.248 C 
ATOM     32  H   UNL     1      16.016  -6.141  24.892  0.00  0.00    +0.155 HD
BRANCH  25  27
ATOM      7  N   UNL     1      17.128  -2.050  22.670  0.00  0.00    -0.263 NA
ATOM     27  C   UNL     1      17.037  -3.750  24.846  0.00  0.00    +0.040 A 
ATOM     28  C   UNL     1      17.034  -4.288  23.581  0.00  0.00    +0.033 A 
ATOM     29  C   UNL     1      17.083  -2.394  25.062  0.00  0.00    +0.033 A 
ATOM     30  C   UNL     1      17.081  -3.394  22.523  0.00  0.00    +0.111 A 
ATOM     31  C   UNL     1      17.127  -1.585  23.939  0.00  0.00    +0.111 A 
ENDBRANCH  25  27
ENDBRANCH  18   6
BRANCH   4  15
ATOM     15  C   UNL     1      15.801  -7.660  32.873  0.00  0.00    +0.119 C 
BRANCH  15  20
ATOM      1  F   UNL     1      16.289  -2.062  32.713  0.00  0.00    -0.205 F 
ATOM     20  C   UNL     1      15.932  -6.161  32.830  0.00  0.00    -0.033 A 
ATOM     21  C   UNL     1      17.194  -5.583  32.865  0.00  0.00    +0.008 A 
ATOM     22  C   UNL     1      14.789  -5.377  32.757  0.00  0.00    +0.008 A 
ATOM     23  C   UNL     1      17.315  -4.194  32.826  0.00  0.00    +0.038 A 
ATOM     24  C   UNL     1      14.910  -3.988  32.717  0.00  0.00    +0.038 A 
ATOM     26  C   UNL     1      16.173  -3.396  32.752  0.00  0.00    +0.123 A 
ENDBRANCH  15  20
ENDBRANCH   4  15
TORSDOF 4
ENDMDL
MODEL 2
REMARK VINA RESULT:      -0.1      1.823      2.409
REMARK  Name = 7155689
REMARK  4 active torsions:
REMARK  status: ('A' for Active; 'I' for Inactive)
REMARK    1  A    between atoms: N_4  and  C_15
REMARK    2  A    between atoms: N_6  and  C_18
REMARK    3  A    between atoms: C_15  and  C_20
REMARK    4  A    between atoms: C_25  and  C_27
REMARK                            x       y       z     vdW  Elec       q    Type
REMARK                         _______ _______ _______ _____ _____    ______ ____
ROOT
ATOM      2  O   UNL     1      13.984  -6.748  26.439  0.00  0.00    -0.266 OA
ATOM      4  N   UNL     1      14.486  -8.180  31.216  0.00  0.00    -0.297 NA
ATOM      5  N   UNL     1      14.925  -8.148  28.055  0.00  0.00    -0.310 N 
ATOM      8  C   UNL     1      13.528  -9.738  29.501  0.00  0.00    +0.024 C 
ATOM      9  C   UNL     1      15.955  -9.631  29.810  0.00  0.00    +0.050 C 
ATOM     10  C   UNL     1      14.796 -10.583  29.534  0.00  0.00    +0.017 C 
ATOM     11  C   UNL     1      13.338  -9.020  30.854  0.00  0.00    +0.090 C 
ATOM     12  C   UNL     1      15.743  -8.941  31.178  0.00  0.00    +0.094 C 
ATOM     13  C   UNL     1      13.615  -8.760  28.322  0.00  0.00    +0.130 C 
ATOM     14  C   UNL     1      16.079  -8.596  28.706  0.00  0.00    +0.026 A 
ATOM     16  C   UNL     1      17.280  -8.100  28.370  0.00  0.00    +0.024 A 
ATOM     17  C   UNL     1      14.972  -7.162  27.049  0.00  0.00    +0.273 A 
ATOM     18  C   UNL     1      16.326  -6.618  26.719  0.00  0.00    +0.099 A 
ATOM     19  C   UNL     1      17.403  -7.089  27.357  0.00  0.00    +0.030 A 
ENDROOT
BRANCH  18   6
ATOM      3  O   UNL     1      17.400  -3.995  27.057  0.00  0.00    -0.270 OA
ATOM      6  N   UNL     1      16.412  -5.653  25.759  0.00  0.00    -0.277 N 
ATOM     25  C   UNL     1      16.947  -4.393  25.986  0.00  0.00    +0.248 C 
ATOM     32  H   UNL     1      15.922  -5.859  24.896  0.00  0.00    +0.155 HD
BRANCH  25  27
ATOM      7  N   UNL     1      17.034  -1.794  22.626  0.00  0.00    -0.263 NA
ATOM     27  C   UNL     1      16.977  -3.484  24.812  0.00  0.00    +0.040 A 
ATOM     28  C   UNL     1      16.937  -2.125  25.020  0.00  0.00    +0.033 A 
ATOM     29  C   UNL     1      17.045  -4.027  23.552  0.00  0.00    +0.033 A 
ATOM     30  C   UNL     1      16.968  -1.321  23.892  0.00  0.00    +0.111 A 
ATOM     31  C   UNL     1      17.071  -3.138  22.489  0.00  0.00    +0.111 A 
ENDBRANCH  25  27
ENDBRANCH  18   6
BRANCH   4  15
ATOM     15  C   UNL     1      14.290  -7.560  32.525  0.00  0.00    +0.119 C 
BRANCH  15  20
ATOM      1  F   UNL     1      10.095  -3.819  32.459  0.00  0.00    -0.205 F 
ATOM     20  C   UNL     1      13.167  -6.558  32.507  0.00  0.00    -0.033 A 
ATOM     21  C   UNL     1      13.427  -5.246  32.135  0.00  0.00    +0.008 A 
ATOM     22  C   UNL     1      11.887  -6.959  32.863  0.00  0.00    +0.008 A 
ATOM     23  C   UNL     1      12.386  -4.317  32.119  0.00  0.00    +0.038 A 
ATOM     24  C   UNL     1      10.846  -6.031  32.847  0.00  0.00    +0.038 A 
ATOM     26  C   UNL     1      11.095  -4.710  32.475  0.00  0.00    +0.123 A 
ENDBRANCH  15  20
ENDBRANCH   4  15
TORSDOF 4
ENDMDL
MODEL 3
REMARK VINA RESULT:       0.7     18.201     19.830
REMARK  Name = 7155689
REMARK  4 active torsions:
REMARK  status: ('A' for Active; 'I' for Inactive)
REMARK    1  A    between atoms: N_4  and  C_15
REMARK    2  A    between atoms: N_6  and  C_18
REMARK    3  A    between atoms: C_15  and  C_20
REMARK    4  A    between atoms: C_25  and  C_27
REMARK                            x       y       z     vdW  Elec       q    Type
REMARK                         _______ _______ _______ _____ _____    ______ ____
ROOT
ATOM      2  O   UNL     1       0.606   2.440  26.195  0.00  0.00    -0.266 OA
ATOM      4  N   UNL     1      -4.293   1.901  25.282  0.00  0.00    -0.297 NA
ATOM      5  N   UNL     1      -1.330   3.060  25.043  0.00  0.00    -0.310 N 
ATOM      8  C   UNL     1      -3.387   4.046  26.210  0.00  0.00    +0.024 C 
ATOM      9  C   UNL     1      -3.416   3.698  23.786  0.00  0.00    +0.050 C 
ATOM     10  C   UNL     1      -3.624   4.745  24.876  0.00  0.00    +0.017 C 
ATOM     11  C   UNL     1      -4.379   2.876  26.376  0.00  0.00    +0.090 C 
ATOM     12  C   UNL     1      -4.434   2.550  23.971  0.00  0.00    +0.094 C 
ATOM     13  C   UNL     1      -1.923   3.592  26.278  0.00  0.00    +0.130 C 
ATOM     14  C   UNL     1      -1.996   3.161  23.818  0.00  0.00    +0.026 A 
ATOM     16  C   UNL     1      -1.393   2.767  22.685  0.00  0.00    +0.024 A 
ATOM     17  C   UNL     1      -0.025   2.535  25.141  0.00  0.00    +0.273 A 
ATOM     18  C   UNL     1       0.604   2.086  23.860  0.00  0.00    +0.099 A 
ATOM     19  C   UNL     1      -0.066   2.218  22.710  0.00  0.00    +0.030 A 
ENDROOT
BRANCH  18   6
ATOM      3  O   UNL     1       1.518  -0.242  22.484  0.00  0.00    -0.270 OA
ATOM      6  N   UNL     1       1.862   1.560  23.914  0.00  0.00    -0.277 N 
ATOM     25  C   UNL     1       2.246   0.422  23.219  0.00  0.00    +0.248 C 
ATOM     32  H   UNL     1       2.469   1.967  24.616  0.00  0.00    +0.155 HD
BRANCH  25  27
ATOM      7  N   UNL     1       6.303  -0.746  23.692  0.00  0.00    -0.263 NA
ATOM     27  C   UNL     1       3.664   0.014  23.384  0.00  0.00    +0.040 A 
ATOM     28  C   UNL     1       3.946  -1.281  23.753  0.00  0.00    +0.033 A 
ATOM     29  C   UNL     1       4.654   0.941  23.164  0.00  0.00    +0.033 A 
ATOM     30  C   UNL     1       5.284  -1.612  23.894  0.00  0.00    +0.111 A 
ATOM     31  C   UNL     1       5.960   0.511  23.330  0.00  0.00    +0.111 A 
ENDBRANCH  25  27
ENDBRANCH  18   6
BRANCH   4  15
ATOM     15  C   UNL     1      -5.282   0.838  25.449  0.00  0.00    +0.119 C 
BRANCH  15  20
ATOM      1  F   UNL     1      -3.188  -4.199  24.095  0.00  0.00    -0.205 F 
ATOM     20  C   UNL     1      -4.721  -0.511  25.087  0.00  0.00    -0.033 A 
ATOM     21  C   UNL     1      -3.876  -1.162  25.975  0.00  0.00    +0.008 A 
ATOM     22  C   UNL     1      -5.056  -1.086  23.869  0.00  0.00    +0.008 A 
ATOM     23  C   UNL     1      -3.356  -2.412  25.639  0.00  0.00    +0.038 A 
ATOM     24  C   UNL     1      -4.536  -2.336  23.533  0.00  0.00    +0.038 A 
ATOM     26  C   UNL     1      -3.686  -2.999  24.418  0.00  0.00    +0.123 A 
ENDBRANCH  15  20
ENDBRANCH   4  15
TORSDOF 4
ENDMDL
