MODEL 1
REMARK VINA RESULT:       5.1      0.000      0.000
REMARK  Name = 51136847
REMARK  7 active torsions:
REMARK  status: ('A' for Active; 'I' for Inactive)
REMARK    1  A    between atoms: O_2  and  C_31
REMARK    2  A    between atoms: O_2  and  C_32
REMARK    3  A    between atoms: N_3  and  C_13
REMARK    4  A    between atoms: N_5  and  C_24
REMARK    5  A    between atoms: C_9  and  C_14
REMARK    6  A    between atoms: C_13  and  C_15
REMARK    7  A    between atoms: C_20  and  C_25
REMARK                            x       y       z     vdW  Elec       q    Type
REMARK                         _______ _______ _______ _____ _____    ______ ____
ROOT
ATOM      1  O   UNL     1      -3.842   2.651  22.373  0.00  0.00    -0.336 OA
ATOM      6  N   UNL     1      -2.771   1.973  24.220  0.00  0.00    -0.190 NA
ATOM      7  N   UNL     1      -2.531   2.354  21.977  0.00  0.00    -0.056 NA
ATOM     14  C   UNL     1      -3.898   2.400  23.708  0.00  0.00    +0.245 A 
ATOM     20  C   UNL     1      -1.964   1.960  23.120  0.00  0.00    +0.204 A 
ENDROOT
BRANCH  20  25
ATOM      4  N   UNL     1       3.336   0.294  23.377  0.00  0.00    -0.313 N 
ATOM      5  N   UNL     1       6.030  -0.652  23.282  0.00  0.00    -0.302 NA
ATOM      8  N   UNL     1       1.104  -0.096  22.692  0.00  0.00    -0.240 NA
ATOM     16  C   UNL     1       3.612  -1.146  23.426  0.00  0.00    +0.122 C 
ATOM     17  C   UNL     1       4.383   1.121  22.769  0.00  0.00    +0.122 C 
ATOM     18  C   UNL     1       5.003  -1.408  24.009  0.00  0.00    +0.103 C 
ATOM     19  C   UNL     1       5.750   0.786  23.373  0.00  0.00    +0.103 C 
ATOM     21  C   UNL     1       2.001   0.707  23.310  0.00  0.00    +0.121 A 
ATOM     24  C   UNL     1       7.359  -0.951  23.812  0.00  0.00    +0.105 C 
ATOM     25  C   UNL     1      -0.592   1.551  23.199  0.00  0.00    +0.041 A 
ATOM     26  C   UNL     1       1.682   1.925  23.886  0.00  0.00    +0.044 A 
ATOM     27  C   UNL     1       0.359   2.348  23.826  0.00  0.00    +0.016 A 
ATOM     30  C   UNL     1      -0.172   0.349  22.653  0.00  0.00    +0.124 A 
ENDBRANCH  20  25
BRANCH  14   9
ATOM      3  N   UNL     1      -5.335   1.967  25.693  0.00  0.00    -0.287 NA
ATOM      9  C   UNL     1      -5.229   2.646  24.386  0.00  0.00    +0.146 C 
ATOM     10  C   UNL     1      -5.471   4.135  24.697  0.00  0.00    +0.030 C 
ATOM     11  C   UNL     1      -5.764   4.185  26.190  0.00  0.00    +0.017 C 
ATOM     12  C   UNL     1      -6.234   2.782  26.510  0.00  0.00    +0.085 C 
BRANCH   3  13
ATOM     13  C   UNL     1      -5.788   0.587  25.588  0.00  0.00    +0.120 C 
BRANCH  13  15
ATOM     15  C   UNL     1      -4.653  -0.354  25.279  0.00  0.00    -0.033 A 
ATOM     22  C   UNL     1      -4.690  -1.137  24.125  0.00  0.00    +0.008 A 
ATOM     23  C   UNL     1      -3.565  -0.443  26.147  0.00  0.00    +0.008 A 
ATOM     28  C   UNL     1      -3.639  -2.009  23.839  0.00  0.00    +0.046 A 
ATOM     29  C   UNL     1      -2.514  -1.313  25.861  0.00  0.00    +0.046 A 
ATOM     31  C   UNL     1      -2.550  -2.096  24.707  0.00  0.00    +0.120 A 
BRANCH  31   2
ATOM      2  O   UNL     1      -1.525  -2.945  24.428  0.00  0.00    -0.495 OA
ATOM     32  C   UNL     1      -0.266  -2.666  25.039  0.00  0.00    +0.277 C 
ENDBRANCH  31   2
ENDBRANCH  13  15
ENDBRANCH   3  13
ENDBRANCH  14   9
TORSDOF 5
ENDMDL
