MODEL 1
REMARK VINA RESULT:      16.8      0.000      0.000
REMARK  Name = 95790522
REMARK  11 active torsions:
REMARK  status: ('A' for Active; 'I' for Inactive)
REMARK    1  A    between atoms: N_5  and  C_24
REMARK    2  A    between atoms: N_7  and  C_29
REMARK    3  A    between atoms: N_7  and  C_31
REMARK    4  A    between atoms: N_7  and  C_33
REMARK    5  A    between atoms: N_9  and  C_34
REMARK    6  A    between atoms: N_9  and  C_38
REMARK    7  A    between atoms: N_9  and  C_39
REMARK    8  A    between atoms: C_11  and  C_16
REMARK    9  A    between atoms: C_16  and  C_19
REMARK   10  A    between atoms: C_24  and  C_28
REMARK   11  A    between atoms: C_31  and  C_34
REMARK                            x       y       z     vdW  Elec       q    Type
REMARK                         _______ _______ _______ _____ _____    ______ ____
ROOT
ATOM      1  O   UNL     1      -1.567   0.512  22.567  0.00  0.00    -0.492 OA
ATOM      2  O   UNL     1      -4.800  -0.568  23.812  0.00  0.00    -0.274 OA
ATOM      4  N   UNL     1      -4.599   1.153  25.349  0.00  0.00    -0.300 N 
ATOM      6  N   UNL     1      -2.182  -0.873  25.488  0.00  0.00    -0.304 NA
ATOM     10  C   UNL     1      -4.226   3.354  24.286  0.00  0.00    +0.010 C 
ATOM     11  C   UNL     1      -4.095   3.988  25.698  0.00  0.00    +0.004 C 
ATOM     12  C   UNL     1      -3.560   2.964  26.715  0.00  0.00    +0.023 C 
ATOM     13  C   UNL     1      -5.164   2.136  24.419  0.00  0.00    +0.111 C 
ATOM     14  C   UNL     1      -2.854   2.971  23.682  0.00  0.00    +0.008 C 
ATOM     15  C   UNL     1      -4.366   1.664  26.707  0.00  0.00    +0.108 C 
ATOM     17  C   UNL     1      -2.893   2.464  22.233  0.00  0.00    +0.041 C 
ATOM     18  C   UNL     1      -4.401  -0.156  24.908  0.00  0.00    +0.229 C 
ATOM     20  C   UNL     1      -1.573   1.768  21.884  0.00  0.00    +0.229 C 
ATOM     21  C   UNL     1      -3.598  -1.101  25.785  0.00  0.00    +0.178 C 
ATOM     22  C   UNL     1      -1.734  -1.657  24.331  0.00  0.00    +0.120 C 
ATOM     23  C   UNL     1      -0.365  -0.068  22.874  0.00  0.00    +0.125 A 
ATOM     25  C   UNL     1      -0.419  -1.154  23.775  0.00  0.00    +0.010 A 
ATOM     26  C   UNL     1       0.774  -1.780  24.164  0.00  0.00    +0.031 A 
ATOM     27  C   UNL     1       0.866   0.332  22.343  0.00  0.00    +0.048 A 
ATOM     29  C   UNL     1       1.998  -1.360  23.648  0.00  0.00    +0.030 A 
ATOM     30  C   UNL     1       2.041  -0.311  22.733  0.00  0.00    +0.027 A 
ATOM     41  H   UNL     1      -1.622  -1.144  26.297  0.00  0.00    +0.123 HD
ENDROOT
BRANCH  29   7
ATOM      7  N   UNL     1       3.192  -1.988  24.056  0.00  0.00    -0.332 N 
ATOM     33  C   UNL     1       3.161  -3.047  25.046  0.00  0.00    +0.129 C 
BRANCH   7  31
ATOM     31  C   UNL     1       4.463  -1.589  23.487  0.00  0.00    +0.120 C 
BRANCH  31  34
ATOM     34  C   UNL     1       5.227  -0.734  24.490  0.00  0.00    +0.102 C 
BRANCH  34   9
ATOM      9  N   UNL     1       5.823   0.418  23.824  0.00  0.00    -0.307 NA
ATOM     38  C   UNL     1       6.979   0.010  23.024  0.00  0.00    +0.104 C 
ATOM     39  C   UNL     1       4.835   1.092  22.980  0.00  0.00    +0.104 C 
ENDBRANCH  34   9
ENDBRANCH  31  34
ENDBRANCH   7  31
ENDBRANCH  29   7
BRANCH  11  16
ATOM     16  C   UNL     1      -3.252   5.263  25.718  0.00  0.00    +0.099 C 
BRANCH  16  19
ATOM      3  O   UNL     1      -1.073   5.736  24.781  0.00  0.00    -0.276 OA
ATOM      5  N   UNL     1      -1.385   3.793  26.015  0.00  0.00    -0.310 N 
ATOM     19  C   UNL     1      -1.790   4.988  25.438  0.00  0.00    +0.214 C 
ATOM     40  H   UNL     1      -2.055   3.229  26.532  0.00  0.00    +0.149 HD
BRANCH   5  24
ATOM     24  C   UNL     1      -0.039   3.280  25.907  0.00  0.00    +0.159 C 
BRANCH  24  28
ATOM      8  N   UNL     1       1.909   3.115  27.349  0.00  0.00    -0.258 NA
ATOM     28  C   UNL     1       0.565   3.002  27.253  0.00  0.00    +0.058 A 
ATOM     32  C   UNL     1      -0.262   2.653  28.309  0.00  0.00    +0.025 A 
ATOM     35  C   UNL     1       0.329   2.402  29.543  0.00  0.00    +0.003 A 
ATOM     36  C   UNL     1       2.447   2.864  28.564  0.00  0.00    +0.111 A 
ATOM     37  C   UNL     1       1.708   2.508  29.681  0.00  0.00    +0.020 A 
ENDBRANCH  24  28
ENDBRANCH   5  24
ENDBRANCH  16  19
ENDBRANCH  11  16
TORSDOF 8
ENDMDL
MODEL 2
REMARK VINA RESULT:      17.1      1.327      1.757
REMARK  Name = 95790522
REMARK  11 active torsions:
REMARK  status: ('A' for Active; 'I' for Inactive)
REMARK    1  A    between atoms: N_5  and  C_24
REMARK    2  A    between atoms: N_7  and  C_29
REMARK    3  A    between atoms: N_7  and  C_31
REMARK    4  A    between atoms: N_7  and  C_33
REMARK    5  A    between atoms: N_9  and  C_34
REMARK    6  A    between atoms: N_9  and  C_38
REMARK    7  A    between atoms: N_9  and  C_39
REMARK    8  A    between atoms: C_11  and  C_16
REMARK    9  A    between atoms: C_16  and  C_19
REMARK   10  A    between atoms: C_24  and  C_28
REMARK   11  A    between atoms: C_31  and  C_34
REMARK                            x       y       z     vdW  Elec       q    Type
REMARK                         _______ _______ _______ _____ _____    ______ ____
ROOT
ATOM      1  O   UNL     1      -2.111   0.596  22.386  0.00  0.00    -0.492 OA
ATOM      2  O   UNL     1      -4.942  -1.336  23.576  0.00  0.00    -0.274 OA
ATOM      4  N   UNL     1      -5.192   0.320  25.175  0.00  0.00    -0.300 N 
ATOM      6  N   UNL     1      -2.328  -1.005  25.252  0.00  0.00    -0.304 NA
ATOM     10  C   UNL     1      -5.413   2.579  24.193  0.00  0.00    +0.010 C 
ATOM     11  C   UNL     1      -5.447   3.174  25.629  0.00  0.00    +0.004 C 
ATOM     12  C   UNL     1      -4.657   2.290  26.610  0.00  0.00    +0.023 C 
ATOM     13  C   UNL     1      -5.999   1.155  24.278  0.00  0.00    +0.111 C 
ATOM     14  C   UNL     1      -3.991   2.591  23.583  0.00  0.00    +0.008 C 
ATOM     15  C   UNL     1      -5.095   0.825  26.552  0.00  0.00    +0.108 C 
ATOM     17  C   UNL     1      -3.903   2.144  22.116  0.00  0.00    +0.041 C 
ATOM     18  C   UNL     1      -4.660  -0.875  24.688  0.00  0.00    +0.229 C 
ATOM     20  C   UNL     1      -2.448   1.831  21.749  0.00  0.00    +0.229 C 
ATOM     21  C   UNL     1      -3.633  -1.607  25.534  0.00  0.00    +0.178 C 
ATOM     22  C   UNL     1      -1.697  -1.602  24.071  0.00  0.00    +0.120 C 
ATOM     23  C   UNL     1      -0.798   0.341  22.678  0.00  0.00    +0.125 A 
ATOM     25  C   UNL     1      -0.561  -0.753  23.539  0.00  0.00    +0.010 A 
ATOM     26  C   UNL     1       0.756  -1.059  23.912  0.00  0.00    +0.031 A 
ATOM     27  C   UNL     1       0.283   1.068  22.168  0.00  0.00    +0.048 A 
ATOM     29  C   UNL     1       1.824  -0.314  23.417  0.00  0.00    +0.030 A 
ATOM     30  C   UNL     1       1.588   0.742  22.541  0.00  0.00    +0.027 A 
ATOM     41  H   UNL     1      -1.713  -1.150  26.054  0.00  0.00    +0.123 HD
ENDROOT
BRANCH  29   7
ATOM      7  N   UNL     1       3.144  -0.623  23.809  0.00  0.00    -0.332 N 
ATOM     33  C   UNL     1       3.549  -2.001  23.997  0.00  0.00    +0.129 C 
BRANCH   7  31
ATOM     31  C   UNL     1       4.112   0.434  24.021  0.00  0.00    +0.120 C 
BRANCH  31  34
ATOM     34  C   UNL     1       5.157   0.400  22.912  0.00  0.00    +0.102 C 
BRANCH  34   9
ATOM      9  N   UNL     1       6.444  -0.031  23.442  0.00  0.00    -0.307 NA
ATOM     38  C   UNL     1       6.283  -0.626  24.770  0.00  0.00    +0.104 C 
ATOM     39  C   UNL     1       7.082  -0.985  22.533  0.00  0.00    +0.104 C 
ENDBRANCH  34   9
ENDBRANCH  31  34
ENDBRANCH   7  31
ENDBRANCH  29   7
BRANCH  11  16
ATOM     16  C   UNL     1      -4.967   4.623  25.699  0.00  0.00    +0.099 C 
BRANCH  16  19
ATOM      3  O   UNL     1      -3.051   4.783  27.167  0.00  0.00    -0.276 OA
ATOM      5  N   UNL     1      -2.724   4.741  24.867  0.00  0.00    -0.310 N 
ATOM     19  C   UNL     1      -3.492   4.724  26.023  0.00  0.00    +0.214 C 
ATOM     40  H   UNL     1      -3.179   4.702  23.959  0.00  0.00    +0.149 HD
BRANCH   5  24
ATOM     24  C   UNL     1      -1.283   4.833  24.877  0.00  0.00    +0.159 C 
BRANCH  24  28
ATOM      8  N   UNL     1       0.483   3.896  26.257  0.00  0.00    -0.258 NA
ATOM     28  C   UNL     1      -0.650   3.655  25.559  0.00  0.00    +0.058 A 
ATOM     32  C   UNL     1      -1.242   2.408  25.447  0.00  0.00    +0.025 A 
ATOM     35  C   UNL     1      -0.631   1.337  26.091  0.00  0.00    +0.003 A 
ATOM     36  C   UNL     1       1.047   2.831  26.870  0.00  0.00    +0.111 A 
ATOM     37  C   UNL     1       0.535   1.545  26.818  0.00  0.00    +0.020 A 
ENDBRANCH  24  28
ENDBRANCH   5  24
ENDBRANCH  16  19
ENDBRANCH  11  16
TORSDOF 8
ENDMDL
MODEL 3
REMARK VINA RESULT:      18.4      2.191      4.952
REMARK  Name = 95790522
REMARK  11 active torsions:
REMARK  status: ('A' for Active; 'I' for Inactive)
REMARK    1  A    between atoms: N_5  and  C_24
REMARK    2  A    between atoms: N_7  and  C_29
REMARK    3  A    between atoms: N_7  and  C_31
REMARK    4  A    between atoms: N_7  and  C_33
REMARK    5  A    between atoms: N_9  and  C_34
REMARK    6  A    between atoms: N_9  and  C_38
REMARK    7  A    between atoms: N_9  and  C_39
REMARK    8  A    between atoms: C_11  and  C_16
REMARK    9  A    between atoms: C_16  and  C_19
REMARK   10  A    between atoms: C_24  and  C_28
REMARK   11  A    between atoms: C_31  and  C_34
REMARK                            x       y       z     vdW  Elec       q    Type
REMARK                         _______ _______ _______ _____ _____    ______ ____
ROOT
ATOM      1  O   UNL     1      -0.255   2.667  25.938  0.00  0.00    -0.492 OA
ATOM      2  O   UNL     1      -1.060   6.184  25.552  0.00  0.00    -0.274 OA
ATOM      4  N   UNL     1      -3.213   5.472  25.081  0.00  0.00    -0.300 N 
ATOM      6  N   UNL     1      -1.072   4.197  23.142  0.00  0.00    -0.304 NA
ATOM     10  C   UNL     1      -4.168   4.054  26.868  0.00  0.00    +0.010 C 
ATOM     11  C   UNL     1      -5.440   3.853  25.996  0.00  0.00    +0.004 C 
ATOM     12  C   UNL     1      -5.101   3.948  24.498  0.00  0.00    +0.023 C 
ATOM     13  C   UNL     1      -3.579   5.431  26.501  0.00  0.00    +0.111 C 
ATOM     14  C   UNL     1      -3.141   2.911  26.684  0.00  0.00    +0.008 C 
ATOM     15  C   UNL     1      -4.329   5.225  24.158  0.00  0.00    +0.108 C 
ATOM     17  C   UNL     1      -1.921   2.971  27.615  0.00  0.00    +0.041 C 
ATOM     18  C   UNL     1      -1.901   5.797  24.732  0.00  0.00    +0.229 C 
ATOM     20  C   UNL     1      -0.818   2.043  27.095  0.00  0.00    +0.229 C 
ATOM     21  C   UNL     1      -1.467   5.600  23.290  0.00  0.00    +0.178 C 
ATOM     22  C   UNL     1       0.325   3.980  23.533  0.00  0.00    +0.120 C 
ATOM     23  C   UNL     1       0.344   1.882  24.989  0.00  0.00    +0.125 A 
ATOM     25  C   UNL     1       0.633   2.514  23.760  0.00  0.00    +0.010 A 
ATOM     26  C   UNL     1       1.217   1.768  22.726  0.00  0.00    +0.031 A 
ATOM     27  C   UNL     1       0.692   0.540  25.176  0.00  0.00    +0.048 A 
ATOM     29  C   UNL     1       1.538   0.426  22.914  0.00  0.00    +0.030 A 
ATOM     30  C   UNL     1       1.283  -0.184  24.140  0.00  0.00    +0.027 A 
ATOM     41  H   UNL     1      -1.180   3.920  22.165  0.00  0.00    +0.123 HD
ENDROOT
BRANCH  29   7
ATOM      7  N   UNL     1       2.114  -0.317  21.863  0.00  0.00    -0.332 N 
ATOM     33  C   UNL     1       1.287  -1.165  21.027  0.00  0.00    +0.129 C 
BRANCH   7  31
ATOM     31  C   UNL     1       3.536  -0.238  21.601  0.00  0.00    +0.120 C 
BRANCH  31  34
ATOM     34  C   UNL     1       4.210   0.596  22.683  0.00  0.00    +0.102 C 
BRANCH  34   9
ATOM      9  N   UNL     1       5.248  -0.181  23.349  0.00  0.00    -0.307 NA
ATOM     38  C   UNL     1       5.827   0.577  24.460  0.00  0.00    +0.104 C 
ATOM     39  C   UNL     1       4.708  -1.454  23.831  0.00  0.00    +0.104 C 
ENDBRANCH  34   9
ENDBRANCH  31  34
ENDBRANCH   7  31
ENDBRANCH  29   7
BRANCH  11  16
ATOM     16  C   UNL     1      -6.188   2.556  26.301  0.00  0.00    +0.099 C 
BRANCH  16  19
ATOM      3  O   UNL     1      -7.010   1.586  24.243  0.00  0.00    -0.276 OA
ATOM      5  N   UNL     1      -5.079   0.735  25.212  0.00  0.00    -0.310 N 
ATOM     19  C   UNL     1      -6.165   1.593  25.133  0.00  0.00    +0.214 C 
ATOM     40  H   UNL     1      -4.436   0.805  25.996  0.00  0.00    +0.149 HD
BRANCH   5  24
ATOM     24  C   UNL     1      -4.808  -0.290  24.230  0.00  0.00    +0.159 C 
BRANCH  24  28
ATOM      8  N   UNL     1      -3.387  -2.228  23.872  0.00  0.00    -0.258 NA
ATOM     28  C   UNL     1      -3.586  -1.090  24.576  0.00  0.00    +0.058 A 
ATOM     32  C   UNL     1      -2.738  -0.636  25.573  0.00  0.00    +0.025 A 
ATOM     35  C   UNL     1      -1.613  -1.400  25.868  0.00  0.00    +0.003 A 
ATOM     36  C   UNL     1      -2.283  -2.942  24.187  0.00  0.00    +0.111 A 
ATOM     37  C   UNL     1      -1.375  -2.575  25.167  0.00  0.00    +0.020 A 
ENDBRANCH  24  28
ENDBRANCH   5  24
ENDBRANCH  16  19
ENDBRANCH  11  16
TORSDOF 8
ENDMDL
