MODEL 1
REMARK VINA RESULT:      -2.5      0.000      0.000
REMARK  Name = 25388766
REMARK  10 active torsions:
REMARK  status: ('A' for Active; 'I' for Inactive)
REMARK    1  A    between atoms: O_5  and  C_29
REMARK    2  A    between atoms: O_5  and  C_30
REMARK    3  A    between atoms: N_7  and  C_17
REMARK    4  A    between atoms: N_7  and  C_19
REMARK    5  A    between atoms: N_7  and  C_20
REMARK    6  A    between atoms: N_8  and  C_18
REMARK    7  A    between atoms: N_9  and  C_24
REMARK    8  A    between atoms: C_11  and  C_17
REMARK    9  A    between atoms: C_12  and  C_18
REMARK   10  A    between atoms: C_19  and  C_22
REMARK                            x       y       z     vdW  Elec       q    Type
REMARK                         _______ _______ _______ _____ _____    ______ ____
ROOT
ATOM      4  O   UNL     1      -1.089  -0.519  25.311  0.00  0.00    -0.253 OA
ATOM      8  N   UNL     1      -2.937  -0.004  24.022  0.00  0.00    -0.298 N 
ATOM      9  N   UNL     1      -0.856   0.320  23.130  0.00  0.00    -0.269 N 
ATOM     21  C   UNL     1      -1.567  -0.108  24.256  0.00  0.00    +0.304 C 
ATOM     31  H   UNL     1      -3.257   0.390  23.143  0.00  0.00    +0.150 HD
ATOM     32  H   UNL     1      -1.407   0.632  22.335  0.00  0.00    +0.156 HD
ENDROOT
BRANCH   9  24
ATOM     24  C   UNL     1       0.546   0.373  22.958  0.00  0.00    +0.035 A 
ATOM     25  C   UNL     1       1.310   1.259  23.718  0.00  0.00    +0.027 A 
ATOM     26  C   UNL     1       1.166  -0.462  22.027  0.00  0.00    +0.027 A 
ATOM     27  C   UNL     1       2.693   1.312  23.547  0.00  0.00    +0.048 A 
ATOM     28  C   UNL     1       2.550  -0.409  21.857  0.00  0.00    +0.048 A 
ATOM     29  C   UNL     1       3.313   0.478  22.616  0.00  0.00    +0.130 A 
BRANCH  29   5
ATOM      5  O   UNL     1       4.663   0.529  22.450  0.00  0.00    -0.406 OA
BRANCH   5  30
ATOM      1  F   UNL     1       5.607   0.794  24.483  0.00  0.00    -0.133 F 
ATOM      2  F   UNL     1       4.940  -1.207  23.914  0.00  0.00    -0.133 F 
ATOM      3  F   UNL     1       6.726  -0.313  22.967  0.00  0.00    -0.133 F 
ATOM     30  C   UNL     1       5.488  -0.066  23.446  0.00  0.00    +0.575 C 
ENDBRANCH   5  30
ENDBRANCH  29   5
ENDBRANCH   9  24
BRANCH   8  18
ATOM     18  C   UNL     1      -3.934  -0.376  25.011  0.00  0.00    +0.124 C 
BRANCH  18  12
ATOM      6  N   UNL     1      -5.444   1.499  24.304  0.00  0.00    -0.298 NA
ATOM     10  C   UNL     1      -4.211   3.284  25.739  0.00  0.00    -0.003 C 
ATOM     11  C   UNL     1      -3.826   3.415  24.248  0.00  0.00    +0.020 C 
ATOM     12  C   UNL     1      -4.750   0.845  25.446  0.00  0.00    +0.074 C 
ATOM     13  C   UNL     1      -3.888   1.861  26.228  0.00  0.00    +0.024 C 
ATOM     14  C   UNL     1      -4.471   2.245  23.470  0.00  0.00    +0.089 C 
ATOM     15  C   UNL     1      -5.739   3.459  25.824  0.00  0.00    +0.019 C 
ATOM     16  C   UNL     1      -6.417   2.471  24.859  0.00  0.00    +0.085 C 
BRANCH  11  17
ATOM     17  C   UNL     1      -2.319   3.481  24.019  0.00  0.00    +0.089 C 
BRANCH  17   7
ATOM      7  N   UNL     1      -1.645   4.073  25.163  0.00  0.00    -0.301 NA
ATOM     20  C   UNL     1      -1.550   5.528  25.013  0.00  0.00    +0.105 C 
BRANCH   7  19
ATOM     19  C   UNL     1      -0.309   3.496  25.336  0.00  0.00    +0.110 C 
BRANCH  19  22
ATOM     22  C   UNL     1      -0.283   2.489  26.445  0.00  0.00    -0.019 C 
ATOM     23  C   UNL     1       0.627   2.481  27.426  0.00  0.00    +0.005 C 
ENDBRANCH  19  22
ENDBRANCH   7  19
ENDBRANCH  17   7
ENDBRANCH  11  17
ENDBRANCH  18  12
ENDBRANCH   8  18
TORSDOF 9
ENDMDL
MODEL 2
REMARK VINA RESULT:      -1.5      1.540      3.555
REMARK  Name = 25388766
REMARK  10 active torsions:
REMARK  status: ('A' for Active; 'I' for Inactive)
REMARK    1  A    between atoms: O_5  and  C_29
REMARK    2  A    between atoms: O_5  and  C_30
REMARK    3  A    between atoms: N_7  and  C_17
REMARK    4  A    between atoms: N_7  and  C_19
REMARK    5  A    between atoms: N_7  and  C_20
REMARK    6  A    between atoms: N_8  and  C_18
REMARK    7  A    between atoms: N_9  and  C_24
REMARK    8  A    between atoms: C_11  and  C_17
REMARK    9  A    between atoms: C_12  and  C_18
REMARK   10  A    between atoms: C_19  and  C_22
REMARK                            x       y       z     vdW  Elec       q    Type
REMARK                         _______ _______ _______ _____ _____    ______ ____
ROOT
ATOM      4  O   UNL     1      -0.286   2.862  25.356  0.00  0.00    -0.253 OA
ATOM      8  N   UNL     1      -1.785   3.536  23.731  0.00  0.00    -0.298 N 
ATOM      9  N   UNL     1      -0.056   2.169  23.124  0.00  0.00    -0.269 N 
ATOM     21  C   UNL     1      -0.661   2.849  24.186  0.00  0.00    +0.304 C 
ATOM     31  H   UNL     1      -2.006   3.518  22.741  0.00  0.00    +0.150 HD
ATOM     32  H   UNL     1      -0.496   2.263  22.212  0.00  0.00    +0.156 HD
ENDROOT
BRANCH   9  24
ATOM     24  C   UNL     1       1.102   1.359  23.160  0.00  0.00    +0.035 A 
ATOM     25  C   UNL     1       0.983  -0.022  23.320  0.00  0.00    +0.027 A 
ATOM     26  C   UNL     1       2.364   1.940  23.035  0.00  0.00    +0.027 A 
ATOM     27  C   UNL     1       2.126  -0.822  23.356  0.00  0.00    +0.048 A 
ATOM     28  C   UNL     1       3.507   1.140  23.070  0.00  0.00    +0.048 A 
ATOM     29  C   UNL     1       3.388  -0.241  23.231  0.00  0.00    +0.130 A 
BRANCH  29   5
ATOM      5  O   UNL     1       4.502  -1.021  23.265  0.00  0.00    -0.406 OA
BRANCH   5  30
ATOM      1  F   UNL     1       6.108  -1.277  24.831  0.00  0.00    -0.133 F 
ATOM      2  F   UNL     1       6.678  -0.411  22.907  0.00  0.00    -0.133 F 
ATOM      3  F   UNL     1       5.464   0.753  24.341  0.00  0.00    -0.133 F 
ATOM     30  C   UNL     1       5.691  -0.474  23.826  0.00  0.00    +0.575 C 
ENDBRANCH   5  30
ENDBRANCH  29   5
ENDBRANCH   9  24
BRANCH   8  18
ATOM     18  C   UNL     1      -2.624   4.338  24.607  0.00  0.00    +0.124 C 
BRANCH  18  12
ATOM      6  N   UNL     1      -4.306   3.140  26.032  0.00  0.00    -0.298 NA
ATOM     10  C   UNL     1      -5.019   1.500  24.144  0.00  0.00    -0.003 C 
ATOM     11  C   UNL     1      -4.087   0.800  25.159  0.00  0.00    +0.020 C 
ATOM     12  C   UNL     1      -4.033   3.746  24.701  0.00  0.00    +0.074 C 
ATOM     13  C   UNL     1      -4.307   2.736  23.564  0.00  0.00    +0.024 C 
ATOM     14  C   UNL     1      -3.582   1.854  26.171  0.00  0.00    +0.089 C 
ATOM     15  C   UNL     1      -6.241   2.006  24.933  0.00  0.00    +0.019 C 
ATOM     16  C   UNL     1      -5.761   2.863  26.118  0.00  0.00    +0.085 C 
BRANCH  11  17
ATOM     17  C   UNL     1      -2.931   0.052  24.500  0.00  0.00    +0.089 C 
BRANCH  17   7
ATOM      7  N   UNL     1      -2.386  -0.955  25.396  0.00  0.00    -0.301 NA
ATOM     20  C   UNL     1      -1.091  -0.528  25.932  0.00  0.00    +0.105 C 
BRANCH   7  19
ATOM     19  C   UNL     1      -2.247  -2.242  24.708  0.00  0.00    +0.110 C 
BRANCH  19  22
ATOM     22  C   UNL     1      -3.569  -2.929  24.552  0.00  0.00    -0.019 C 
ATOM     23  C   UNL     1      -4.439  -2.662  23.571  0.00  0.00    +0.005 C 
ENDBRANCH  19  22
ENDBRANCH   7  19
ENDBRANCH  17   7
ENDBRANCH  11  17
ENDBRANCH  18  12
ENDBRANCH   8  18
TORSDOF 9
ENDMDL
