MODEL 1
REMARK VINA RESULT:      -1.9      0.000      0.000
REMARK  Name = 38027112
REMARK  12 active torsions:
REMARK  status: ('A' for Active; 'I' for Inactive)
REMARK    1  A    between atoms: N_5  and  C_15
REMARK    2  A    between atoms: N_6  and  C_22
REMARK    3  A    between atoms: N_7  and  C_23
REMARK    4  A    between atoms: C_8  and  C_12
REMARK    5  A    between atoms: C_9  and  C_15
REMARK    6  A    between atoms: C_11  and  C_16
REMARK    7  A    between atoms: C_12  and  C_17
REMARK    8  A    between atoms: C_12  and  C_18
REMARK    9  A    between atoms: C_13  and  C_19
REMARK   10  A    between atoms: C_16  and  C_20
REMARK   11  A    between atoms: C_21  and  C_26
REMARK   12  A    between atoms: C_22  and  C_23
REMARK                            x       y       z     vdW  Elec       q    Type
REMARK                         _______ _______ _______ _____ _____    ______ ____
ROOT
ATOM      8  C   UNL     1      -4.082   3.339  25.677  0.00  0.00    +0.000 C 
ATOM      9  C   UNL     1      -3.910   4.063  24.318  0.00  0.00    +0.032 C 
ATOM     10  C   UNL     1      -3.218   4.009  26.755  0.00  0.00    +0.012 C 
ATOM     11  C   UNL     1      -1.721   4.008  26.388  0.00  0.00    +0.023 C 
ATOM     13  C   UNL     1      -1.493   4.460  24.960  0.00  0.00    -0.073 C 
ATOM     14  C   UNL     1      -2.485   4.490  24.053  0.00  0.00    -0.022 C 
ATOM     19  C   UNL     1      -0.105   4.920  24.610  0.00  0.00    +0.039 C 
ENDROOT
BRANCH   8  12
ATOM     12  C   UNL     1      -5.546   3.313  26.126  0.00  0.00    -0.013 C 
ATOM     17  C   UNL     1      -6.195   1.987  25.742  0.00  0.00    +0.007 C 
ATOM     18  C   UNL     1      -6.309   4.485  25.518  0.00  0.00    +0.007 C 
ENDBRANCH   8  12
BRANCH   9  15
ATOM     15  C   UNL     1      -4.405   3.190  23.159  0.00  0.00    +0.112 C 
BRANCH  15   5
ATOM      3  O   UNL     1      -2.056   1.540  23.105  0.00  0.00    -0.270 OA
ATOM      5  N   UNL     1      -4.328   1.804  23.499  0.00  0.00    -0.311 N 
ATOM     21  C   UNL     1      -3.141   1.074  23.445  0.00  0.00    +0.244 C 
ATOM     34  H   UNL     1      -5.165   1.373  23.878  0.00  0.00    +0.149 HD
BRANCH  21  26
ATOM      1  F   UNL     1      -3.489  -4.363  24.803  0.00  0.00    -0.205 F 
ATOM     26  C   UNL     1      -3.233  -0.364  23.804  0.00  0.00    +0.037 A 
ATOM     29  C   UNL     1      -2.130  -1.019  24.350  0.00  0.00    +0.016 A 
ATOM     30  C   UNL     1      -4.424  -1.060  23.596  0.00  0.00    +0.016 A 
ATOM     31  C   UNL     1      -2.215  -2.370  24.688  0.00  0.00    +0.039 A 
ATOM     32  C   UNL     1      -4.510  -2.411  23.932  0.00  0.00    +0.039 A 
ATOM     33  C   UNL     1      -3.407  -3.066  24.479  0.00  0.00    +0.123 A 
ENDBRANCH  21  26
ENDBRANCH  15   5
ENDBRANCH   9  15
BRANCH  11  16
ATOM     16  C   UNL     1      -1.093   2.633  26.637  0.00  0.00    +0.103 C 
BRANCH  16  20
ATOM      2  O   UNL     1       1.312   2.861  26.515  0.00  0.00    -0.276 OA
ATOM      6  N   UNL     1       0.160   1.931  24.725  0.00  0.00    -0.314 N 
ATOM     20  C   UNL     1       0.265   2.502  25.984  0.00  0.00    +0.214 C 
ATOM     35  H   UNL     1      -0.756   1.659  24.378  0.00  0.00    +0.149 HD
BRANCH   6  22
ATOM     22  C   UNL     1       1.299   1.687  23.871  0.00  0.00    +0.119 C 
BRANCH  22  23
ATOM     23  C   UNL     1       1.265   0.279  23.295  0.00  0.00    +0.103 C 
BRANCH  23   7
ATOM      4  O   UNL     1       5.361  -0.549  23.676  0.00  0.00    -0.377 OA
ATOM      7  N   UNL     1       2.620  -0.184  23.003  0.00  0.00    -0.297 NA
ATOM     24  C   UNL     1       3.043  -1.203  23.972  0.00  0.00    +0.112 C 
ATOM     25  C   UNL     1       3.566   0.940  23.009  0.00  0.00    +0.112 C 
ATOM     27  C   UNL     1       4.465  -1.661  23.655  0.00  0.00    +0.175 C 
ATOM     28  C   UNL     1       4.975   0.432  22.713  0.00  0.00    +0.175 C 
ENDBRANCH  23   7
ENDBRANCH  22  23
ENDBRANCH   6  22
ENDBRANCH  16  20
ENDBRANCH  11  16
TORSDOF 9
ENDMDL
MODEL 2
REMARK VINA RESULT:      -0.5      2.694      7.443
REMARK  Name = 38027112
REMARK  12 active torsions:
REMARK  status: ('A' for Active; 'I' for Inactive)
REMARK    1  A    between atoms: N_5  and  C_15
REMARK    2  A    between atoms: N_6  and  C_22
REMARK    3  A    between atoms: N_7  and  C_23
REMARK    4  A    between atoms: C_8  and  C_12
REMARK    5  A    between atoms: C_9  and  C_15
REMARK    6  A    between atoms: C_11  and  C_16
REMARK    7  A    between atoms: C_12  and  C_17
REMARK    8  A    between atoms: C_12  and  C_18
REMARK    9  A    between atoms: C_13  and  C_19
REMARK   10  A    between atoms: C_16  and  C_20
REMARK   11  A    between atoms: C_21  and  C_26
REMARK   12  A    between atoms: C_22  and  C_23
REMARK                            x       y       z     vdW  Elec       q    Type
REMARK                         _______ _______ _______ _____ _____    ______ ____
ROOT
ATOM      8  C   UNL     1      -1.928   0.330  24.823  0.00  0.00    +0.000 C 
ATOM      9  C   UNL     1      -0.980  -0.862  24.537  0.00  0.00    +0.032 C 
ATOM     10  C   UNL     1      -3.005  -0.074  25.839  0.00  0.00    +0.012 C 
ATOM     11  C   UNL     1      -3.853  -1.265  25.349  0.00  0.00    +0.023 C 
ATOM     13  C   UNL     1      -2.988  -2.381  24.800  0.00  0.00    -0.073 C 
ATOM     14  C   UNL     1      -1.703  -2.186  24.455  0.00  0.00    -0.022 C 
ATOM     19  C   UNL     1      -3.622  -3.741  24.698  0.00  0.00    +0.039 C 
ENDROOT
BRANCH   8  12
ATOM     12  C   UNL     1      -1.163   1.554  25.335  0.00  0.00    -0.013 C 
ATOM     17  C   UNL     1      -0.315   2.156  24.218  0.00  0.00    +0.007 C 
ATOM     18  C   UNL     1      -0.295   1.177  26.530  0.00  0.00    +0.007 C 
ENDBRANCH   8  12
BRANCH   9  15
ATOM     15  C   UNL     1      -0.180  -0.636  23.248  0.00  0.00    +0.112 C 
BRANCH  15   5
ATOM      3  O   UNL     1       1.924  -0.212  21.342  0.00  0.00    -0.270 OA
ATOM      5  N   UNL     1       1.216  -0.524  23.530  0.00  0.00    -0.311 N 
ATOM     21  C   UNL     1       2.176  -0.317  22.539  0.00  0.00    +0.244 C 
ATOM     34  H   UNL     1       1.492  -0.508  24.507  0.00  0.00    +0.149 HD
BRANCH  21  26
ATOM      1  F   UNL     1       7.517  -0.061  24.252  0.00  0.00    -0.205 F 
ATOM     26  C   UNL     1       3.588  -0.249  22.993  0.00  0.00    +0.037 A 
ATOM     29  C   UNL     1       4.328   0.917  22.800  0.00  0.00    +0.016 A 
ATOM     30  C   UNL     1       4.176  -1.354  23.611  0.00  0.00    +0.016 A 
ATOM     31  C   UNL     1       5.655   0.982  23.226  0.00  0.00    +0.039 A 
ATOM     32  C   UNL     1       5.504  -1.290  24.035  0.00  0.00    +0.039 A 
ATOM     33  C   UNL     1       6.242  -0.123  23.844  0.00  0.00    +0.123 A 
ENDBRANCH  21  26
ENDBRANCH  15   5
ENDBRANCH   9  15
BRANCH  11  16
ATOM     16  C   UNL     1      -4.891  -0.816  24.317  0.00  0.00    +0.103 C 
BRANCH  16  20
ATOM      2  O   UNL     1      -4.270   1.358  23.458  0.00  0.00    -0.276 OA
ATOM      6  N   UNL     1      -5.937   1.199  25.069  0.00  0.00    -0.314 N 
ATOM     20  C   UNL     1      -4.974   0.690  24.210  0.00  0.00    +0.214 C 
ATOM     35  H   UNL     1      -6.474   0.559  25.647  0.00  0.00    +0.149 HD
BRANCH   6  22
ATOM     22  C   UNL     1      -6.230   2.609  25.180  0.00  0.00    +0.119 C 
BRANCH  22  23
ATOM     23  C   UNL     1      -5.341   3.277  26.219  0.00  0.00    +0.103 C 
BRANCH  23   7
ATOM      4  O   UNL     1      -1.952   5.298  24.791  0.00  0.00    -0.377 OA
ATOM      7  N   UNL     1      -4.018   3.543  25.658  0.00  0.00    -0.297 NA
ATOM     24  C   UNL     1      -3.185   4.281  26.617  0.00  0.00    +0.112 C 
ATOM     25  C   UNL     1      -4.126   4.296  24.402  0.00  0.00    +0.112 C 
ATOM     27  C   UNL     1      -1.813   4.560  26.006  0.00  0.00    +0.175 C 
ATOM     28  C   UNL     1      -2.733   4.572  23.841  0.00  0.00    +0.175 C 
ENDBRANCH  23   7
ENDBRANCH  22  23
ENDBRANCH   6  22
ENDBRANCH  16  20
ENDBRANCH  11  16
TORSDOF 9
ENDMDL
MODEL 3
REMARK VINA RESULT:      -0.4      2.519      6.162
REMARK  Name = 38027112
REMARK  12 active torsions:
REMARK  status: ('A' for Active; 'I' for Inactive)
REMARK    1  A    between atoms: N_5  and  C_15
REMARK    2  A    between atoms: N_6  and  C_22
REMARK    3  A    between atoms: N_7  and  C_23
REMARK    4  A    between atoms: C_8  and  C_12
REMARK    5  A    between atoms: C_9  and  C_15
REMARK    6  A    between atoms: C_11  and  C_16
REMARK    7  A    between atoms: C_12  and  C_17
REMARK    8  A    between atoms: C_12  and  C_18
REMARK    9  A    between atoms: C_13  and  C_19
REMARK   10  A    between atoms: C_16  and  C_20
REMARK   11  A    between atoms: C_21  and  C_26
REMARK   12  A    between atoms: C_22  and  C_23
REMARK                            x       y       z     vdW  Elec       q    Type
REMARK                         _______ _______ _______ _____ _____    ______ ____
ROOT
ATOM      8  C   UNL     1      -3.633  -0.968  24.943  0.00  0.00    +0.000 C 
ATOM      9  C   UNL     1      -2.285  -0.329  24.521  0.00  0.00    +0.032 C 
ATOM     10  C   UNL     1      -4.754  -0.532  23.988  0.00  0.00    +0.012 C 
ATOM     11  C   UNL     1      -4.929   0.999  23.953  0.00  0.00    +0.023 C 
ATOM     13  C   UNL     1      -3.601   1.713  23.808  0.00  0.00    -0.073 C 
ATOM     14  C   UNL     1      -2.430   1.100  24.053  0.00  0.00    -0.022 C 
ATOM     19  C   UNL     1      -3.649   3.138  23.329  0.00  0.00    +0.039 C 
ENDROOT
BRANCH   8  12
ATOM     12  C   UNL     1      -3.549  -2.496  24.984  0.00  0.00    -0.013 C 
ATOM     17  C   UNL     1      -2.095  -2.950  24.904  0.00  0.00    +0.007 C 
ATOM     18  C   UNL     1      -4.368  -3.104  23.850  0.00  0.00    +0.007 C 
ENDBRANCH   8  12
BRANCH   9  15
ATOM     15  C   UNL     1      -1.263  -0.391  25.662  0.00  0.00    +0.112 C 
BRANCH  15   5
ATOM      3  O   UNL     1      -0.289  -1.188  23.082  0.00  0.00    -0.270 OA
ATOM      5  N   UNL     1       0.065  -0.224  25.163  0.00  0.00    -0.311 N 
ATOM     21  C   UNL     1       0.456  -0.642  23.891  0.00  0.00    +0.244 C 
ATOM     34  H   UNL     1       0.714   0.303  25.739  0.00  0.00    +0.149 HD
BRANCH  21  26
ATOM      1  F   UNL     1       5.838   0.200  22.529  0.00  0.00    -0.205 F 
ATOM     26  C   UNL     1       1.880  -0.418  23.531  0.00  0.00    +0.037 A 
ATOM     29  C   UNL     1       2.254   0.737  22.847  0.00  0.00    +0.016 A 
ATOM     30  C   UNL     1       2.843  -1.367  23.878  0.00  0.00    +0.016 A 
ATOM     31  C   UNL     1       3.591   0.947  22.508  0.00  0.00    +0.039 A 
ATOM     32  C   UNL     1       4.180  -1.158  23.538  0.00  0.00    +0.039 A 
ATOM     33  C   UNL     1       4.554  -0.001  22.854  0.00  0.00    +0.123 A 
ENDBRANCH  21  26
ENDBRANCH  15   5
ENDBRANCH   9  15
BRANCH  11  16
ATOM     16  C   UNL     1      -5.688   1.496  25.188  0.00  0.00    +0.103 C 
BRANCH  16  20
ATOM      2  O   UNL     1      -5.938   3.902  25.206  0.00  0.00    -0.276 OA
ATOM      6  N   UNL     1      -4.158   2.928  26.338  0.00  0.00    -0.314 N 
ATOM     20  C   UNL     1      -5.305   2.911  25.560  0.00  0.00    +0.214 C 
ATOM     35  H   UNL     1      -3.712   2.049  26.585  0.00  0.00    +0.149 HD
BRANCH   6  22
ATOM     22  C   UNL     1      -3.561   4.146  26.837  0.00  0.00    +0.119 C 
BRANCH  22  23
ATOM     23  C   UNL     1      -2.822   4.889  25.733  0.00  0.00    +0.103 C 
BRANCH  23   7
ATOM      4  O   UNL     1       0.560   2.525  24.971  0.00  0.00    -0.377 OA
ATOM      7  N   UNL     1      -1.435   4.436  25.655  0.00  0.00    -0.297 NA
ATOM     24  C   UNL     1      -1.039   4.206  24.260  0.00  0.00    +0.112 C 
ATOM     25  C   UNL     1      -1.243   3.210  26.441  0.00  0.00    +0.112 C 
ATOM     27  C   UNL     1       0.407   3.721  24.204  0.00  0.00    +0.175 C 
ATOM     28  C   UNL     1       0.208   2.749  26.336  0.00  0.00    +0.175 C 
ENDBRANCH  23   7
ENDBRANCH  22  23
ENDBRANCH   6  22
ENDBRANCH  16  20
ENDBRANCH  11  16
TORSDOF 9
ENDMDL
MODEL 4
REMARK VINA RESULT:      -0.1      2.778      5.865
REMARK  Name = 38027112
REMARK  12 active torsions:
REMARK  status: ('A' for Active; 'I' for Inactive)
REMARK    1  A    between atoms: N_5  and  C_15
REMARK    2  A    between atoms: N_6  and  C_22
REMARK    3  A    between atoms: N_7  and  C_23
REMARK    4  A    between atoms: C_8  and  C_12
REMARK    5  A    between atoms: C_9  and  C_15
REMARK    6  A    between atoms: C_11  and  C_16
REMARK    7  A    between atoms: C_12  and  C_17
REMARK    8  A    between atoms: C_12  and  C_18
REMARK    9  A    between atoms: C_13  and  C_19
REMARK   10  A    between atoms: C_16  and  C_20
REMARK   11  A    between atoms: C_21  and  C_26
REMARK   12  A    between atoms: C_22  and  C_23
REMARK                            x       y       z     vdW  Elec       q    Type
REMARK                         _______ _______ _______ _____ _____    ______ ____
ROOT
ATOM      8  C   UNL     1      -3.026   2.339  23.227  0.00  0.00    +0.000 C 
ATOM      9  C   UNL     1      -1.506   2.213  23.502  0.00  0.00    +0.032 C 
ATOM     10  C   UNL     1      -3.579   3.628  23.850  0.00  0.00    +0.012 C 
ATOM     11  C   UNL     1      -3.352   3.684  25.374  0.00  0.00    +0.023 C 
ATOM     13  C   UNL     1      -1.933   3.308  25.745  0.00  0.00    -0.073 C 
ATOM     14  C   UNL     1      -1.118   2.663  24.892  0.00  0.00    -0.022 C 
ATOM     19  C   UNL     1      -1.455   3.731  27.107  0.00  0.00    +0.039 C 
ENDROOT
BRANCH   8  12
ATOM     12  C   UNL     1      -3.336   2.311  21.728  0.00  0.00    -0.013 C 
ATOM     17  C   UNL     1      -2.062   2.064  20.926  0.00  0.00    +0.007 C 
ATOM     18  C   UNL     1      -4.001   3.615  21.298  0.00  0.00    +0.007 C 
ENDBRANCH   8  12
BRANCH   9  15
ATOM     15  C   UNL     1      -1.019   0.777  23.276  0.00  0.00    +0.112 C 
BRANCH  15   5
ATOM      3  O   UNL     1       0.847  -0.605  21.588  0.00  0.00    -0.270 OA
ATOM      5  N   UNL     1       0.393   0.684  23.464  0.00  0.00    -0.311 N 
ATOM     21  C   UNL     1       1.232  -0.011  22.592  0.00  0.00    +0.244 C 
ATOM     34  H   UNL     1       0.797   1.228  24.221  0.00  0.00    +0.149 HD
BRANCH  21  26
ATOM      1  F   UNL     1       6.688  -0.099  23.915  0.00  0.00    -0.205 F 
ATOM     26  C   UNL     1       2.675  -0.034  22.942  0.00  0.00    +0.037 A 
ATOM     29  C   UNL     1       3.237  -1.178  23.508  0.00  0.00    +0.016 A 
ATOM     30  C   UNL     1       3.468   1.088  22.703  0.00  0.00    +0.016 A 
ATOM     31  C   UNL     1       4.593  -1.200  23.837  0.00  0.00    +0.039 A 
ATOM     32  C   UNL     1       4.824   1.067  23.033  0.00  0.00    +0.039 A 
ATOM     33  C   UNL     1       5.386  -0.077  23.599  0.00  0.00    +0.123 A 
ENDBRANCH  21  26
ENDBRANCH  15   5
ENDBRANCH   9  15
BRANCH  11  16
ATOM     16  C   UNL     1      -4.365   2.805  26.115  0.00  0.00    +0.103 C 
BRANCH  16  20
ATOM      2  O   UNL     1      -6.170   2.184  24.629  0.00  0.00    -0.276 OA
ATOM      6  N   UNL     1      -4.449   0.675  25.032  0.00  0.00    -0.314 N 
ATOM     20  C   UNL     1      -5.113   1.884  25.178  0.00  0.00    +0.214 C 
ATOM     35  H   UNL     1      -3.573   0.528  25.525  0.00  0.00    +0.149 HD
BRANCH   6  22
ATOM     22  C   UNL     1      -4.937  -0.398  24.197  0.00  0.00    +0.119 C 
BRANCH  22  23
ATOM     23  C   UNL     1      -4.219  -1.705  24.502  0.00  0.00    +0.103 C 
BRANCH  23   7
ATOM      4  O   UNL     1      -0.285  -1.993  25.933  0.00  0.00    -0.377 OA
ATOM      7  N   UNL     1      -2.789  -1.467  24.687  0.00  0.00    -0.297 NA
ATOM     24  C   UNL     1      -2.016  -2.676  24.375  0.00  0.00    +0.112 C 
ATOM     25  C   UNL     1      -2.508  -1.030  26.061  0.00  0.00    +0.112 C 
ATOM     27  C   UNL     1      -0.528  -2.409  24.588  0.00  0.00    +0.175 C 
ATOM     28  C   UNL     1      -1.009  -0.800  26.234  0.00  0.00    +0.175 C 
ENDBRANCH  23   7
ENDBRANCH  22  23
ENDBRANCH   6  22
ENDBRANCH  16  20
ENDBRANCH  11  16
TORSDOF 9
ENDMDL
MODEL 5
REMARK VINA RESULT:       1.3      1.712      2.489
REMARK  Name = 38027112
REMARK  12 active torsions:
REMARK  status: ('A' for Active; 'I' for Inactive)
REMARK    1  A    between atoms: N_5  and  C_15
REMARK    2  A    between atoms: N_6  and  C_22
REMARK    3  A    between atoms: N_7  and  C_23
REMARK    4  A    between atoms: C_8  and  C_12
REMARK    5  A    between atoms: C_9  and  C_15
REMARK    6  A    between atoms: C_11  and  C_16
REMARK    7  A    between atoms: C_12  and  C_17
REMARK    8  A    between atoms: C_12  and  C_18
REMARK    9  A    between atoms: C_13  and  C_19
REMARK   10  A    between atoms: C_16  and  C_20
REMARK   11  A    between atoms: C_21  and  C_26
REMARK   12  A    between atoms: C_22  and  C_23
REMARK                            x       y       z     vdW  Elec       q    Type
REMARK                         _______ _______ _______ _____ _____    ______ ____
ROOT
ATOM      8  C   UNL     1      -4.400   3.308  25.340  0.00  0.00    +0.000 C 
ATOM      9  C   UNL     1      -4.934   2.191  24.408  0.00  0.00    +0.032 C 
ATOM     10  C   UNL     1      -3.759   4.433  24.515  0.00  0.00    +0.012 C 
ATOM     11  C   UNL     1      -2.594   3.927  23.642  0.00  0.00    +0.023 C 
ATOM     13  C   UNL     1      -2.962   2.663  22.892  0.00  0.00    -0.073 C 
ATOM     14  C   UNL     1      -4.019   1.907  23.240  0.00  0.00    -0.022 C 
ATOM     19  C   UNL     1      -2.113   2.312  21.702  0.00  0.00    +0.039 C 
ENDROOT
BRANCH   8  12
ATOM     12  C   UNL     1      -5.505   3.881  26.231  0.00  0.00    -0.013 C 
ATOM     17  C   UNL     1      -6.516   2.795  26.589  0.00  0.00    +0.007 C 
ATOM     18  C   UNL     1      -6.193   5.053  25.539  0.00  0.00    +0.007 C 
ENDBRANCH   8  12
BRANCH   9  15
ATOM     15  C   UNL     1      -5.186   0.894  25.186  0.00  0.00    +0.112 C 
BRANCH  15   5
ATOM      3  O   UNL     1      -4.438  -1.484  23.762  0.00  0.00    -0.270 OA
ATOM      5  N   UNL     1      -3.975   0.152  25.341  0.00  0.00    -0.311 N 
ATOM     21  C   UNL     1      -3.690  -0.998  24.605  0.00  0.00    +0.244 C 
ATOM     34  H   UNL     1      -3.266   0.544  25.953  0.00  0.00    +0.149 HD
BRANCH  21  26
ATOM      1  F   UNL     1       1.192  -3.535  25.730  0.00  0.00    -0.205 F 
ATOM     26  C   UNL     1      -2.398  -1.669  24.902  0.00  0.00    +0.037 A 
ATOM     29  C   UNL     1      -2.015  -2.797  24.178  0.00  0.00    +0.016 A 
ATOM     30  C   UNL     1      -1.569  -1.170  25.907  0.00  0.00    +0.016 A 
ATOM     31  C   UNL     1      -0.802  -3.427  24.457  0.00  0.00    +0.039 A 
ATOM     32  C   UNL     1      -0.356  -1.801  26.187  0.00  0.00    +0.039 A 
ATOM     33  C   UNL     1       0.027  -2.929  25.462  0.00  0.00    +0.123 A 
ENDBRANCH  21  26
ENDBRANCH  15   5
ENDBRANCH   9  15
BRANCH  11  16
ATOM     16  C   UNL     1      -1.327   3.719  24.479  0.00  0.00    +0.103 C 
BRANCH  16  20
ATOM      2  O   UNL     1      -1.564   1.525  25.468  0.00  0.00    -0.276 OA
ATOM      6  N   UNL     1       0.018   1.863  23.800  0.00  0.00    -0.314 N 
ATOM     20  C   UNL     1      -0.997   2.255  24.659  0.00  0.00    +0.214 C 
ATOM     35  H   UNL     1       0.417   2.544  23.160  0.00  0.00    +0.149 HD
BRANCH   6  22
ATOM     22  C   UNL     1       0.539   0.517  23.756  0.00  0.00    +0.119 C 
BRANCH  22  23
ATOM     23  C   UNL     1       1.151   0.206  22.398  0.00  0.00    +0.103 C 
BRANCH  23   7
ATOM      4  O   UNL     1       4.986  -0.290  24.029  0.00  0.00    -0.377 OA
ATOM      7  N   UNL     1       2.562  -0.147  22.545  0.00  0.00    -0.297 NA
ATOM     24  C   UNL     1       2.744  -1.127  23.624  0.00  0.00    +0.112 C 
ATOM     25  C   UNL     1       3.374   1.048  22.807  0.00  0.00    +0.112 C 
ATOM     27  C   UNL     1       4.225  -1.471  23.767  0.00  0.00    +0.175 C 
ATOM     28  C   UNL     1       4.840   0.654  22.968  0.00  0.00    +0.175 C 
ENDBRANCH  23   7
ENDBRANCH  22  23
ENDBRANCH   6  22
ENDBRANCH  16  20
ENDBRANCH  11  16
TORSDOF 9
ENDMDL
MODEL 6
REMARK VINA RESULT:       1.7      2.789      5.276
REMARK  Name = 38027112
REMARK  12 active torsions:
REMARK  status: ('A' for Active; 'I' for Inactive)
REMARK    1  A    between atoms: N_5  and  C_15
REMARK    2  A    between atoms: N_6  and  C_22
REMARK    3  A    between atoms: N_7  and  C_23
REMARK    4  A    between atoms: C_8  and  C_12
REMARK    5  A    between atoms: C_9  and  C_15
REMARK    6  A    between atoms: C_11  and  C_16
REMARK    7  A    between atoms: C_12  and  C_17
REMARK    8  A    between atoms: C_12  and  C_18
REMARK    9  A    between atoms: C_13  and  C_19
REMARK   10  A    between atoms: C_16  and  C_20
REMARK   11  A    between atoms: C_21  and  C_26
REMARK   12  A    between atoms: C_22  and  C_23
REMARK                            x       y       z     vdW  Elec       q    Type
REMARK                         _______ _______ _______ _____ _____    ______ ____
ROOT
ATOM      8  C   UNL     1      -3.023   0.859  23.454  0.00  0.00    +0.000 C 
ATOM      9  C   UNL     1      -2.974   1.554  24.838  0.00  0.00    +0.032 C 
ATOM     10  C   UNL     1      -3.871  -0.420  23.526  0.00  0.00    +0.012 C 
ATOM     11  C   UNL     1      -3.325  -1.425  24.559  0.00  0.00    +0.023 C 
ATOM     13  C   UNL     1      -2.999  -0.755  25.878  0.00  0.00    -0.073 C 
ATOM     14  C   UNL     1      -2.859   0.579  25.986  0.00  0.00    -0.022 C 
ATOM     19  C   UNL     1      -2.881  -1.649  27.081  0.00  0.00    +0.039 C 
ENDROOT
BRANCH   8  12
ATOM     12  C   UNL     1      -3.575   1.788  22.370  0.00  0.00    -0.013 C 
ATOM     17  C   UNL     1      -2.474   2.164  21.383  0.00  0.00    +0.007 C 
ATOM     18  C   UNL     1      -4.186   3.036  22.999  0.00  0.00    +0.007 C 
ENDBRANCH   8  12
BRANCH   9  15
ATOM     15  C   UNL     1      -1.824   2.565  24.910  0.00  0.00    +0.112 C 
BRANCH  15   5
ATOM      3  O   UNL     1       0.834   3.504  25.449  0.00  0.00    -0.270 OA
ATOM      5  N   UNL     1      -1.104   2.429  26.136  0.00  0.00    -0.311 N 
ATOM     21  C   UNL     1       0.190   2.917  26.314  0.00  0.00    +0.244 C 
ATOM     34  H   UNL     1      -1.606   2.037  26.927  0.00  0.00    +0.149 HD
BRANCH  21  26
ATOM      1  F   UNL     1       2.536   1.992  31.331  0.00  0.00    -0.205 F 
ATOM     26  C   UNL     1       0.811   2.673  27.642  0.00  0.00    +0.037 A 
ATOM     29  C   UNL     1       2.192   2.782  27.797  0.00  0.00    +0.016 A 
ATOM     30  C   UNL     1       0.011   2.333  28.733  0.00  0.00    +0.016 A 
ATOM     31  C   UNL     1       2.775   2.553  29.043  0.00  0.00    +0.039 A 
ATOM     32  C   UNL     1       0.594   2.103  29.979  0.00  0.00    +0.039 A 
ATOM     33  C   UNL     1       1.975   2.213  30.135  0.00  0.00    +0.123 A 
ENDBRANCH  21  26
ENDBRANCH  15   5
ENDBRANCH   9  15
BRANCH  11  16
ATOM     16  C   UNL     1      -2.108  -2.176  24.009  0.00  0.00    +0.103 C 
BRANCH  16  20
ATOM      2  O   UNL     1      -0.244  -1.723  25.483  0.00  0.00    -0.276 OA
ATOM      6  N   UNL     1      -0.347  -0.673  23.412  0.00  0.00    -0.314 N 
ATOM     20  C   UNL     1      -0.806  -1.521  24.409  0.00  0.00    +0.214 C 
ATOM     35  H   UNL     1      -0.882  -0.581  22.554  0.00  0.00    +0.149 HD
BRANCH   6  22
ATOM     22  C   UNL     1       0.876   0.089  23.524  0.00  0.00    +0.119 C 
BRANCH  22  23
ATOM     23  C   UNL     1       1.690   0.016  22.240  0.00  0.00    +0.103 C 
BRANCH  23   7
ATOM      4  O   UNL     1       5.324  -0.358  24.304  0.00  0.00    -0.377 OA
ATOM      7  N   UNL     1       3.091  -0.270  22.543  0.00  0.00    -0.297 NA
ATOM     24  C   UNL     1       3.200  -1.291  23.593  0.00  0.00    +0.112 C 
ATOM     25  C   UNL     1       3.794   0.953  22.954  0.00  0.00    +0.112 C 
ATOM     27  C   UNL     1       4.670  -1.563  23.901  0.00  0.00    +0.175 C 
ATOM     28  C   UNL     1       5.251   0.629  23.275  0.00  0.00    +0.175 C 
ENDBRANCH  23   7
ENDBRANCH  22  23
ENDBRANCH   6  22
ENDBRANCH  16  20
ENDBRANCH  11  16
TORSDOF 9
ENDMDL
MODEL 7
REMARK VINA RESULT:       1.7      1.620      2.485
REMARK  Name = 38027112
REMARK  12 active torsions:
REMARK  status: ('A' for Active; 'I' for Inactive)
REMARK    1  A    between atoms: N_5  and  C_15
REMARK    2  A    between atoms: N_6  and  C_22
REMARK    3  A    between atoms: N_7  and  C_23
REMARK    4  A    between atoms: C_8  and  C_12
REMARK    5  A    between atoms: C_9  and  C_15
REMARK    6  A    between atoms: C_11  and  C_16
REMARK    7  A    between atoms: C_12  and  C_17
REMARK    8  A    between atoms: C_12  and  C_18
REMARK    9  A    between atoms: C_13  and  C_19
REMARK   10  A    between atoms: C_16  and  C_20
REMARK   11  A    between atoms: C_21  and  C_26
REMARK   12  A    between atoms: C_22  and  C_23
REMARK                            x       y       z     vdW  Elec       q    Type
REMARK                         _______ _______ _______ _____ _____    ______ ____
ROOT
ATOM      8  C   UNL     1      -2.998   3.616  25.503  0.00  0.00    +0.000 C 
ATOM      9  C   UNL     1      -3.989   3.331  24.347  0.00  0.00    +0.032 C 
ATOM     10  C   UNL     1      -1.628   4.028  24.944  0.00  0.00    +0.012 C 
ATOM     11  C   UNL     1      -1.018   2.943  24.035  0.00  0.00    +0.023 C 
ATOM     13  C   UNL     1      -2.026   2.417  23.034  0.00  0.00    -0.073 C 
ATOM     14  C   UNL     1      -3.349   2.611  23.182  0.00  0.00    -0.022 C 
ATOM     19  C   UNL     1      -1.476   1.701  21.832  0.00  0.00    +0.039 C 
ENDROOT
BRANCH   8  12
ATOM     12  C   UNL     1      -3.522   4.702  26.446  0.00  0.00    -0.013 C 
ATOM     17  C   UNL     1      -2.877   6.045  26.120  0.00  0.00    +0.007 C 
ATOM     18  C   UNL     1      -3.262   4.316  27.898  0.00  0.00    +0.007 C 
ENDBRANCH   8  12
BRANCH   9  15
ATOM     15  C   UNL     1      -5.198   2.527  24.840  0.00  0.00    +0.112 C 
BRANCH  15   5
ATOM      3  O   UNL     1      -3.234   0.816  26.046  0.00  0.00    -0.270 OA
ATOM      5  N   UNL     1      -5.016   1.132  24.593  0.00  0.00    -0.311 N 
ATOM     21  C   UNL     1      -4.032   0.372  25.225  0.00  0.00    +0.244 C 
ATOM     34  H   UNL     1      -5.697   0.674  23.996  0.00  0.00    +0.149 HD
BRANCH  21  26
ATOM      1  F   UNL     1      -3.743  -5.044  23.772  0.00  0.00    -0.205 F 
ATOM     26  C   UNL     1      -3.955  -1.061  24.840  0.00  0.00    +0.037 A 
ATOM     29  C   UNL     1      -4.550  -1.499  23.657  0.00  0.00    +0.016 A 
ATOM     30  C   UNL     1      -3.289  -1.969  25.664  0.00  0.00    +0.016 A 
ATOM     31  C   UNL     1      -4.478  -2.844  23.296  0.00  0.00    +0.039 A 
ATOM     32  C   UNL     1      -3.218  -3.315  25.303  0.00  0.00    +0.039 A 
ATOM     33  C   UNL     1      -3.811  -3.752  24.119  0.00  0.00    +0.123 A 
ENDBRANCH  21  26
ENDBRANCH  15   5
ENDBRANCH   9  15
BRANCH  11  16
ATOM     16  C   UNL     1      -0.419   1.801  24.862  0.00  0.00    +0.103 C 
BRANCH  16  20
ATOM      2  O   UNL     1      -0.768  -0.436  24.010  0.00  0.00    -0.276 OA
ATOM      6  N   UNL     1       1.047   0.804  23.258  0.00  0.00    -0.314 N 
ATOM     20  C   UNL     1      -0.096   0.592  24.014  0.00  0.00    +0.214 C 
ATOM     35  H   UNL     1       1.528   1.697  23.326  0.00  0.00    +0.149 HD
BRANCH   6  22
ATOM     22  C   UNL     1       1.592  -0.184  22.356  0.00  0.00    +0.119 C 
BRANCH  22  23
ATOM     23  C   UNL     1       2.855   0.327  21.676  0.00  0.00    +0.103 C 
BRANCH  23   7
ATOM      4  O   UNL     1       5.526  -0.518  24.800  0.00  0.00    -0.377 OA
ATOM      7  N   UNL     1       4.040  -0.117  22.406  0.00  0.00    -0.297 NA
ATOM     24  C   UNL     1       3.699  -1.189  23.351  0.00  0.00    +0.112 C 
ATOM     25  C   UNL     1       4.662   1.005  23.121  0.00  0.00    +0.112 C 
ATOM     27  C   UNL     1       4.949  -1.628  24.111  0.00  0.00    +0.175 C 
ATOM     28  C   UNL     1       5.890   0.515  23.885  0.00  0.00    +0.175 C 
ENDBRANCH  23   7
ENDBRANCH  22  23
ENDBRANCH   6  22
ENDBRANCH  16  20
ENDBRANCH  11  16
TORSDOF 9
ENDMDL
MODEL 8
REMARK VINA RESULT:       1.8      1.641      2.942
REMARK  Name = 38027112
REMARK  12 active torsions:
REMARK  status: ('A' for Active; 'I' for Inactive)
REMARK    1  A    between atoms: N_5  and  C_15
REMARK    2  A    between atoms: N_6  and  C_22
REMARK    3  A    between atoms: N_7  and  C_23
REMARK    4  A    between atoms: C_8  and  C_12
REMARK    5  A    between atoms: C_9  and  C_15
REMARK    6  A    between atoms: C_11  and  C_16
REMARK    7  A    between atoms: C_12  and  C_17
REMARK    8  A    between atoms: C_12  and  C_18
REMARK    9  A    between atoms: C_13  and  C_19
REMARK   10  A    between atoms: C_16  and  C_20
REMARK   11  A    between atoms: C_21  and  C_26
REMARK   12  A    between atoms: C_22  and  C_23
REMARK                            x       y       z     vdW  Elec       q    Type
REMARK                         _______ _______ _______ _____ _____    ______ ____
ROOT
ATOM      8  C   UNL     1      -1.286   2.929  25.942  0.00  0.00    +0.000 C 
ATOM      9  C   UNL     1      -2.466   3.838  26.369  0.00  0.00    +0.032 C 
ATOM     10  C   UNL     1      -0.044   3.774  25.626  0.00  0.00    +0.012 C 
ATOM     11  C   UNL     1      -0.304   4.797  24.502  0.00  0.00    +0.023 C 
ATOM     13  C   UNL     1      -1.599   5.552  24.718  0.00  0.00    -0.073 C 
ATOM     14  C   UNL     1      -2.548   5.116  25.566  0.00  0.00    -0.022 C 
ATOM     19  C   UNL     1      -1.761   6.846  23.970  0.00  0.00    +0.039 C 
ENDROOT
BRANCH   8  12
ATOM     12  C   UNL     1      -0.950   1.892  27.017  0.00  0.00    -0.013 C 
ATOM     17  C   UNL     1       0.324   2.289  27.757  0.00  0.00    +0.007 C 
ATOM     18  C   UNL     1      -0.804   0.508  26.394  0.00  0.00    +0.007 C 
ENDBRANCH   8  12
BRANCH   9  15
ATOM     15  C   UNL     1      -3.802   3.092  26.278  0.00  0.00    +0.112 C 
BRANCH  15   5
ATOM      3  O   UNL     1      -5.780   1.336  25.163  0.00  0.00    -0.270 OA
ATOM      5  N   UNL     1      -3.601   1.743  25.852  0.00  0.00    -0.311 N 
ATOM     21  C   UNL     1      -4.622   0.956  25.318  0.00  0.00    +0.244 C 
ATOM     34  H   UNL     1      -2.650   1.390  25.863  0.00  0.00    +0.149 HD
BRANCH  21  26
ATOM      1  F   UNL     1      -3.245  -4.301  23.910  0.00  0.00    -0.205 F 
ATOM     26  C   UNL     1      -4.258  -0.435  24.946  0.00  0.00    +0.037 A 
ATOM     29  C   UNL     1      -3.589  -1.249  25.859  0.00  0.00    +0.016 A 
ATOM     30  C   UNL     1      -4.586  -0.926  23.682  0.00  0.00    +0.016 A 
ATOM     31  C   UNL     1      -3.247  -2.556  25.509  0.00  0.00    +0.039 A 
ATOM     32  C   UNL     1      -4.243  -2.232  23.332  0.00  0.00    +0.039 A 
ATOM     33  C   UNL     1      -3.574  -3.047  24.245  0.00  0.00    +0.123 A 
ENDBRANCH  21  26
ENDBRANCH  15   5
ENDBRANCH   9  15
BRANCH  11  16
ATOM     16  C   UNL     1      -0.284   4.123  23.127  0.00  0.00    +0.103 C 
BRANCH  16  20
ATOM      2  O   UNL     1      -1.791   2.232  23.200  0.00  0.00    -0.276 OA
ATOM      6  N   UNL     1       0.503   1.871  23.292  0.00  0.00    -0.314 N 
ATOM     20  C   UNL     1      -0.638   2.655  23.207  0.00  0.00    +0.214 C 
ATOM     35  H   UNL     1       1.415   2.319  23.281  0.00  0.00    +0.149 HD
BRANCH   6  22
ATOM     22  C   UNL     1       0.465   0.430  23.383  0.00  0.00    +0.119 C 
BRANCH  22  23
ATOM     23  C   UNL     1       1.579  -0.204  22.561  0.00  0.00    +0.103 C 
BRANCH  23   7
ATOM      4  O   UNL     1       5.695  -0.285  23.376  0.00  0.00    -0.377 OA
ATOM      7  N   UNL     1       2.860  -0.069  23.252  0.00  0.00    -0.297 NA
ATOM     24  C   UNL     1       3.733   0.881  22.551  0.00  0.00    +0.112 C 
ATOM     25  C   UNL     1       3.526  -1.373  23.371  0.00  0.00    +0.112 C 
ATOM     27  C   UNL     1       5.068   0.995  23.282  0.00  0.00    +0.175 C 
ATOM     28  C   UNL     1       4.865  -1.206  24.085  0.00  0.00    +0.175 C 
ENDBRANCH  23   7
ENDBRANCH  22  23
ENDBRANCH   6  22
ENDBRANCH  16  20
ENDBRANCH  11  16
TORSDOF 9
ENDMDL
