MODEL 1
REMARK VINA RESULT:      -0.2      0.000      0.000
REMARK  Name = 26743698
REMARK  9 active torsions:
REMARK  status: ('A' for Active; 'I' for Inactive)
REMARK    1  A    between atoms: O_4  and  C_13
REMARK    2  A    between atoms: O_6  and  C_23
REMARK    3  A    between atoms: O_6  and  C_33
REMARK    4  A    between atoms: O_7  and  C_34
REMARK    5  A    between atoms: O_7  and  C_35
REMARK    6  A    between atoms: N_8  and  C_15
REMARK    7  A    between atoms: C_11  and  C_16
REMARK    8  A    between atoms: C_15  and  C_17
REMARK    9  A    between atoms: C_21  and  C_26
REMARK                            x       y       z     vdW  Elec       q    Type
REMARK                         _______ _______ _______ _____ _____    ______ ____
ROOT
ATOM      8  N   UNL     1      -4.656   2.141  25.288  0.00  0.00    -0.285 NA
ATOM     11  C   UNL     1      -4.076   2.974  24.215  0.00  0.00    +0.149 C 
ATOM     12  C   UNL     1      -4.582   4.400  24.506  0.00  0.00    +0.061 C 
ATOM     13  C   UNL     1      -5.475   4.259  25.733  0.00  0.00    +0.130 C 
ATOM     14  C   UNL     1      -5.893   2.801  25.702  0.00  0.00    +0.116 C 
ENDROOT
BRANCH  11  16
ATOM      5  O   UNL     1      -1.881   3.926  24.712  0.00  0.00    -0.336 OA
ATOM      9  N   UNL     1      -1.804   1.952  23.657  0.00  0.00    -0.190 NA
ATOM     10  N   UNL     1      -0.523   3.627  24.545  0.00  0.00    -0.056 NA
ATOM     16  C   UNL     1      -2.566   2.889  24.163  0.00  0.00    +0.245 A 
ATOM     21  C   UNL     1      -0.559   2.448  23.915  0.00  0.00    +0.202 A 
BRANCH  21  26
ATOM     26  C   UNL     1       0.628   1.740  23.533  0.00  0.00    +0.023 A 
ATOM     29  C   UNL     1       0.552   0.397  23.165  0.00  0.00    +0.015 A 
ATOM     30  C   UNL     1       1.859   2.396  23.528  0.00  0.00    +0.015 A 
ATOM     31  C   UNL     1       1.707  -0.290  22.795  0.00  0.00    +0.046 A 
ATOM     32  C   UNL     1       3.014   1.709  23.158  0.00  0.00    +0.046 A 
ATOM     34  C   UNL     1       2.938   0.366  22.790  0.00  0.00    +0.130 A 
BRANCH  34   7
ATOM      7  O   UNL     1       4.066  -0.305  22.428  0.00  0.00    -0.406 OA
BRANCH   7  35
ATOM      1  F   UNL     1       6.311  -0.335  22.662  0.00  0.00    -0.133 F 
ATOM      2  F   UNL     1       5.135   0.721  24.170  0.00  0.00    -0.133 F 
ATOM      3  F   UNL     1       5.114  -1.487  24.082  0.00  0.00    -0.133 F 
ATOM     35  C   UNL     1       5.149  -0.352  23.352  0.00  0.00    +0.575 C 
ENDBRANCH   7  35
ENDBRANCH  34   7
ENDBRANCH  21  26
ENDBRANCH  11  16
BRANCH  13   4
ATOM      4  O   UNL     1      -6.588   5.126  25.647  0.00  0.00    -0.390 OA
ATOM     36  H   UNL     1      -7.125   4.992  26.446  0.00  0.00    +0.210 HD
ENDBRANCH  13   4
BRANCH   8  15
ATOM     15  C   UNL     1      -4.880   0.760  24.886  0.00  0.00    +0.121 C 
BRANCH  15  17
ATOM     17  C   UNL     1      -3.690  -0.108  25.159  0.00  0.00    -0.025 A 
ATOM     18  C   UNL     1      -3.557  -1.388  24.598  0.00  0.00    -0.010 A 
ATOM     19  C   UNL     1      -2.703   0.406  26.002  0.00  0.00    +0.009 A 
ATOM     20  C   UNL     1      -2.408  -2.159  24.896  0.00  0.00    +0.024 A 
ATOM     22  C   UNL     1      -1.573  -0.352  26.295  0.00  0.00    +0.046 A 
ATOM     23  C   UNL     1      -1.426  -1.626  25.747  0.00  0.00    +0.128 A 
ATOM     24  C   UNL     1      -4.540  -1.922  23.749  0.00  0.00    +0.009 A 
ATOM     25  C   UNL     1      -2.276  -3.440  24.336  0.00  0.00    +0.012 A 
ATOM     27  C   UNL     1      -4.392  -3.195  23.200  0.00  0.00    +0.001 A 
ATOM     28  C   UNL     1      -3.261  -3.953  23.493  0.00  0.00    +0.001 A 
BRANCH  23   6
ATOM      6  O   UNL     1      -0.299  -2.332  26.063  0.00  0.00    -0.495 OA
ATOM     33  C   UNL     1       0.756  -2.323  25.105  0.00  0.00    +0.277 C 
ENDBRANCH  23   6
ENDBRANCH  15  17
ENDBRANCH   8  15
TORSDOF 8
ENDMDL
MODEL 2
REMARK VINA RESULT:       3.2      1.415      2.479
REMARK  Name = 26743698
REMARK  9 active torsions:
REMARK  status: ('A' for Active; 'I' for Inactive)
REMARK    1  A    between atoms: O_4  and  C_13
REMARK    2  A    between atoms: O_6  and  C_23
REMARK    3  A    between atoms: O_6  and  C_33
REMARK    4  A    between atoms: O_7  and  C_34
REMARK    5  A    between atoms: O_7  and  C_35
REMARK    6  A    between atoms: N_8  and  C_15
REMARK    7  A    between atoms: C_11  and  C_16
REMARK    8  A    between atoms: C_15  and  C_17
REMARK    9  A    between atoms: C_21  and  C_26
REMARK                            x       y       z     vdW  Elec       q    Type
REMARK                         _______ _______ _______ _____ _____    ______ ____
ROOT
ATOM      8  N   UNL     1      -3.855   2.274  25.542  0.00  0.00    -0.285 NA
ATOM     11  C   UNL     1      -3.353   2.940  24.323  0.00  0.00    +0.149 C 
ATOM     12  C   UNL     1      -2.905   4.337  24.794  0.00  0.00    +0.061 C 
ATOM     13  C   UNL     1      -3.237   4.378  26.280  0.00  0.00    +0.130 C 
ATOM     14  C   UNL     1      -4.330   3.335  26.428  0.00  0.00    +0.116 C 
ENDROOT
BRANCH  11  16
ATOM      5  O   UNL     1      -2.602   1.347  22.628  0.00  0.00    -0.336 OA
ATOM      9  N   UNL     1      -0.956   2.159  23.911  0.00  0.00    -0.190 NA
ATOM     10  N   UNL     1      -1.423   0.746  22.174  0.00  0.00    -0.056 NA
ATOM     16  C   UNL     1      -2.240   2.164  23.651  0.00  0.00    +0.245 A 
ATOM     21  C   UNL     1      -0.496   1.275  22.979  0.00  0.00    +0.202 A 
BRANCH  21  26
ATOM     26  C   UNL     1       0.895   0.943  22.879  0.00  0.00    +0.023 A 
ATOM     29  C   UNL     1       1.282  -0.313  22.414  0.00  0.00    +0.015 A 
ATOM     30  C   UNL     1       1.863   1.879  23.246  0.00  0.00    +0.015 A 
ATOM     31  C   UNL     1       2.635  -0.635  22.317  0.00  0.00    +0.046 A 
ATOM     32  C   UNL     1       3.216   1.557  23.150  0.00  0.00    +0.046 A 
ATOM     34  C   UNL     1       3.602   0.300  22.685  0.00  0.00    +0.130 A 
BRANCH  34   7
ATOM      7  O   UNL     1       4.923  -0.013  22.590  0.00  0.00    -0.406 OA
BRANCH   7  35
ATOM      1  F   UNL     1       5.220  -1.456  24.301  0.00  0.00    -0.133 F 
ATOM      2  F   UNL     1       6.966  -0.377  23.552  0.00  0.00    -0.133 F 
ATOM      3  F   UNL     1       5.413   0.681  24.714  0.00  0.00    -0.133 F 
ATOM     35  C   UNL     1       5.642  -0.277  23.791  0.00  0.00    +0.575 C 
ENDBRANCH   7  35
ENDBRANCH  34   7
ENDBRANCH  21  26
ENDBRANCH  11  16
BRANCH  13   4
ATOM      4  O   UNL     1      -3.685   5.664  26.659  0.00  0.00    -0.390 OA
ATOM     36  H   UNL     1      -3.299   6.303  26.036  0.00  0.00    +0.210 HD
ENDBRANCH  13   4
BRANCH   8  15
ATOM     15  C   UNL     1      -4.888   1.283  25.271  0.00  0.00    +0.121 C 
BRANCH  15  17
ATOM     17  C   UNL     1      -4.311  -0.041  24.876  0.00  0.00    -0.025 A 
ATOM     18  C   UNL     1      -3.026  -0.443  25.275  0.00  0.00    -0.010 A 
ATOM     19  C   UNL     1      -5.104  -0.876  24.087  0.00  0.00    +0.009 A 
ATOM     20  C   UNL     1      -2.538  -1.707  24.868  0.00  0.00    +0.024 A 
ATOM     22  C   UNL     1      -4.624  -2.119  23.687  0.00  0.00    +0.046 A 
ATOM     23  C   UNL     1      -3.349  -2.533  24.074  0.00  0.00    +0.128 A 
ATOM     24  C   UNL     1      -2.213   0.384  26.069  0.00  0.00    +0.009 A 
ATOM     25  C   UNL     1      -1.252  -2.108  25.268  0.00  0.00    +0.012 A 
ATOM     27  C   UNL     1      -0.939  -0.030  26.456  0.00  0.00    +0.001 A 
ATOM     28  C   UNL     1      -0.459  -1.274  26.056  0.00  0.00    +0.001 A 
BRANCH  23   6
ATOM      6  O   UNL     1      -2.922  -3.762  23.658  0.00  0.00    -0.495 OA
ATOM     33  C   UNL     1      -1.621  -3.829  23.079  0.00  0.00    +0.277 C 
ENDBRANCH  23   6
ENDBRANCH  15  17
ENDBRANCH   8  15
TORSDOF 8
ENDMDL
MODEL 3
REMARK VINA RESULT:       3.3      2.018      5.343
REMARK  Name = 26743698
REMARK  9 active torsions:
REMARK  status: ('A' for Active; 'I' for Inactive)
REMARK    1  A    between atoms: O_4  and  C_13
REMARK    2  A    between atoms: O_6  and  C_23
REMARK    3  A    between atoms: O_6  and  C_33
REMARK    4  A    between atoms: O_7  and  C_34
REMARK    5  A    between atoms: O_7  and  C_35
REMARK    6  A    between atoms: N_8  and  C_15
REMARK    7  A    between atoms: C_11  and  C_16
REMARK    8  A    between atoms: C_15  and  C_17
REMARK    9  A    between atoms: C_21  and  C_26
REMARK                            x       y       z     vdW  Elec       q    Type
REMARK                         _______ _______ _______ _____ _____    ______ ____
ROOT
ATOM      8  N   UNL     1      -3.218  -1.042  24.721  0.00  0.00    -0.285 NA
ATOM     11  C   UNL     1      -1.984  -1.851  24.657  0.00  0.00    +0.149 C 
ATOM     12  C   UNL     1      -2.373  -3.098  23.839  0.00  0.00    +0.061 C 
ATOM     13  C   UNL     1      -3.854  -2.920  23.529  0.00  0.00    +0.130 C 
ATOM     14  C   UNL     1      -4.334  -1.980  24.619  0.00  0.00    +0.116 C 
ENDROOT
BRANCH  11  16
ATOM      5  O   UNL     1      -1.131  -0.117  23.160  0.00  0.00    -0.336 OA
ATOM      9  N   UNL     1       0.464  -1.241  24.259  0.00  0.00    -0.190 NA
ATOM     10  N   UNL     1       0.088   0.431  22.744  0.00  0.00    -0.056 NA
ATOM     16  C   UNL     1      -0.821  -1.094  24.052  0.00  0.00    +0.245 A 
ATOM     21  C   UNL     1       0.981  -0.284  23.435  0.00  0.00    +0.202 A 
BRANCH  21  26
ATOM     26  C   UNL     1       2.394  -0.066  23.328  0.00  0.00    +0.023 A 
ATOM     29  C   UNL     1       2.878   1.127  22.792  0.00  0.00    +0.015 A 
ATOM     30  C   UNL     1       3.285  -1.049  23.760  0.00  0.00    +0.015 A 
ATOM     31  C   UNL     1       4.252   1.337  22.688  0.00  0.00    +0.046 A 
ATOM     32  C   UNL     1       4.659  -0.839  23.655  0.00  0.00    +0.046 A 
ATOM     34  C   UNL     1       5.143   0.354  23.119  0.00  0.00    +0.130 A 
BRANCH  34   7
ATOM      7  O   UNL     1       6.485   0.559  23.018  0.00  0.00    -0.406 OA
BRANCH   7  35
ATOM      1  F   UNL     1       6.959  -1.223  24.319  0.00  0.00    -0.133 F 
ATOM      2  F   UNL     1       7.300  -1.402  22.169  0.00  0.00    -0.133 F 
ATOM      3  F   UNL     1       8.626  -0.143  23.410  0.00  0.00    -0.133 F 
ATOM     35  C   UNL     1       7.354  -0.551  23.215  0.00  0.00    +0.575 C 
ENDBRANCH   7  35
ENDBRANCH  34   7
ENDBRANCH  21  26
ENDBRANCH  11  16
BRANCH  13   4
ATOM      4  O   UNL     1      -4.529  -4.162  23.573  0.00  0.00    -0.390 OA
ATOM     36  H   UNL     1      -5.415  -4.026  23.196  0.00  0.00    +0.210 HD
ENDBRANCH  13   4
BRANCH   8  15
ATOM     15  C   UNL     1      -3.302  -0.217  25.919  0.00  0.00    +0.121 C 
BRANCH  15  17
ATOM     17  C   UNL     1      -3.724   1.186  25.610  0.00  0.00    -0.025 A 
ATOM     18  C   UNL     1      -2.794   2.230  25.473  0.00  0.00    -0.010 A 
ATOM     19  C   UNL     1      -5.090   1.426  25.459  0.00  0.00    +0.009 A 
ATOM     20  C   UNL     1      -3.257   3.535  25.181  0.00  0.00    +0.024 A 
ATOM     22  C   UNL     1      -5.545   2.709  25.173  0.00  0.00    +0.046 A 
ATOM     23  C   UNL     1      -4.636   3.758  25.034  0.00  0.00    +0.128 A 
ATOM     24  C   UNL     1      -1.416   2.007  25.621  0.00  0.00    +0.009 A 
ATOM     25  C   UNL     1      -2.327   4.579  25.046  0.00  0.00    +0.012 A 
ATOM     27  C   UNL     1      -0.506   3.056  25.483  0.00  0.00    +0.001 A 
ATOM     28  C   UNL     1      -0.961   4.340  25.195  0.00  0.00    +0.001 A 
BRANCH  23   6
ATOM      6  O   UNL     1      -5.129   5.000  24.751  0.00  0.00    -0.495 OA
ATOM     33  C   UNL     1      -6.313   5.394  25.439  0.00  0.00    +0.277 C 
ENDBRANCH  23   6
ENDBRANCH  15  17
ENDBRANCH   8  15
TORSDOF 8
ENDMDL
MODEL 4
REMARK VINA RESULT:       3.8      1.802      4.712
REMARK  Name = 26743698
REMARK  9 active torsions:
REMARK  status: ('A' for Active; 'I' for Inactive)
REMARK    1  A    between atoms: O_4  and  C_13
REMARK    2  A    between atoms: O_6  and  C_23
REMARK    3  A    between atoms: O_6  and  C_33
REMARK    4  A    between atoms: O_7  and  C_34
REMARK    5  A    between atoms: O_7  and  C_35
REMARK    6  A    between atoms: N_8  and  C_15
REMARK    7  A    between atoms: C_11  and  C_16
REMARK    8  A    between atoms: C_15  and  C_17
REMARK    9  A    between atoms: C_21  and  C_26
REMARK                            x       y       z     vdW  Elec       q    Type
REMARK                         _______ _______ _______ _____ _____    ______ ____
ROOT
ATOM      8  N   UNL     1      -3.364  -1.132  23.404  0.00  0.00    -0.285 NA
ATOM     11  C   UNL     1      -2.793  -0.790  24.722  0.00  0.00    +0.149 C 
ATOM     12  C   UNL     1      -2.826  -2.107  25.520  0.00  0.00    +0.061 C 
ATOM     13  C   UNL     1      -3.474  -3.119  24.583  0.00  0.00    +0.130 C 
ATOM     14  C   UNL     1      -4.273  -2.255  23.626  0.00  0.00    +0.116 C 
ENDROOT
BRANCH  11  16
ATOM      5  O   UNL     1      -1.179   0.951  25.303  0.00  0.00    -0.336 OA
ATOM      9  N   UNL     1      -0.360  -0.643  23.961  0.00  0.00    -0.190 NA
ATOM     10  N   UNL     1       0.156   1.295  25.060  0.00  0.00    -0.056 NA
ATOM     16  C   UNL     1      -1.401  -0.202  24.620  0.00  0.00    +0.245 A 
ATOM     21  C   UNL     1       0.571   0.308  24.260  0.00  0.00    +0.202 A 
BRANCH  21  26
ATOM     26  C   UNL     1       1.909   0.241  23.746  0.00  0.00    +0.023 A 
ATOM     29  C   UNL     1       2.503   1.376  23.196  0.00  0.00    +0.015 A 
ATOM     30  C   UNL     1       2.615  -0.961  23.797  0.00  0.00    +0.015 A 
ATOM     31  C   UNL     1       3.802   1.309  22.695  0.00  0.00    +0.046 A 
ATOM     32  C   UNL     1       3.915  -1.028  23.296  0.00  0.00    +0.046 A 
ATOM     34  C   UNL     1       4.509   0.107  22.746  0.00  0.00    +0.130 A 
BRANCH  34   7
ATOM      7  O   UNL     1       5.777   0.042  22.258  0.00  0.00    -0.406 OA
BRANCH   7  35
ATOM      1  F   UNL     1       7.135   0.738  23.922  0.00  0.00    -0.133 F 
ATOM      2  F   UNL     1       6.439  -1.333  23.961  0.00  0.00    -0.133 F 
ATOM      3  F   UNL     1       7.935  -0.685  22.470  0.00  0.00    -0.133 F 
ATOM     35  C   UNL     1       6.825  -0.327  23.149  0.00  0.00    +0.575 C 
ENDBRANCH   7  35
ENDBRANCH  34   7
ENDBRANCH  21  26
ENDBRANCH  11  16
BRANCH  13   4
ATOM      4  O   UNL     1      -4.303  -4.010  25.302  0.00  0.00    -0.390 OA
ATOM     36  H   UNL     1      -5.225  -3.746  25.140  0.00  0.00    +0.210 HD
ENDBRANCH  13   4
BRANCH   8  15
ATOM     15  C   UNL     1      -4.029  -0.009  22.757  0.00  0.00    +0.121 C 
BRANCH  15  17
ATOM     17  C   UNL     1      -3.626   1.305  23.352  0.00  0.00    -0.025 A 
ATOM     18  C   UNL     1      -4.348   1.902  24.399  0.00  0.00    -0.010 A 
ATOM     19  C   UNL     1      -2.493   1.927  22.825  0.00  0.00    +0.009 A 
ATOM     20  C   UNL     1      -3.915   3.145  24.918  0.00  0.00    +0.024 A 
ATOM     22  C   UNL     1      -2.068   3.150  23.335  0.00  0.00    +0.046 A 
ATOM     23  C   UNL     1      -2.774   3.756  24.374  0.00  0.00    +0.128 A 
ATOM     24  C   UNL     1      -5.490   1.291  24.942  0.00  0.00    +0.009 A 
ATOM     25  C   UNL     1      -4.639   3.741  25.964  0.00  0.00    +0.012 A 
ATOM     27  C   UNL     1      -6.196   1.897  25.981  0.00  0.00    +0.001 A 
ATOM     28  C   UNL     1      -5.770   3.120  26.492  0.00  0.00    +0.001 A 
BRANCH  23   6
ATOM      6  O   UNL     1      -2.318   4.956  24.843  0.00  0.00    -0.495 OA
ATOM     33  C   UNL     1      -0.907   5.099  24.981  0.00  0.00    +0.277 C 
ENDBRANCH  23   6
ENDBRANCH  15  17
ENDBRANCH   8  15
TORSDOF 8
ENDMDL
