MODEL 1
REMARK VINA RESULT:      -2.5      0.000      0.000
REMARK  Name = 45784193
REMARK  6 active torsions:
REMARK  status: ('A' for Active; 'I' for Inactive)
REMARK    1  A    between atoms: O_2  and  C_14
REMARK    2  A    between atoms: O_2  and  C_24
REMARK    3  A    between atoms: N_3  and  C_9
REMARK    4  A    between atoms: C_5  and  C_10
REMARK    5  A    between atoms: C_9  and  C_11
REMARK    6  A    between atoms: C_18  and  C_23
REMARK                            x       y       z     vdW  Elec       q    Type
REMARK                         _______ _______ _______ _____ _____    ______ ____
ROOT
ATOM      3  N   UNL     1      -2.827   0.057  24.575  0.00  0.00    -0.297 NA
ATOM      5  C   UNL     1      -0.891  -0.805  23.573  0.00  0.00    +0.090 C 
ATOM      6  C   UNL     1      -1.380  -1.774  24.664  0.00  0.00    +0.029 C 
ATOM      7  C   UNL     1      -1.632   0.507  23.857  0.00  0.00    +0.097 C 
ATOM      8  C   UNL     1      -2.343  -0.956  25.514  0.00  0.00    +0.085 C 
ENDROOT
BRANCH   5  10
ATOM      1  O   UNL     1       1.050   0.556  23.003  0.00  0.00    -0.439 OA
ATOM      4  N   UNL     1       1.547  -1.478  23.870  0.00  0.00    -0.213 NA
ATOM     10  C   UNL     1       0.610  -0.631  23.506  0.00  0.00    +0.201 A 
ATOM     12  C   UNL     1       2.710  -0.803  23.588  0.00  0.00    +0.110 A 
ATOM     13  C   UNL     1       2.410   0.442  23.056  0.00  0.00    +0.155 A 
ATOM     16  C   UNL     1       4.056  -1.165  23.747  0.00  0.00    +0.035 A 
ATOM     17  C   UNL     1       3.352   1.383  22.661  0.00  0.00    +0.049 A 
ATOM     18  C   UNL     1       5.037  -0.241  23.359  0.00  0.00    -0.048 A 
ATOM     21  C   UNL     1       4.690   1.007  22.827  0.00  0.00    +0.007 A 
ATOM     23  C   UNL     1       6.479  -0.597  23.516  0.00  0.00    +0.044 C 
ENDBRANCH   5  10
BRANCH   3   9
ATOM      9  C   UNL     1      -3.516   1.150  25.246  0.00  0.00    +0.123 C 
BRANCH   9  11
ATOM     11  C   UNL     1      -2.712   2.421  25.219  0.00  0.00    +0.008 A 
ATOM     14  C   UNL     1      -3.302   3.631  24.854  0.00  0.00    +0.124 A 
ATOM     15  C   UNL     1      -1.360   2.381  25.563  0.00  0.00    +0.008 A 
ATOM     19  C   UNL     1      -2.541   4.801  24.833  0.00  0.00    +0.046 A 
ATOM     20  C   UNL     1      -0.600   3.550  25.542  0.00  0.00    +0.001 A 
ATOM     22  C   UNL     1      -1.190   4.760  25.178  0.00  0.00    +0.004 A 
BRANCH  14   2
ATOM      2  O   UNL     1      -4.620   3.689  24.514  0.00  0.00    -0.495 OA
ATOM     24  C   UNL     1      -5.556   3.860  25.577  0.00  0.00    +0.277 C 
ENDBRANCH  14   2
ENDBRANCH   9  11
ENDBRANCH   3   9
TORSDOF 4
ENDMDL
MODEL 2
REMARK VINA RESULT:      -1.5      1.253      2.196
REMARK  Name = 45784193
REMARK  6 active torsions:
REMARK  status: ('A' for Active; 'I' for Inactive)
REMARK    1  A    between atoms: O_2  and  C_14
REMARK    2  A    between atoms: O_2  and  C_24
REMARK    3  A    between atoms: N_3  and  C_9
REMARK    4  A    between atoms: C_5  and  C_10
REMARK    5  A    between atoms: C_9  and  C_11
REMARK    6  A    between atoms: C_18  and  C_23
REMARK                            x       y       z     vdW  Elec       q    Type
REMARK                         _______ _______ _______ _____ _____    ______ ____
ROOT
ATOM      3  N   UNL     1      -3.206  -0.754  24.429  0.00  0.00    -0.297 NA
ATOM      5  C   UNL     1      -0.978  -1.463  24.598  0.00  0.00    +0.090 C 
ATOM      6  C   UNL     1      -1.449  -0.919  25.959  0.00  0.00    +0.029 C 
ATOM      7  C   UNL     1      -2.020  -0.955  23.594  0.00  0.00    +0.097 C 
ATOM      8  C   UNL     1      -2.706  -0.117  25.648  0.00  0.00    +0.085 C 
ENDROOT
BRANCH   5  10
ATOM      1  O   UNL     1       0.584   0.096  23.562  0.00  0.00    -0.439 OA
ATOM      4  N   UNL     1       1.547  -1.756  24.445  0.00  0.00    -0.213 NA
ATOM     10  C   UNL     1       0.438  -1.088  24.220  0.00  0.00    +0.201 A 
ATOM     12  C   UNL     1       2.516  -0.954  23.891  0.00  0.00    +0.110 A 
ATOM     13  C   UNL     1       1.930   0.180  23.350  0.00  0.00    +0.155 A 
ATOM     16  C   UNL     1       3.908  -1.106  23.802  0.00  0.00    +0.035 A 
ATOM     17  C   UNL     1       2.622   1.202  22.712  0.00  0.00    +0.049 A 
ATOM     18  C   UNL     1       4.642  -0.095  23.164  0.00  0.00    -0.048 A 
ATOM     21  C   UNL     1       4.009   1.035  22.632  0.00  0.00    +0.007 A 
ATOM     23  C   UNL     1       6.125  -0.228  23.053  0.00  0.00    +0.044 C 
ENDBRANCH   5  10
BRANCH   3   9
ATOM      9  C   UNL     1      -4.225   0.046  23.764  0.00  0.00    +0.123 C 
BRANCH   9  11
ATOM     11  C   UNL     1      -4.444   1.363  24.457  0.00  0.00    +0.008 A 
ATOM     14  C   UNL     1      -3.604   2.449  24.208  0.00  0.00    +0.124 A 
ATOM     15  C   UNL     1      -5.501   1.492  25.359  0.00  0.00    +0.008 A 
ATOM     19  C   UNL     1      -3.822   3.664  24.860  0.00  0.00    +0.046 A 
ATOM     20  C   UNL     1      -5.718   2.707  26.011  0.00  0.00    +0.001 A 
ATOM     22  C   UNL     1      -4.879   3.792  25.761  0.00  0.00    +0.004 A 
BRANCH  14   2
ATOM      2  O   UNL     1      -2.567   2.341  23.331  0.00  0.00    -0.495 OA
ATOM     24  C   UNL     1      -1.277   2.727  23.803  0.00  0.00    +0.277 C 
ENDBRANCH  14   2
ENDBRANCH   9  11
ENDBRANCH   3   9
TORSDOF 4
ENDMDL
MODEL 3
REMARK VINA RESULT:      -1.0      2.140      4.181
REMARK  Name = 45784193
REMARK  6 active torsions:
REMARK  status: ('A' for Active; 'I' for Inactive)
REMARK    1  A    between atoms: O_2  and  C_14
REMARK    2  A    between atoms: O_2  and  C_24
REMARK    3  A    between atoms: N_3  and  C_9
REMARK    4  A    between atoms: C_5  and  C_10
REMARK    5  A    between atoms: C_9  and  C_11
REMARK    6  A    between atoms: C_18  and  C_23
REMARK                            x       y       z     vdW  Elec       q    Type
REMARK                         _______ _______ _______ _____ _____    ______ ____
ROOT
ATOM      3  N   UNL     1      -3.458   1.778  24.549  0.00  0.00    -0.297 NA
ATOM      5  C   UNL     1      -1.279   2.343  23.894  0.00  0.00    +0.090 C 
ATOM      6  C   UNL     1      -2.192   2.300  22.656  0.00  0.00    +0.029 C 
ATOM      7  C   UNL     1      -2.070   1.616  24.987  0.00  0.00    +0.097 C 
ATOM      8  C   UNL     1      -3.428   1.533  23.107  0.00  0.00    +0.085 C 
ENDROOT
BRANCH   5  10
ATOM      1  O   UNL     1       0.151   0.461  23.296  0.00  0.00    -0.439 OA
ATOM      4  N   UNL     1       1.267   2.361  23.824  0.00  0.00    -0.213 NA
ATOM     10  C   UNL     1       0.103   1.766  23.683  0.00  0.00    +0.201 A 
ATOM     12  C   UNL     1       2.167   1.373  23.506  0.00  0.00    +0.110 A 
ATOM     13  C   UNL     1       1.488   0.209  23.182  0.00  0.00    +0.155 A 
ATOM     16  C   UNL     1       3.570   1.374  23.465  0.00  0.00    +0.035 A 
ATOM     17  C   UNL     1       2.094  -0.985  22.811  0.00  0.00    +0.049 A 
ATOM     18  C   UNL     1       4.218   0.186  23.095  0.00  0.00    -0.048 A 
ATOM     21  C   UNL     1       3.492  -0.968  22.775  0.00  0.00    +0.007 A 
ATOM     23  C   UNL     1       5.710   0.154  23.042  0.00  0.00    +0.044 C 
ENDBRANCH   5  10
BRANCH   3   9
ATOM      9  C   UNL     1      -4.370   0.882  25.245  0.00  0.00    +0.123 C 
BRANCH   9  11
ATOM     11  C   UNL     1      -4.114  -0.559  24.897  0.00  0.00    +0.008 A 
ATOM     14  C   UNL     1      -3.139  -1.294  25.570  0.00  0.00    +0.124 A 
ATOM     15  C   UNL     1      -4.866  -1.160  23.886  0.00  0.00    +0.008 A 
ATOM     19  C   UNL     1      -2.914  -2.630  25.235  0.00  0.00    +0.046 A 
ATOM     20  C   UNL     1      -4.641  -2.496  23.551  0.00  0.00    +0.001 A 
ATOM     22  C   UNL     1      -3.666  -3.231  24.224  0.00  0.00    +0.004 A 
BRANCH  14   2
ATOM      2  O   UNL     1      -2.395  -0.723  26.559  0.00  0.00    -0.495 OA
ATOM     24  C   UNL     1      -0.976  -0.810  26.435  0.00  0.00    +0.277 C 
ENDBRANCH  14   2
ENDBRANCH   9  11
ENDBRANCH   3   9
TORSDOF 4
ENDMDL
MODEL 4
REMARK VINA RESULT:      -0.9      1.388      2.672
REMARK  Name = 45784193
REMARK  6 active torsions:
REMARK  status: ('A' for Active; 'I' for Inactive)
REMARK    1  A    between atoms: O_2  and  C_14
REMARK    2  A    between atoms: O_2  and  C_24
REMARK    3  A    between atoms: N_3  and  C_9
REMARK    4  A    between atoms: C_5  and  C_10
REMARK    5  A    between atoms: C_9  and  C_11
REMARK    6  A    between atoms: C_18  and  C_23
REMARK                            x       y       z     vdW  Elec       q    Type
REMARK                         _______ _______ _______ _____ _____    ______ ____
ROOT
ATOM      3  N   UNL     1      -1.493   1.031  24.502  0.00  0.00    -0.297 NA
ATOM      5  C   UNL     1       0.362   0.446  23.194  0.00  0.00    +0.090 C 
ATOM      6  C   UNL     1      -0.483  -0.808  23.477  0.00  0.00    +0.029 C 
ATOM      7  C   UNL     1      -0.133   1.486  24.207  0.00  0.00    +0.097 C 
ATOM      8  C   UNL     1      -1.384  -0.421  24.643  0.00  0.00    +0.085 C 
ENDROOT
BRANCH   5  10
ATOM      1  O   UNL     1       2.265  -1.024  23.598  0.00  0.00    -0.439 OA
ATOM      4  N   UNL     1       2.818   1.096  23.018  0.00  0.00    -0.213 NA
ATOM     10  C   UNL     1       1.858   0.230  23.255  0.00  0.00    +0.201 A 
ATOM     12  C   UNL     1       3.962   0.361  23.220  0.00  0.00    +0.110 A 
ATOM     13  C   UNL     1       3.627  -0.936  23.575  0.00  0.00    +0.155 A 
ATOM     16  C   UNL     1       5.318   0.710  23.126  0.00  0.00    +0.035 A 
ATOM     17  C   UNL     1       4.543  -1.944  23.851  0.00  0.00    +0.049 A 
ATOM     18  C   UNL     1       6.273  -0.280  23.397  0.00  0.00    -0.048 A 
ATOM     21  C   UNL     1       5.891  -1.580  23.752  0.00  0.00    +0.007 A 
ATOM     23  C   UNL     1       7.724   0.060  23.306  0.00  0.00    +0.044 C 
ENDBRANCH   5  10
BRANCH   3   9
ATOM      9  C   UNL     1      -2.045   1.663  25.692  0.00  0.00    +0.123 C 
BRANCH   9  11
ATOM     11  C   UNL     1      -3.471   2.099  25.485  0.00  0.00    +0.008 A 
ATOM     14  C   UNL     1      -3.859   3.414  25.741  0.00  0.00    +0.124 A 
ATOM     15  C   UNL     1      -4.408   1.171  25.031  0.00  0.00    +0.008 A 
ATOM     19  C   UNL     1      -5.185   3.801  25.544  0.00  0.00    +0.046 A 
ATOM     20  C   UNL     1      -5.734   1.558  24.834  0.00  0.00    +0.001 A 
ATOM     22  C   UNL     1      -6.123   2.873  25.090  0.00  0.00    +0.004 A 
BRANCH  14   2
ATOM      2  O   UNL     1      -2.957   4.333  26.186  0.00  0.00    -0.495 OA
ATOM     24  C   UNL     1      -1.972   4.777  25.254  0.00  0.00    +0.277 C 
ENDBRANCH  14   2
ENDBRANCH   9  11
ENDBRANCH   3   9
TORSDOF 4
ENDMDL
MODEL 5
REMARK VINA RESULT:      -0.2      1.634      2.861
REMARK  Name = 45784193
REMARK  6 active torsions:
REMARK  status: ('A' for Active; 'I' for Inactive)
REMARK    1  A    between atoms: O_2  and  C_14
REMARK    2  A    between atoms: O_2  and  C_24
REMARK    3  A    between atoms: N_3  and  C_9
REMARK    4  A    between atoms: C_5  and  C_10
REMARK    5  A    between atoms: C_9  and  C_11
REMARK    6  A    between atoms: C_18  and  C_23
REMARK                            x       y       z     vdW  Elec       q    Type
REMARK                         _______ _______ _______ _____ _____    ______ ____
ROOT
ATOM      3  N   UNL     1      -1.701   1.424  23.928  0.00  0.00    -0.297 NA
ATOM      5  C   UNL     1       0.107   0.029  23.395  0.00  0.00    +0.090 C 
ATOM      6  C   UNL     1      -0.572  -0.477  24.681  0.00  0.00    +0.029 C 
ATOM      7  C   UNL     1      -0.424   1.456  23.211  0.00  0.00    +0.097 C 
ATOM      8  C   UNL     1      -1.421   0.691  25.164  0.00  0.00    +0.085 C 
ENDROOT
BRANCH   5  10
ATOM      1  O   UNL     1       2.154  -1.254  23.718  0.00  0.00    -0.439 OA
ATOM      4  N   UNL     1       2.481   0.916  23.151  0.00  0.00    -0.213 NA
ATOM     10  C   UNL     1       1.617  -0.042  23.405  0.00  0.00    +0.201 A 
ATOM     12  C   UNL     1       3.697   0.294  23.306  0.00  0.00    +0.110 A 
ATOM     13  C   UNL     1       3.501  -1.034  23.653  0.00  0.00    +0.155 A 
ATOM     16  C   UNL     1       5.008   0.774  23.174  0.00  0.00    +0.035 A 
ATOM     17  C   UNL     1       4.518  -1.951  23.885  0.00  0.00    +0.049 A 
ATOM     18  C   UNL     1       6.063  -0.122  23.401  0.00  0.00    -0.048 A 
ATOM     21  C   UNL     1       5.820  -1.457  23.749  0.00  0.00    +0.007 A 
ATOM     23  C   UNL     1       7.471   0.358  23.268  0.00  0.00    +0.044 C 
ENDBRANCH   5  10
BRANCH   3   9
ATOM      9  C   UNL     1      -2.229   2.756  24.182  0.00  0.00    +0.123 C 
BRANCH   9  11
ATOM     11  C   UNL     1      -3.646   2.710  24.688  0.00  0.00    +0.008 A 
ATOM     14  C   UNL     1      -4.457   1.604  24.437  0.00  0.00    +0.124 A 
ATOM     15  C   UNL     1      -4.146   3.791  25.415  0.00  0.00    +0.008 A 
ATOM     19  C   UNL     1      -5.769   1.578  24.913  0.00  0.00    +0.046 A 
ATOM     20  C   UNL     1      -5.458   3.765  25.891  0.00  0.00    +0.001 A 
ATOM     22  C   UNL     1      -6.269   2.658  25.640  0.00  0.00    +0.004 A 
BRANCH  14   2
ATOM      2  O   UNL     1      -3.986   0.540  23.727  0.00  0.00    -0.495 OA
ATOM     24  C   UNL     1      -4.360  -0.759  24.182  0.00  0.00    +0.277 C 
ENDBRANCH  14   2
ENDBRANCH   9  11
ENDBRANCH   3   9
TORSDOF 4
ENDMDL
MODEL 6
REMARK VINA RESULT:      -0.2      1.673      7.573
REMARK  Name = 45784193
REMARK  6 active torsions:
REMARK  status: ('A' for Active; 'I' for Inactive)
REMARK    1  A    between atoms: O_2  and  C_14
REMARK    2  A    between atoms: O_2  and  C_24
REMARK    3  A    between atoms: N_3  and  C_9
REMARK    4  A    between atoms: C_5  and  C_10
REMARK    5  A    between atoms: C_9  and  C_11
REMARK    6  A    between atoms: C_18  and  C_23
REMARK                            x       y       z     vdW  Elec       q    Type
REMARK                         _______ _______ _______ _____ _____    ______ ____
ROOT
ATOM      3  N   UNL     1       0.729  -0.830  23.795  0.00  0.00    -0.297 NA
ATOM      5  C   UNL     1      -1.022  -0.100  25.173  0.00  0.00    +0.090 C 
ATOM      6  C   UNL     1      -1.361  -1.489  24.603  0.00  0.00    +0.029 C 
ATOM      7  C   UNL     1       0.131   0.408  24.299  0.00  0.00    +0.097 C 
ATOM      8  C   UNL     1      -0.407  -1.676  23.430  0.00  0.00    +0.085 C 
ENDROOT
BRANCH   5  10
ATOM      1  O   UNL     1      -3.426   0.305  25.134  0.00  0.00    -0.439 OA
ATOM      4  N   UNL     1      -2.159   2.170  25.366  0.00  0.00    -0.213 NA
ATOM     10  C   UNL     1      -2.187   0.863  25.232  0.00  0.00    +0.201 A 
ATOM     12  C   UNL     1      -3.489   2.517  25.356  0.00  0.00    +0.110 A 
ATOM     13  C   UNL     1      -4.267   1.378  25.214  0.00  0.00    +0.155 A 
ATOM     16  C   UNL     1      -4.124   3.763  25.462  0.00  0.00    +0.035 A 
ATOM     17  C   UNL     1      -5.656   1.368  25.168  0.00  0.00    +0.049 A 
ATOM     18  C   UNL     1      -5.525   3.794  25.419  0.00  0.00    -0.048 A 
ATOM     21  C   UNL     1      -6.274   2.619  25.275  0.00  0.00    +0.007 A 
ATOM     23  C   UNL     1      -6.231   5.105  25.528  0.00  0.00    +0.044 C 
ENDBRANCH   5  10
BRANCH   3   9
ATOM      9  C   UNL     1       1.629  -0.597  22.675  0.00  0.00    +0.123 C 
BRANCH   9  11
ATOM     11  C   UNL     1       3.065  -0.514  23.118  0.00  0.00    +0.008 A 
ATOM     14  C   UNL     1       3.769   0.687  23.034  0.00  0.00    +0.124 A 
ATOM     15  C   UNL     1       3.692  -1.656  23.618  0.00  0.00    +0.008 A 
ATOM     19  C   UNL     1       5.100   0.746  23.448  0.00  0.00    +0.046 A 
ATOM     20  C   UNL     1       5.022  -1.597  24.032  0.00  0.00    +0.001 A 
ATOM     22  C   UNL     1       5.727  -0.396  23.948  0.00  0.00    +0.004 A 
BRANCH  14   2
ATOM      2  O   UNL     1       3.173   1.812  22.547  0.00  0.00    -0.495 OA
ATOM     24  C   UNL     1       2.089   2.348  23.303  0.00  0.00    +0.277 C 
ENDBRANCH  14   2
ENDBRANCH   9  11
ENDBRANCH   3   9
TORSDOF 4
ENDMDL
MODEL 7
REMARK VINA RESULT:       0.7      2.155      4.283
REMARK  Name = 45784193
REMARK  6 active torsions:
REMARK  status: ('A' for Active; 'I' for Inactive)
REMARK    1  A    between atoms: O_2  and  C_14
REMARK    2  A    between atoms: O_2  and  C_24
REMARK    3  A    between atoms: N_3  and  C_9
REMARK    4  A    between atoms: C_5  and  C_10
REMARK    5  A    between atoms: C_9  and  C_11
REMARK    6  A    between atoms: C_18  and  C_23
REMARK                            x       y       z     vdW  Elec       q    Type
REMARK                         _______ _______ _______ _____ _____    ______ ____
ROOT
ATOM      3  N   UNL     1      -3.298   4.723  25.917  0.00  0.00    -0.297 NA
ATOM      5  C   UNL     1      -1.130   3.848  25.750  0.00  0.00    +0.090 C 
ATOM      6  C   UNL     1      -1.161   5.262  25.144  0.00  0.00    +0.029 C 
ATOM      7  C   UNL     1      -2.603   3.436  25.853  0.00  0.00    +0.097 C 
ATOM      8  C   UNL     1      -2.637   5.559  24.914  0.00  0.00    +0.085 C 
ENDROOT
BRANCH   5  10
ATOM      1  O   UNL     1      -0.841   1.614  24.816  0.00  0.00    -0.439 OA
ATOM      4  N   UNL     1       0.905   3.016  24.464  0.00  0.00    -0.213 NA
ATOM     10  C   UNL     1      -0.290   2.849  24.987  0.00  0.00    +0.201 A 
ATOM     12  C   UNL     1       1.176   1.793  23.898  0.00  0.00    +0.110 A 
ATOM     13  C   UNL     1       0.110   0.933  24.112  0.00  0.00    +0.155 A 
ATOM     16  C   UNL     1       2.293   1.326  23.189  0.00  0.00    +0.035 A 
ATOM     17  C   UNL     1       0.054  -0.383  23.671  0.00  0.00    +0.049 A 
ATOM     18  C   UNL     1       2.274   0.002  22.728  0.00  0.00    -0.048 A 
ATOM     21  C   UNL     1       1.175  -0.834  22.966  0.00  0.00    +0.007 A 
ATOM     23  C   UNL     1       3.447  -0.525  21.970  0.00  0.00    +0.044 C 
ENDBRANCH   5  10
BRANCH   3   9
ATOM      9  C   UNL     1      -4.728   4.596  25.676  0.00  0.00    +0.123 C 
BRANCH   9  11
ATOM     11  C   UNL     1      -5.134   3.164  25.452  0.00  0.00    +0.008 A 
ATOM     14  C   UNL     1      -4.753   2.488  24.294  0.00  0.00    +0.124 A 
ATOM     15  C   UNL     1      -5.900   2.513  26.420  0.00  0.00    +0.008 A 
ATOM     19  C   UNL     1      -5.137   1.160  24.102  0.00  0.00    +0.046 A 
ATOM     20  C   UNL     1      -6.285   1.186  26.228  0.00  0.00    +0.001 A 
ATOM     22  C   UNL     1      -5.904   0.509  25.069  0.00  0.00    +0.004 A 
BRANCH  14   2
ATOM      2  O   UNL     1      -4.005   3.108  23.338  0.00  0.00    -0.495 OA
ATOM     24  C   UNL     1      -3.111   2.292  22.583  0.00  0.00    +0.277 C 
ENDBRANCH  14   2
ENDBRANCH   9  11
ENDBRANCH   3   9
TORSDOF 4
ENDMDL
MODEL 8
REMARK VINA RESULT:       0.8      2.801      5.209
REMARK  Name = 45784193
REMARK  6 active torsions:
REMARK  status: ('A' for Active; 'I' for Inactive)
REMARK    1  A    between atoms: O_2  and  C_14
REMARK    2  A    between atoms: O_2  and  C_24
REMARK    3  A    between atoms: N_3  and  C_9
REMARK    4  A    between atoms: C_5  and  C_10
REMARK    5  A    between atoms: C_9  and  C_11
REMARK    6  A    between atoms: C_18  and  C_23
REMARK                            x       y       z     vdW  Elec       q    Type
REMARK                         _______ _______ _______ _____ _____    ______ ____
ROOT
ATOM      3  N   UNL     1      -0.424   3.563  25.387  0.00  0.00    -0.297 NA
ATOM      5  C   UNL     1      -0.248   1.226  25.318  0.00  0.00    +0.090 C 
ATOM      6  C   UNL     1       0.643   1.841  24.225  0.00  0.00    +0.029 C 
ATOM      7  C   UNL     1      -1.186   2.364  25.741  0.00  0.00    +0.097 C 
ATOM      8  C   UNL     1       0.146   3.272  24.071  0.00  0.00    +0.085 C 
ENDROOT
BRANCH   5  10
ATOM      1  O   UNL     1      -2.348   0.043  24.953  0.00  0.00    -0.439 OA
ATOM      4  N   UNL     1      -0.490  -1.174  24.503  0.00  0.00    -0.213 NA
ATOM     10  C   UNL     1      -0.988  -0.026  24.904  0.00  0.00    +0.201 A 
ATOM     12  C   UNL     1      -1.608  -1.937  24.263  0.00  0.00    +0.110 A 
ATOM     13  C   UNL     1      -2.747  -1.195  24.538  0.00  0.00    +0.155 A 
ATOM     16  C   UNL     1      -1.751  -3.258  23.815  0.00  0.00    +0.035 A 
ATOM     17  C   UNL     1      -4.048  -1.662  24.401  0.00  0.00    +0.049 A 
ATOM     18  C   UNL     1      -3.049  -3.766  23.665  0.00  0.00    -0.048 A 
ATOM     21  C   UNL     1      -4.174  -2.981  23.953  0.00  0.00    +0.007 A 
ATOM     23  C   UNL     1      -3.236  -5.169  23.189  0.00  0.00    +0.044 C 
ENDBRANCH   5  10
BRANCH   3   9
ATOM      9  C   UNL     1      -1.248   4.763  25.381  0.00  0.00    +0.123 C 
BRANCH   9  11
ATOM     11  C   UNL     1      -2.717   4.435  25.412  0.00  0.00    +0.008 A 
ATOM     14  C   UNL     1      -3.343   3.859  24.307  0.00  0.00    +0.124 A 
ATOM     15  C   UNL     1      -3.453   4.715  26.564  0.00  0.00    +0.008 A 
ATOM     19  C   UNL     1      -4.705   3.561  24.353  0.00  0.00    +0.046 A 
ATOM     20  C   UNL     1      -4.816   4.417  26.609  0.00  0.00    +0.001 A 
ATOM     22  C   UNL     1      -5.442   3.841  25.505  0.00  0.00    +0.004 A 
BRANCH  14   2
ATOM      2  O   UNL     1      -2.638   3.580  23.174  0.00  0.00    -0.495 OA
ATOM     24  C   UNL     1      -2.908   2.334  22.534  0.00  0.00    +0.277 C 
ENDBRANCH  14   2
ENDBRANCH   9  11
ENDBRANCH   3   9
TORSDOF 4
ENDMDL
MODEL 9
REMARK VINA RESULT:       1.0      1.744      7.806
REMARK  Name = 45784193
REMARK  6 active torsions:
REMARK  status: ('A' for Active; 'I' for Inactive)
REMARK    1  A    between atoms: O_2  and  C_14
REMARK    2  A    between atoms: O_2  and  C_24
REMARK    3  A    between atoms: N_3  and  C_9
REMARK    4  A    between atoms: C_5  and  C_10
REMARK    5  A    between atoms: C_9  and  C_11
REMARK    6  A    between atoms: C_18  and  C_23
REMARK                            x       y       z     vdW  Elec       q    Type
REMARK                         _______ _______ _______ _____ _____    ______ ____
ROOT
ATOM      3  N   UNL     1       0.773  -0.648  23.710  0.00  0.00    -0.297 NA
ATOM      5  C   UNL     1      -0.902   0.143  25.148  0.00  0.00    +0.090 C 
ATOM      6  C   UNL     1      -1.223  -1.304  24.731  0.00  0.00    +0.029 C 
ATOM      7  C   UNL     1       0.162   0.609  24.146  0.00  0.00    +0.097 C 
ATOM      8  C   UNL     1      -0.351  -1.564  23.510  0.00  0.00    +0.085 C 
ENDROOT
BRANCH   5  10
ATOM      1  O   UNL     1      -3.319   0.462  25.166  0.00  0.00    -0.439 OA
ATOM      4  N   UNL     1      -2.114   2.377  25.303  0.00  0.00    -0.213 NA
ATOM     10  C   UNL     1      -2.098   1.065  25.211  0.00  0.00    +0.201 A 
ATOM     12  C   UNL     1      -3.456   2.675  25.321  0.00  0.00    +0.110 A 
ATOM     13  C   UNL     1      -4.196   1.506  25.237  0.00  0.00    +0.155 A 
ATOM     16  C   UNL     1      -4.132   3.901  25.406  0.00  0.00    +0.035 A 
ATOM     17  C   UNL     1      -5.583   1.446  25.231  0.00  0.00    +0.049 A 
ATOM     18  C   UNL     1      -5.534   3.881  25.403  0.00  0.00    -0.048 A 
ATOM     21  C   UNL     1      -6.243   2.676  25.317  0.00  0.00    +0.007 A 
ATOM     23  C   UNL     1      -6.284   5.170  25.492  0.00  0.00    +0.044 C 
ENDBRANCH   5  10
BRANCH   3   9
ATOM      9  C   UNL     1       1.578  -0.487  22.508  0.00  0.00    +0.123 C 
BRANCH   9  11
ATOM     11  C   UNL     1       2.938   0.080  22.815  0.00  0.00    +0.008 A 
ATOM     14  C   UNL     1       3.909  -0.698  23.444  0.00  0.00    +0.124 A 
ATOM     15  C   UNL     1       3.221   1.400  22.465  0.00  0.00    +0.008 A 
ATOM     19  C   UNL     1       5.165  -0.157  23.722  0.00  0.00    +0.046 A 
ATOM     20  C   UNL     1       4.477   1.941  22.743  0.00  0.00    +0.001 A 
ATOM     22  C   UNL     1       5.449   1.163  23.371  0.00  0.00    +0.004 A 
BRANCH  14   2
ATOM      2  O   UNL     1       3.649  -1.989  23.794  0.00  0.00    -0.495 OA
ATOM     24  C   UNL     1       4.770  -2.812  24.116  0.00  0.00    +0.277 C 
ENDBRANCH  14   2
ENDBRANCH   9  11
ENDBRANCH   3   9
TORSDOF 4
ENDMDL
MODEL 10
REMARK VINA RESULT:       1.4      3.151      5.232
REMARK  Name = 45784193
REMARK  6 active torsions:
REMARK  status: ('A' for Active; 'I' for Inactive)
REMARK    1  A    between atoms: O_2  and  C_14
REMARK    2  A    between atoms: O_2  and  C_24
REMARK    3  A    between atoms: N_3  and  C_9
REMARK    4  A    between atoms: C_5  and  C_10
REMARK    5  A    between atoms: C_9  and  C_11
REMARK    6  A    between atoms: C_18  and  C_23
REMARK                            x       y       z     vdW  Elec       q    Type
REMARK                         _______ _______ _______ _____ _____    ______ ____
ROOT
ATOM      3  N   UNL     1      -1.774   2.098  22.945  0.00  0.00    -0.297 NA
ATOM      5  C   UNL     1      -0.068   2.503  24.501  0.00  0.00    +0.090 C 
ATOM      6  C   UNL     1       0.183   1.155  23.802  0.00  0.00    +0.029 C 
ATOM      7  C   UNL     1      -1.530   2.839  24.184  0.00  0.00    +0.097 C 
ATOM      8  C   UNL     1      -1.148   0.792  23.157  0.00  0.00    +0.085 C 
ENDROOT
BRANCH   5  10
ATOM      1  O   UNL     1       1.534   2.722  26.325  0.00  0.00    -0.439 OA
ATOM      4  N   UNL     1      -0.601   2.351  26.986  0.00  0.00    -0.213 NA
ATOM     10  C   UNL     1       0.232   2.514  25.983  0.00  0.00    +0.201 A 
ATOM     12  C   UNL     1       0.209   2.456  28.091  0.00  0.00    +0.110 A 
ATOM     13  C   UNL     1       1.517   2.683  27.690  0.00  0.00    +0.155 A 
ATOM     16  C   UNL     1      -0.075   2.373  29.462  0.00  0.00    +0.035 A 
ATOM     17  C   UNL     1       2.594   2.840  28.553  0.00  0.00    +0.049 A 
ATOM     18  C   UNL     1       0.987   2.527  30.366  0.00  0.00    -0.048 A 
ATOM     21  C   UNL     1       2.294   2.755  29.917  0.00  0.00    +0.007 A 
ATOM     23  C   UNL     1       0.717   2.444  31.832  0.00  0.00    +0.044 C 
ENDBRANCH   5  10
BRANCH   3   9
ATOM      9  C   UNL     1      -3.192   1.988  22.632  0.00  0.00    +0.123 C 
BRANCH   9  11
ATOM     11  C   UNL     1      -4.052   2.202  23.848  0.00  0.00    +0.008 A 
ATOM     14  C   UNL     1      -4.554   1.117  24.567  0.00  0.00    +0.124 A 
ATOM     15  C   UNL     1      -4.347   3.504  24.254  0.00  0.00    +0.008 A 
ATOM     19  C   UNL     1      -5.350   1.333  25.692  0.00  0.00    +0.046 A 
ATOM     20  C   UNL     1      -5.143   3.719  25.380  0.00  0.00    +0.001 A 
ATOM     22  C   UNL     1      -5.645   2.635  26.098  0.00  0.00    +0.004 A 
BRANCH  14   2
ATOM      2  O   UNL     1      -4.277  -0.161  24.183  0.00  0.00    -0.495 OA
ATOM     24  C   UNL     1      -3.756  -1.038  25.181  0.00  0.00    +0.277 C 
ENDBRANCH  14   2
ENDBRANCH   9  11
ENDBRANCH   3   9
TORSDOF 4
ENDMDL
