MODEL 1
REMARK VINA RESULT:       3.3      0.000      0.000
REMARK  Name = 75368465
REMARK  7 active torsions:
REMARK  status: ('A' for Active; 'I' for Inactive)
REMARK    1  A    between atoms: S_1  and  N_7
REMARK    2  A    between atoms: S_1  and  C_16
REMARK    3  A    between atoms: O_5  and  C_27
REMARK    4  A    between atoms: O_5  and  C_29
REMARK    5  A    between atoms: N_8  and  C_15
REMARK    6  A    between atoms: C_15  and  C_17
REMARK    7  A    between atoms: C_24  and  C_28
REMARK                            x       y       z     vdW  Elec       q    Type
REMARK                         _______ _______ _______ _____ _____    ______ ____
ROOT
ATOM      2  O   UNL     1      -2.040  -3.316  23.500  0.00  0.00    -0.252 OA
ATOM      6  N   UNL     1      -3.181  -1.735  24.812  0.00  0.00    -0.278 N 
ATOM      7  N   UNL     1      -4.875   0.411  25.397  0.00  0.00    -0.173 NA
ATOM      8  N   UNL     1      -1.006  -2.103  25.238  0.00  0.00    -0.279 N 
ATOM      9  C   UNL     1      -2.899  -0.932  25.987  0.00  0.00    +0.111 C 
ATOM     10  C   UNL     1      -3.432   0.485  25.805  0.00  0.00    +0.133 C 
ATOM     11  C   UNL     1      -1.382  -1.027  26.138  0.00  0.00    +0.133 C 
ATOM     12  C   UNL     1      -4.525  -1.764  24.268  0.00  0.00    +0.127 C 
ATOM     13  C   UNL     1      -5.055  -0.342  24.111  0.00  0.00    +0.128 C 
ATOM     14  C   UNL     1      -2.074  -2.491  24.404  0.00  0.00    +0.305 C 
ENDROOT
BRANCH   7   1
ATOM      1  S   UNL     1      -5.739   1.887  25.505  0.00  0.00    +0.061 S 
ATOM      3  O   UNL     1      -6.253   2.035  26.850  0.00  0.00    -0.153 OA
ATOM      4  O   UNL     1      -6.609   2.006  24.355  0.00  0.00    -0.153 OA
BRANCH   1  16
ATOM     16  C   UNL     1      -4.413   3.035  25.304  0.00  0.00    +0.105 A 
ATOM     18  C   UNL     1      -3.889   3.697  26.414  0.00  0.00    +0.029 A 
ATOM     19  C   UNL     1      -3.886   3.275  24.035  0.00  0.00    +0.029 A 
ATOM     22  C   UNL     1      -2.839   4.602  26.255  0.00  0.00    +0.005 A 
ATOM     23  C   UNL     1      -2.836   4.181  23.877  0.00  0.00    +0.005 A 
ATOM     24  C   UNL     1      -2.313   4.844  24.987  0.00  0.00    -0.050 A 
ATOM     28  C   UNL     1      -1.190   5.810  24.816  0.00  0.00    +0.044 C 
ENDBRANCH   1  16
ENDBRANCH   7   1
BRANCH   8  15
ATOM     15  C   UNL     1       0.353  -2.590  25.153  0.00  0.00    +0.144 C 
BRANCH  15  17
ATOM     17  C   UNL     1       1.226  -1.681  24.338  0.00  0.00    -0.030 A 
ATOM     20  C   UNL     1       0.659  -0.627  23.621  0.00  0.00    +0.009 A 
ATOM     21  C   UNL     1       2.605  -1.889  24.297  0.00  0.00    +0.009 A 
ATOM     25  C   UNL     1       1.470   0.218  22.863  0.00  0.00    +0.046 A 
ATOM     26  C   UNL     1       3.416  -1.045  23.539  0.00  0.00    +0.046 A 
ATOM     27  C   UNL     1       2.848   0.009  22.823  0.00  0.00    +0.120 A 
BRANCH  27   5
ATOM      5  O   UNL     1       3.640   0.832  22.083  0.00  0.00    -0.495 OA
ATOM     29  C   UNL     1       4.917   1.167  22.629  0.00  0.00    +0.277 C 
ENDBRANCH  27   5
ENDBRANCH  15  17
ENDBRANCH   8  15
TORSDOF 5
ENDMDL
MODEL 2
REMARK VINA RESULT:       5.5     15.319     19.236
REMARK  Name = 75368465
REMARK  7 active torsions:
REMARK  status: ('A' for Active; 'I' for Inactive)
REMARK    1  A    between atoms: S_1  and  N_7
REMARK    2  A    between atoms: S_1  and  C_16
REMARK    3  A    between atoms: O_5  and  C_27
REMARK    4  A    between atoms: O_5  and  C_29
REMARK    5  A    between atoms: N_8  and  C_15
REMARK    6  A    between atoms: C_15  and  C_17
REMARK    7  A    between atoms: C_24  and  C_28
REMARK                            x       y       z     vdW  Elec       q    Type
REMARK                         _______ _______ _______ _____ _____    ______ ____
ROOT
ATOM      2  O   UNL     1      11.386  -4.778  31.729  0.00  0.00    -0.252 OA
ATOM      6  N   UNL     1      12.948  -6.455  31.207  0.00  0.00    -0.278 N 
ATOM      7  N   UNL     1      15.321  -7.579  30.248  0.00  0.00    -0.173 NA
ATOM      8  N   UNL     1      10.790  -6.811  30.694  0.00  0.00    -0.279 N 
ATOM      9  C   UNL     1      12.913  -7.815  30.704  0.00  0.00    +0.111 C 
ATOM     10  C   UNL     1      14.011  -8.026  29.666  0.00  0.00    +0.133 C 
ATOM     11  C   UNL     1      11.492  -7.969  30.167  0.00  0.00    +0.133 C 
ATOM     12  C   UNL     1      14.201  -5.892  31.671  0.00  0.00    +0.127 C 
ATOM     13  C   UNL     1      15.295  -6.129  30.636  0.00  0.00    +0.128 C 
ATOM     14  C   UNL     1      11.672  -5.877  31.271  0.00  0.00    +0.305 C 
ENDROOT
BRANCH   7   1
ATOM      1  S   UNL     1      16.712  -8.078  29.380  0.00  0.00    +0.061 S 
ATOM      3  O   UNL     1      17.404  -9.093  30.143  0.00  0.00    -0.153 OA
ATOM      4  O   UNL     1      17.405  -6.906  28.892  0.00  0.00    -0.153 OA
BRANCH   1  16
ATOM     16  C   UNL     1      15.945  -8.869  28.000  0.00  0.00    +0.105 A 
ATOM     18  C   UNL     1      15.382 -10.137  28.146  0.00  0.00    +0.029 A 
ATOM     19  C   UNL     1      15.898  -8.223  26.764  0.00  0.00    +0.029 A 
ATOM     22  C   UNL     1      14.774 -10.760  27.057  0.00  0.00    +0.005 A 
ATOM     23  C   UNL     1      15.290  -8.848  25.675  0.00  0.00    +0.005 A 
ATOM     24  C   UNL     1      14.728 -10.115  25.821  0.00  0.00    -0.050 A 
ATOM     28  C   UNL     1      14.078 -10.781  24.656  0.00  0.00    +0.044 C 
ENDBRANCH   1  16
ENDBRANCH   7   1
BRANCH   8  15
ATOM     15  C   UNL     1       9.369  -6.626  30.502  0.00  0.00    +0.144 C 
BRANCH  15  17
ATOM     17  C   UNL     1       8.568  -7.728  31.132  0.00  0.00    -0.030 A 
ATOM     20  C   UNL     1       9.061  -8.394  32.255  0.00  0.00    +0.009 A 
ATOM     21  C   UNL     1       7.332  -8.087  30.596  0.00  0.00    +0.009 A 
ATOM     25  C   UNL     1       8.317  -9.420  32.840  0.00  0.00    +0.046 A 
ATOM     26  C   UNL     1       6.588  -9.112  31.181  0.00  0.00    +0.046 A 
ATOM     27  C   UNL     1       7.081  -9.778  32.304  0.00  0.00    +0.120 A 
BRANCH  27   5
ATOM      5  O   UNL     1       6.355 -10.778  32.873  0.00  0.00    -0.495 OA
ATOM     29  C   UNL     1       4.934 -10.636  32.862  0.00  0.00    +0.277 C 
ENDBRANCH  27   5
ENDBRANCH  15  17
ENDBRANCH   8  15
TORSDOF 5
ENDMDL
MODEL 3
REMARK VINA RESULT:       6.5      1.310      1.637
REMARK  Name = 75368465
REMARK  7 active torsions:
REMARK  status: ('A' for Active; 'I' for Inactive)
REMARK    1  A    between atoms: S_1  and  N_7
REMARK    2  A    between atoms: S_1  and  C_16
REMARK    3  A    between atoms: O_5  and  C_27
REMARK    4  A    between atoms: O_5  and  C_29
REMARK    5  A    between atoms: N_8  and  C_15
REMARK    6  A    between atoms: C_15  and  C_17
REMARK    7  A    between atoms: C_24  and  C_28
REMARK                            x       y       z     vdW  Elec       q    Type
REMARK                         _______ _______ _______ _____ _____    ______ ____
ROOT
ATOM      2  O   UNL     1      -1.387  -3.176  23.663  0.00  0.00    -0.252 OA
ATOM      6  N   UNL     1      -2.126  -1.162  24.624  0.00  0.00    -0.278 N 
ATOM      7  N   UNL     1      -3.921   0.838  25.392  0.00  0.00    -0.173 NA
ATOM      8  N   UNL     1      -0.268  -1.122  23.360  0.00  0.00    -0.279 N 
ATOM      9  C   UNL     1      -1.636   0.199  24.739  0.00  0.00    +0.111 C 
ATOM     10  C   UNL     1      -2.767   1.193  24.500  0.00  0.00    +0.133 C 
ATOM     11  C   UNL     1      -0.503   0.266  23.717  0.00  0.00    +0.133 C 
ATOM     12  C   UNL     1      -3.315  -1.561  25.350  0.00  0.00    +0.127 C 
ATOM     13  C   UNL     1      -4.431  -0.547  25.122  0.00  0.00    +0.128 C 
ATOM     14  C   UNL     1      -1.274  -1.973  23.861  0.00  0.00    +0.305 C 
ENDROOT
BRANCH   7   1
ATOM      1  S   UNL     1      -5.129   2.046  25.537  0.00  0.00    +0.061 S 
ATOM      3  O   UNL     1      -5.593   2.086  26.906  0.00  0.00    -0.153 OA
ATOM      4  O   UNL     1      -6.059   1.912  24.436  0.00  0.00    -0.153 OA
BRANCH   1  16
ATOM     16  C   UNL     1      -4.155   3.490  25.253  0.00  0.00    +0.105 A 
ATOM     18  C   UNL     1      -3.225   3.903  26.207  0.00  0.00    +0.029 A 
ATOM     19  C   UNL     1      -4.312   4.216  24.072  0.00  0.00    +0.029 A 
ATOM     22  C   UNL     1      -2.453   5.043  25.981  0.00  0.00    +0.005 A 
ATOM     23  C   UNL     1      -3.540   5.356  23.847  0.00  0.00    +0.005 A 
ATOM     24  C   UNL     1      -2.611   5.769  24.801  0.00  0.00    -0.050 A 
ATOM     28  C   UNL     1      -1.786   6.988  24.559  0.00  0.00    +0.044 C 
ENDBRANCH   1  16
ENDBRANCH   7   1
BRANCH   8  15
ATOM     15  C   UNL     1       0.810  -1.514  22.480  0.00  0.00    +0.144 C 
BRANCH  15  17
ATOM     17  C   UNL     1       2.103  -0.841  22.841  0.00  0.00    -0.030 A 
ATOM     20  C   UNL     1       2.312   0.496  22.500  0.00  0.00    +0.009 A 
ATOM     21  C   UNL     1       3.094  -1.551  23.517  0.00  0.00    +0.009 A 
ATOM     25  C   UNL     1       3.513   1.122  22.834  0.00  0.00    +0.046 A 
ATOM     26  C   UNL     1       4.296  -0.925  23.852  0.00  0.00    +0.046 A 
ATOM     27  C   UNL     1       4.504   0.411  23.510  0.00  0.00    +0.120 A 
BRANCH  27   5
ATOM      5  O   UNL     1       5.677   1.020  23.836  0.00  0.00    -0.495 OA
ATOM     29  C   UNL     1       6.865   0.234  23.738  0.00  0.00    +0.277 C 
ENDBRANCH  27   5
ENDBRANCH  15  17
ENDBRANCH   8  15
TORSDOF 5
ENDMDL
MODEL 4
REMARK VINA RESULT:       6.6      2.352      5.022
REMARK  Name = 75368465
REMARK  7 active torsions:
REMARK  status: ('A' for Active; 'I' for Inactive)
REMARK    1  A    between atoms: S_1  and  N_7
REMARK    2  A    between atoms: S_1  and  C_16
REMARK    3  A    between atoms: O_5  and  C_27
REMARK    4  A    between atoms: O_5  and  C_29
REMARK    5  A    between atoms: N_8  and  C_15
REMARK    6  A    between atoms: C_15  and  C_17
REMARK    7  A    between atoms: C_24  and  C_28
REMARK                            x       y       z     vdW  Elec       q    Type
REMARK                         _______ _______ _______ _____ _____    ______ ____
ROOT
ATOM      2  O   UNL     1      -0.227   5.239  25.322  0.00  0.00    -0.252 OA
ATOM      6  N   UNL     1      -2.134   4.024  24.680  0.00  0.00    -0.278 N 
ATOM      7  N   UNL     1      -4.483   2.538  24.979  0.00  0.00    -0.173 NA
ATOM      8  N   UNL     1      -0.192   3.590  23.637  0.00  0.00    -0.279 N 
ATOM      9  C   UNL     1      -2.482   3.068  23.647  0.00  0.00    +0.111 C 
ATOM     10  C   UNL     1      -3.328   1.941  24.228  0.00  0.00    +0.133 C 
ATOM     11  C   UNL     1      -1.131   2.627  23.088  0.00  0.00    +0.133 C 
ATOM     12  C   UNL     1      -3.170   4.559  25.543  0.00  0.00    +0.127 C 
ATOM     13  C   UNL     1      -4.022   3.424  26.100  0.00  0.00    +0.128 C 
ATOM     14  C   UNL     1      -0.783   4.394  24.632  0.00  0.00    +0.305 C 
ENDROOT
BRANCH   7   1
ATOM      1  S   UNL     1      -5.735   1.441  25.384  0.00  0.00    +0.061 S 
ATOM      3  O   UNL     1      -6.786   1.540  24.394  0.00  0.00    -0.153 OA
ATOM      4  O   UNL     1      -6.025   1.560  26.796  0.00  0.00    -0.153 OA
BRANCH   1  16
ATOM     16  C   UNL     1      -4.896  -0.091  25.129  0.00  0.00    +0.105 A 
ATOM     18  C   UNL     1      -5.105  -0.816  23.955  0.00  0.00    +0.029 A 
ATOM     19  C   UNL     1      -4.018  -0.575  26.100  0.00  0.00    +0.029 A 
ATOM     22  C   UNL     1      -4.439  -2.024  23.753  0.00  0.00    +0.005 A 
ATOM     23  C   UNL     1      -3.353  -1.784  25.898  0.00  0.00    +0.005 A 
ATOM     24  C   UNL     1      -3.563  -2.509  24.724  0.00  0.00    -0.050 A 
ATOM     28  C   UNL     1      -2.851  -3.801  24.509  0.00  0.00    +0.044 C 
ENDBRANCH   1  16
ENDBRANCH   7   1
BRANCH   8  15
ATOM     15  C   UNL     1       1.206   3.591  23.267  0.00  0.00    +0.144 C 
BRANCH  15  17
ATOM     17  C   UNL     1       1.784   2.206  23.252  0.00  0.00    -0.030 A 
ATOM     20  C   UNL     1       0.991   1.115  23.609  0.00  0.00    +0.009 A 
ATOM     21  C   UNL     1       3.114   2.010  22.880  0.00  0.00    +0.009 A 
ATOM     25  C   UNL     1       1.529  -0.172  23.595  0.00  0.00    +0.046 A 
ATOM     26  C   UNL     1       3.652   0.722  22.866  0.00  0.00    +0.046 A 
ATOM     27  C   UNL     1       2.859  -0.368  23.223  0.00  0.00    +0.120 A 
BRANCH  27   5
ATOM      5  O   UNL     1       3.385  -1.623  23.211  0.00  0.00    -0.495 OA
ATOM     29  C   UNL     1       4.620  -1.816  23.901  0.00  0.00    +0.277 C 
ENDBRANCH  27   5
ENDBRANCH  15  17
ENDBRANCH   8  15
TORSDOF 5
ENDMDL
