MODEL 1
REMARK VINA RESULT:       2.8      0.000      0.000
REMARK  Name = 11865732
REMARK  10 active torsions:
REMARK  status: ('A' for Active; 'I' for Inactive)
REMARK    1  A    between atoms: S_1  and  C_20
REMARK    2  A    between atoms: S_1  and  C_28
REMARK    3  A    between atoms: N_9  and  C_13
REMARK    4  A    between atoms: N_10  and  C_19
REMARK    5  A    between atoms: N_11  and  C_25
REMARK    6  A    between atoms: C_14  and  C_17
REMARK    7  A    between atoms: C_18  and  C_20
REMARK    8  A    between atoms: C_19  and  C_22
REMARK    9  A    between atoms: C_19  and  C_23
REMARK   10  A    between atoms: C_22  and  C_24
REMARK                            x       y       z     vdW  Elec       q    Type
REMARK                         _______ _______ _______ _____ _____    ______ ____
ROOT
ATOM      5  O   UNL     1      -4.637   1.153  26.450  0.00  0.00    -0.275 OA
ATOM      8  N   UNL     1      -3.491  -0.224  24.984  0.00  0.00    -0.287 N 
ATOM     13  C   UNL     1      -2.008  -1.639  23.784  0.00  0.00    +0.094 C 
ATOM     14  C   UNL     1      -2.581  -0.786  25.971  0.00  0.00    +0.164 C 
ATOM     15  C   UNL     1      -1.928  -1.979  25.275  0.00  0.00    +0.055 C 
ATOM     16  C   UNL     1      -3.302  -0.840  23.671  0.00  0.00    +0.131 C 
ATOM     18  C   UNL     1      -4.508   0.652  25.331  0.00  0.00    +0.226 C 
ENDROOT
BRANCH  13   9
ATOM      6  O   UNL     1       0.732  -2.103  24.481  0.00  0.00    -0.252 OA
ATOM      9  N   UNL     1      -0.866  -0.875  23.346  0.00  0.00    -0.295 N 
ATOM     11  N   UNL     1       1.341  -0.263  23.156  0.00  0.00    -0.267 N 
ATOM     21  C   UNL     1       0.447  -1.169  23.734  0.00  0.00    +0.304 C 
ATOM     37  H   UNL     1      -1.026  -0.049  22.778  0.00  0.00    +0.151 HD
ATOM     39  H   UNL     1       0.942   0.457  22.558  0.00  0.00    +0.156 HD
BRANCH  11  25
ATOM      2  F   UNL     1       2.782   2.076  22.685  0.00  0.00    -0.203 F 
ATOM      3  F   UNL     1       6.853  -0.101  23.713  0.00  0.00    -0.205 F 
ATOM     25  C   UNL     1       2.747  -0.219  23.298  0.00  0.00    +0.070 A 
ATOM     29  C   UNL     1       3.439   0.968  23.054  0.00  0.00    +0.147 A 
ATOM     30  C   UNL     1       3.442  -1.365  23.682  0.00  0.00    +0.029 A 
ATOM     34  C   UNL     1       4.826   1.007  23.193  0.00  0.00    +0.078 A 
ATOM     35  C   UNL     1       4.829  -1.325  23.823  0.00  0.00    +0.040 A 
ATOM     36  C   UNL     1       5.521  -0.139  23.578  0.00  0.00    +0.126 A 
ENDBRANCH  11  25
ENDBRANCH  13   9
BRANCH  14  17
ATOM      4  O   UNL     1      -0.539  -0.029  26.948  0.00  0.00    -0.274 OA
ATOM     10  N   UNL     1      -1.955   1.526  25.951  0.00  0.00    -0.302 N 
ATOM     17  C   UNL     1      -1.569   0.256  26.344  0.00  0.00    +0.234 C 
ATOM     38  H   UNL     1      -2.823   1.644  25.435  0.00  0.00    +0.150 HD
BRANCH  10  19
ATOM     19  C   UNL     1      -1.166   2.708  26.211  0.00  0.00    +0.163 C 
BRANCH  19  23
ATOM      7  O   UNL     1       0.706   2.058  24.806  0.00  0.00    -0.274 OA
ATOM     12  N   UNL     1       1.089   2.442  27.038  0.00  0.00    -0.328 N 
ATOM     23  C   UNL     1       0.285   2.352  25.922  0.00  0.00    +0.231 C 
ATOM     40  H   UNL     1       2.082   2.243  26.981  0.00  0.00    +0.145 HD
ATOM     41  H   UNL     1       0.731   2.709  27.949  0.00  0.00    +0.145 HD
ENDBRANCH  19  23
BRANCH  19  22
ATOM     22  C   UNL     1      -1.605   3.899  25.352  0.00  0.00    +0.067 C 
BRANCH  22  24
ATOM     24  C   UNL     1      -2.294   3.477  24.077  0.00  0.00    -0.045 A 
ATOM     26  C   UNL     1      -1.735   2.477  23.281  0.00  0.00    +0.004 A 
ATOM     27  C   UNL     1      -3.488   4.087  23.694  0.00  0.00    +0.004 A 
ATOM     31  C   UNL     1      -2.372   2.086  22.103  0.00  0.00    +0.000 A 
ATOM     32  C   UNL     1      -4.125   3.697  22.516  0.00  0.00    +0.000 A 
ATOM     33  C   UNL     1      -3.567   2.697  21.720  0.00  0.00    +0.000 A 
ENDBRANCH  22  24
ENDBRANCH  19  22
ENDBRANCH  10  19
ENDBRANCH  14  17
BRANCH  18  20
ATOM     20  C   UNL     1      -5.482   0.987  24.230  0.00  0.00    +0.164 C 
BRANCH  20   1
ATOM      1  S   UNL     1      -6.770   2.025  24.937  0.00  0.00    -0.155 S 
ATOM     28  C   UNL     1      -5.728   3.330  25.633  0.00  0.00    +0.085 C 
ENDBRANCH  20   1
ENDBRANCH  18  20
TORSDOF 9
ENDMDL
MODEL 2
REMARK VINA RESULT:       3.8      1.836      3.463
REMARK  Name = 11865732
REMARK  10 active torsions:
REMARK  status: ('A' for Active; 'I' for Inactive)
REMARK    1  A    between atoms: S_1  and  C_20
REMARK    2  A    between atoms: S_1  and  C_28
REMARK    3  A    between atoms: N_9  and  C_13
REMARK    4  A    between atoms: N_10  and  C_19
REMARK    5  A    between atoms: N_11  and  C_25
REMARK    6  A    between atoms: C_14  and  C_17
REMARK    7  A    between atoms: C_18  and  C_20
REMARK    8  A    between atoms: C_19  and  C_22
REMARK    9  A    between atoms: C_19  and  C_23
REMARK   10  A    between atoms: C_22  and  C_24
REMARK                            x       y       z     vdW  Elec       q    Type
REMARK                         _______ _______ _______ _____ _____    ______ ____
ROOT
ATOM      5  O   UNL     1      -4.281   1.554  26.483  0.00  0.00    -0.275 OA
ATOM      8  N   UNL     1      -3.399   0.254  24.782  0.00  0.00    -0.287 N 
ATOM     13  C   UNL     1      -2.185  -1.172  23.323  0.00  0.00    +0.094 C 
ATOM     14  C   UNL     1      -2.566  -0.580  25.634  0.00  0.00    +0.164 C 
ATOM     15  C   UNL     1      -2.124  -1.740  24.744  0.00  0.00    +0.055 C 
ATOM     16  C   UNL     1      -3.340  -0.179  23.386  0.00  0.00    +0.131 C 
ATOM     18  C   UNL     1      -4.259   1.213  25.299  0.00  0.00    +0.226 C 
ENDROOT
BRANCH  13   9
ATOM      6  O   UNL     1       0.436  -1.813  24.287  0.00  0.00    -0.252 OA
ATOM      9  N   UNL     1      -0.948  -0.533  22.947  0.00  0.00    -0.295 N 
ATOM     11  N   UNL     1       1.312  -0.115  22.922  0.00  0.00    -0.267 N 
ATOM     21  C   UNL     1       0.298  -0.908  23.467  0.00  0.00    +0.304 C 
ATOM     37  H   UNL     1      -0.987   0.266  22.322  0.00  0.00    +0.151 HD
ATOM     39  H   UNL     1       1.028   0.596  22.252  0.00  0.00    +0.156 HD
BRANCH  11  25
ATOM      2  F   UNL     1       2.940   2.136  22.704  0.00  0.00    -0.203 F 
ATOM      3  F   UNL     1       6.751  -0.368  23.960  0.00  0.00    -0.205 F 
ATOM     25  C   UNL     1       2.700  -0.177  23.186  0.00  0.00    +0.070 A 
ATOM     29  C   UNL     1       3.487   0.968  23.067  0.00  0.00    +0.147 A 
ATOM     30  C   UNL     1       3.281  -1.387  23.567  0.00  0.00    +0.029 A 
ATOM     34  C   UNL     1       4.856   0.903  23.328  0.00  0.00    +0.078 A 
ATOM     35  C   UNL     1       4.649  -1.451  23.829  0.00  0.00    +0.040 A 
ATOM     36  C   UNL     1       5.437  -0.306  23.709  0.00  0.00    +0.126 A 
ENDBRANCH  11  25
ENDBRANCH  13   9
BRANCH  14  17
ATOM      4  O   UNL     1      -0.607  -0.200  26.945  0.00  0.00    -0.274 OA
ATOM     10  N   UNL     1      -1.346   1.477  25.510  0.00  0.00    -0.302 N 
ATOM     17  C   UNL     1      -1.395   0.229  26.106  0.00  0.00    +0.234 C 
ATOM     38  H   UNL     1      -2.041   1.721  24.810  0.00  0.00    +0.150 HD
BRANCH  10  19
ATOM     19  C   UNL     1      -0.328   2.457  25.810  0.00  0.00    +0.163 C 
BRANCH  19  23
ATOM      7  O   UNL     1      -0.571   4.709  24.930  0.00  0.00    -0.274 OA
ATOM     12  N   UNL     1      -0.156   2.993  23.460  0.00  0.00    -0.328 N 
ATOM     23  C   UNL     1      -0.385   3.513  24.716  0.00  0.00    +0.231 C 
ATOM     40  H   UNL     1      -0.152   3.593  22.641  0.00  0.00    +0.145 HD
ATOM     41  H   UNL     1       0.021   2.006  23.300  0.00  0.00    +0.145 HD
ENDBRANCH  19  23
BRANCH  19  22
ATOM     22  C   UNL     1      -0.531   3.102  27.186  0.00  0.00    +0.067 C 
BRANCH  22  24
ATOM     24  C   UNL     1       0.610   2.826  28.134  0.00  0.00    -0.045 A 
ATOM     26  C   UNL     1       1.927   3.034  27.720  0.00  0.00    +0.004 A 
ATOM     27  C   UNL     1       0.350   2.362  29.423  0.00  0.00    +0.004 A 
ATOM     31  C   UNL     1       2.981   2.779  28.597  0.00  0.00    +0.000 A 
ATOM     32  C   UNL     1       1.405   2.106  30.300  0.00  0.00    +0.000 A 
ATOM     33  C   UNL     1       2.721   2.314  29.887  0.00  0.00    +0.000 A 
ENDBRANCH  22  24
ENDBRANCH  19  22
ENDBRANCH  10  19
ENDBRANCH  14  17
BRANCH  18  20
ATOM     20  C   UNL     1      -5.194   1.852  24.304  0.00  0.00    +0.164 C 
BRANCH  20   1
ATOM      1  S   UNL     1      -4.322   3.228  23.541  0.00  0.00    -0.155 S 
ATOM     28  C   UNL     1      -4.038   4.234  25.017  0.00  0.00    +0.085 C 
ENDBRANCH  20   1
ENDBRANCH  18  20
TORSDOF 9
ENDMDL
MODEL 3
REMARK VINA RESULT:       4.4      1.644      2.585
REMARK  Name = 11865732
REMARK  10 active torsions:
REMARK  status: ('A' for Active; 'I' for Inactive)
REMARK    1  A    between atoms: S_1  and  C_20
REMARK    2  A    between atoms: S_1  and  C_28
REMARK    3  A    between atoms: N_9  and  C_13
REMARK    4  A    between atoms: N_10  and  C_19
REMARK    5  A    between atoms: N_11  and  C_25
REMARK    6  A    between atoms: C_14  and  C_17
REMARK    7  A    between atoms: C_18  and  C_20
REMARK    8  A    between atoms: C_19  and  C_22
REMARK    9  A    between atoms: C_19  and  C_23
REMARK   10  A    between atoms: C_22  and  C_24
REMARK                            x       y       z     vdW  Elec       q    Type
REMARK                         _______ _______ _______ _____ _____    ______ ____
ROOT
ATOM      5  O   UNL     1      -5.727   1.361  25.509  0.00  0.00    -0.275 OA
ATOM      8  N   UNL     1      -4.080   1.358  23.882  0.00  0.00    -0.287 N 
ATOM     13  C   UNL     1      -2.282   0.971  22.378  0.00  0.00    +0.094 C 
ATOM     14  C   UNL     1      -3.839  -0.077  23.900  0.00  0.00    +0.164 C 
ATOM     15  C   UNL     1      -2.997  -0.355  22.657  0.00  0.00    +0.055 C 
ATOM     16  C   UNL     1      -3.284   2.020  22.848  0.00  0.00    +0.131 C 
ATOM     18  C   UNL     1      -5.075   1.950  24.644  0.00  0.00    +0.226 C 
ENDROOT
BRANCH  13   9
ATOM      6  O   UNL     1       0.217  -0.207  21.619  0.00  0.00    -0.252 OA
ATOM      9  N   UNL     1      -1.032   1.066  23.091  0.00  0.00    -0.295 N 
ATOM     11  N   UNL     1       1.195   0.722  23.540  0.00  0.00    -0.267 N 
ATOM     21  C   UNL     1       0.150   0.458  22.650  0.00  0.00    +0.304 C 
ATOM     37  H   UNL     1      -1.022   1.546  23.985  0.00  0.00    +0.151 HD
ATOM     39  H   UNL     1       0.973   1.293  24.352  0.00  0.00    +0.156 HD
BRANCH  11  25
ATOM      2  F   UNL     1       3.228   2.443  22.720  0.00  0.00    -0.203 F 
ATOM      3  F   UNL     1       6.461  -0.976  23.203  0.00  0.00    -0.205 F 
ATOM     25  C   UNL     1       2.539   0.291  23.453  0.00  0.00    +0.070 A 
ATOM     29  C   UNL     1       3.534   1.177  23.038  0.00  0.00    +0.147 A 
ATOM     30  C   UNL     1       2.870  -1.023  23.784  0.00  0.00    +0.029 A 
ATOM     34  C   UNL     1       4.858   0.749  22.953  0.00  0.00    +0.078 A 
ATOM     35  C   UNL     1       4.195  -1.451  23.700  0.00  0.00    +0.040 A 
ATOM     36  C   UNL     1       5.188  -0.565  23.284  0.00  0.00    +0.126 A 
ENDBRANCH  11  25
ENDBRANCH  13   9
BRANCH  14  17
ATOM      4  O   UNL     1      -3.434  -1.372  25.865  0.00  0.00    -0.274 OA
ATOM     10  N   UNL     1      -2.048   0.442  25.405  0.00  0.00    -0.302 N 
ATOM     17  C   UNL     1      -3.098  -0.426  25.156  0.00  0.00    +0.234 C 
ATOM     38  H   UNL     1      -1.846   1.180  24.736  0.00  0.00    +0.150 HD
BRANCH  10  19
ATOM     19  C   UNL     1      -1.192   0.336  26.563  0.00  0.00    +0.163 C 
BRANCH  19  23
ATOM      7  O   UNL     1      -0.163  -1.537  25.406  0.00  0.00    -0.274 OA
ATOM     12  N   UNL     1      -0.152  -1.524  27.702  0.00  0.00    -0.328 N 
ATOM     23  C   UNL     1      -0.470  -1.000  26.468  0.00  0.00    +0.231 C 
ATOM     40  H   UNL     1       0.343  -2.406  27.782  0.00  0.00    +0.145 HD
ATOM     41  H   UNL     1      -0.391  -1.058  28.572  0.00  0.00    +0.145 HD
ENDBRANCH  19  23
BRANCH  19  22
ATOM     22  C   UNL     1      -0.180   1.485  26.643  0.00  0.00    +0.067 C 
BRANCH  22  24
ATOM     24  C   UNL     1      -0.716   2.775  26.074  0.00  0.00    -0.045 A 
ATOM     26  C   UNL     1       0.033   3.488  25.135  0.00  0.00    +0.004 A 
ATOM     27  C   UNL     1      -1.958   3.258  26.486  0.00  0.00    +0.004 A 
ATOM     31  C   UNL     1      -0.463   4.681  24.609  0.00  0.00    +0.000 A 
ATOM     32  C   UNL     1      -2.453   4.451  25.959  0.00  0.00    +0.000 A 
ATOM     33  C   UNL     1      -1.706   5.163  25.021  0.00  0.00    +0.000 A 
ENDBRANCH  22  24
ENDBRANCH  19  22
ENDBRANCH  10  19
ENDBRANCH  14  17
BRANCH  18  20
ATOM     20  C   UNL     1      -5.327   3.410  24.365  0.00  0.00    +0.164 C 
BRANCH  20   1
ATOM      1  S   UNL     1      -5.769   4.196  25.920  0.00  0.00    -0.155 S 
ATOM     28  C   UNL     1      -6.460   5.737  25.270  0.00  0.00    +0.085 C 
ENDBRANCH  20   1
ENDBRANCH  18  20
TORSDOF 9
ENDMDL
MODEL 4
REMARK VINA RESULT:       4.4      2.610      5.594
REMARK  Name = 11865732
REMARK  10 active torsions:
REMARK  status: ('A' for Active; 'I' for Inactive)
REMARK    1  A    between atoms: S_1  and  C_20
REMARK    2  A    between atoms: S_1  and  C_28
REMARK    3  A    between atoms: N_9  and  C_13
REMARK    4  A    between atoms: N_10  and  C_19
REMARK    5  A    between atoms: N_11  and  C_25
REMARK    6  A    between atoms: C_14  and  C_17
REMARK    7  A    between atoms: C_18  and  C_20
REMARK    8  A    between atoms: C_19  and  C_22
REMARK    9  A    between atoms: C_19  and  C_23
REMARK   10  A    between atoms: C_22  and  C_24
REMARK                            x       y       z     vdW  Elec       q    Type
REMARK                         _______ _______ _______ _____ _____    ______ ____
ROOT
ATOM      5  O   UNL     1      -4.944   0.580  25.170  0.00  0.00    -0.275 OA
ATOM      8  N   UNL     1      -3.568   2.347  24.585  0.00  0.00    -0.287 N 
ATOM     13  C   UNL     1      -1.914   3.857  23.795  0.00  0.00    +0.094 C 
ATOM     14  C   UNL     1      -2.878   1.660  23.503  0.00  0.00    +0.164 C 
ATOM     15  C   UNL     1      -2.130   2.758  22.749  0.00  0.00    +0.055 C 
ATOM     16  C   UNL     1      -3.144   3.743  24.689  0.00  0.00    +0.131 C 
ATOM     18  C   UNL     1      -4.614   1.762  25.284  0.00  0.00    +0.226 C 
ENDROOT
BRANCH  13   9
ATOM      6  O   UNL     1      -1.682   3.097  26.548  0.00  0.00    -0.252 OA
ATOM      9  N   UNL     1      -0.692   3.660  24.535  0.00  0.00    -0.295 N 
ATOM     11  N   UNL     1       0.654   3.171  26.332  0.00  0.00    -0.267 N 
ATOM     21  C   UNL     1      -0.665   3.287  25.884  0.00  0.00    +0.304 C 
ATOM     37  H   UNL     1       0.189   3.859  24.073  0.00  0.00    +0.151 HD
ATOM     39  H   UNL     1       1.387   3.363  25.653  0.00  0.00    +0.156 HD
BRANCH  11  25
ATOM      2  F   UNL     1       2.950   4.300  27.436  0.00  0.00    -0.203 F 
ATOM      3  F   UNL     1       2.415   1.771  31.398  0.00  0.00    -0.205 F 
ATOM     25  C   UNL     1       1.106   2.816  27.624  0.00  0.00    +0.070 A 
ATOM     29  C   UNL     1       2.260   3.399  28.148  0.00  0.00    +0.147 A 
ATOM     30  C   UNL     1       0.394   1.880  28.375  0.00  0.00    +0.029 A 
ATOM     34  C   UNL     1       2.702   3.045  29.422  0.00  0.00    +0.078 A 
ATOM     35  C   UNL     1       0.836   1.528  29.650  0.00  0.00    +0.040 A 
ATOM     36  C   UNL     1       1.991   2.110  30.173  0.00  0.00    +0.126 A 
ENDBRANCH  11  25
ENDBRANCH  13   9
BRANCH  14  17
ATOM      4  O   UNL     1      -2.231  -0.010  25.082  0.00  0.00    -0.274 OA
ATOM     10  N   UNL     1      -0.729   0.607  23.414  0.00  0.00    -0.302 N 
ATOM     17  C   UNL     1      -1.934   0.656  24.093  0.00  0.00    +0.234 C 
ATOM     38  H   UNL     1      -0.598   1.190  22.592  0.00  0.00    +0.150 HD
BRANCH  10  19
ATOM     19  C   UNL     1       0.359  -0.263  23.796  0.00  0.00    +0.163 C 
BRANCH  19  23
ATOM      7  O   UNL     1      -0.947  -2.306  23.638  0.00  0.00    -0.274 OA
ATOM     12  N   UNL     1       0.076  -1.808  25.633  0.00  0.00    -0.328 N 
ATOM     23  C   UNL     1      -0.259  -1.551  24.321  0.00  0.00    +0.231 C 
ATOM     40  H   UNL     1      -0.259  -2.642  26.102  0.00  0.00    +0.145 HD
ATOM     41  H   UNL     1       0.666  -1.186  26.178  0.00  0.00    +0.145 HD
ENDBRANCH  19  23
BRANCH  19  22
ATOM     22  C   UNL     1       1.302  -0.562  22.624  0.00  0.00    +0.067 C 
BRANCH  22  24
ATOM     24  C   UNL     1       2.754  -0.357  22.977  0.00  0.00    -0.045 A 
ATOM     26  C   UNL     1       3.471  -1.377  23.603  0.00  0.00    +0.004 A 
ATOM     27  C   UNL     1       3.380   0.854  22.680  0.00  0.00    +0.004 A 
ATOM     31  C   UNL     1       4.814  -1.188  23.929  0.00  0.00    +0.000 A 
ATOM     32  C   UNL     1       4.723   1.043  23.006  0.00  0.00    +0.000 A 
ATOM     33  C   UNL     1       5.440   0.023  23.631  0.00  0.00    +0.000 A 
ENDBRANCH  22  24
ENDBRANCH  19  22
ENDBRANCH  10  19
ENDBRANCH  14  17
BRANCH  18  20
ATOM     20  C   UNL     1      -5.350   2.671  26.235  0.00  0.00    +0.164 C 
BRANCH  20   1
ATOM      1  S   UNL     1      -6.628   3.522  25.298  0.00  0.00    -0.155 S 
ATOM     28  C   UNL     1      -6.067   5.225  25.541  0.00  0.00    +0.085 C 
ENDBRANCH  20   1
ENDBRANCH  18  20
TORSDOF 9
ENDMDL
MODEL 5
REMARK VINA RESULT:       4.5      1.100      1.663
REMARK  Name = 11865732
REMARK  10 active torsions:
REMARK  status: ('A' for Active; 'I' for Inactive)
REMARK    1  A    between atoms: S_1  and  C_20
REMARK    2  A    between atoms: S_1  and  C_28
REMARK    3  A    between atoms: N_9  and  C_13
REMARK    4  A    between atoms: N_10  and  C_19
REMARK    5  A    between atoms: N_11  and  C_25
REMARK    6  A    between atoms: C_14  and  C_17
REMARK    7  A    between atoms: C_18  and  C_20
REMARK    8  A    between atoms: C_19  and  C_22
REMARK    9  A    between atoms: C_19  and  C_23
REMARK   10  A    between atoms: C_22  and  C_24
REMARK                            x       y       z     vdW  Elec       q    Type
REMARK                         _______ _______ _______ _____ _____    ______ ____
ROOT
ATOM      5  O   UNL     1      -4.378   0.982  26.440  0.00  0.00    -0.275 OA
ATOM      8  N   UNL     1      -3.340  -0.533  25.031  0.00  0.00    -0.287 N 
ATOM     13  C   UNL     1      -1.952  -2.070  23.869  0.00  0.00    +0.094 C 
ATOM     14  C   UNL     1      -2.383  -1.030  26.007  0.00  0.00    +0.164 C 
ATOM     15  C   UNL     1      -1.789  -2.288  25.376  0.00  0.00    +0.055 C 
ATOM     16  C   UNL     1      -3.238  -1.258  23.764  0.00  0.00    +0.131 C 
ATOM     18  C   UNL     1      -4.322   0.389  25.361  0.00  0.00    +0.226 C 
ENDROOT
BRANCH  13   9
ATOM      6  O   UNL     1       0.751  -2.119  24.821  0.00  0.00    -0.252 OA
ATOM      9  N   UNL     1      -0.826  -1.368  23.305  0.00  0.00    -0.295 N 
ATOM     11  N   UNL     1       1.350  -0.662  23.080  0.00  0.00    -0.267 N 
ATOM     21  C   UNL     1       0.469  -1.445  23.832  0.00  0.00    +0.304 C 
ATOM     37  H   UNL     1      -0.991  -0.740  22.524  0.00  0.00    +0.151 HD
ATOM     39  H   UNL     1       0.956  -0.162  22.287  0.00  0.00    +0.156 HD
BRANCH  11  25
ATOM      2  F   UNL     1       2.558   1.818  22.688  0.00  0.00    -0.203 F 
ATOM      3  F   UNL     1       6.786   0.064  23.882  0.00  0.00    -0.205 F 
ATOM     25  C   UNL     1       2.736  -0.474  23.284  0.00  0.00    +0.070 A 
ATOM     29  C   UNL     1       3.311   0.780  23.078  0.00  0.00    +0.147 A 
ATOM     30  C   UNL     1       3.529  -1.547  23.692  0.00  0.00    +0.029 A 
ATOM     34  C   UNL     1       4.679   0.961  23.280  0.00  0.00    +0.078 A 
ATOM     35  C   UNL     1       4.897  -1.365  23.894  0.00  0.00    +0.040 A 
ATOM     36  C   UNL     1       5.472  -0.111  23.687  0.00  0.00    +0.126 A 
ENDBRANCH  11  25
ENDBRANCH  13   9
BRANCH  14  17
ATOM      4  O   UNL     1      -0.572  -0.025  27.194  0.00  0.00    -0.274 OA
ATOM     10  N   UNL     1      -1.367   1.009  25.267  0.00  0.00    -0.302 N 
ATOM     17  C   UNL     1      -1.335   0.019  26.233  0.00  0.00    +0.234 C 
ATOM     38  H   UNL     1      -2.030   0.933  24.500  0.00  0.00    +0.150 HD
BRANCH  10  19
ATOM     19  C   UNL     1      -0.475   2.145  25.270  0.00  0.00    +0.163 C 
BRANCH  19  23
ATOM      7  O   UNL     1      -0.555   1.834  22.861  0.00  0.00    -0.274 OA
ATOM     12  N   UNL     1       0.302   3.798  23.687  0.00  0.00    -0.328 N 
ATOM     23  C   UNL     1      -0.246   2.540  23.818  0.00  0.00    +0.231 C 
ATOM     40  H   UNL     1       0.494   4.189  22.771  0.00  0.00    +0.145 HD
ATOM     41  H   UNL     1       0.530   4.381  24.486  0.00  0.00    +0.145 HD
ENDBRANCH  19  23
BRANCH  19  22
ATOM     22  C   UNL     1      -1.046   3.329  26.060  0.00  0.00    +0.067 C 
BRANCH  22  24
ATOM     24  C   UNL     1      -2.439   3.707  25.620  0.00  0.00    -0.045 A 
ATOM     26  C   UNL     1      -3.370   4.151  26.560  0.00  0.00    +0.004 A 
ATOM     27  C   UNL     1      -2.796   3.612  24.275  0.00  0.00    +0.004 A 
ATOM     31  C   UNL     1      -4.658   4.501  26.153  0.00  0.00    +0.000 A 
ATOM     32  C   UNL     1      -4.084   3.962  23.869  0.00  0.00    +0.000 A 
ATOM     33  C   UNL     1      -5.015   4.406  24.807  0.00  0.00    +0.000 A 
ENDBRANCH  22  24
ENDBRANCH  19  22
ENDBRANCH  10  19
ENDBRANCH  14  17
BRANCH  18  20
ATOM     20  C   UNL     1      -5.354   0.651  24.294  0.00  0.00    +0.164 C 
BRANCH  20   1
ATOM      1  S   UNL     1      -6.523   1.852  24.947  0.00  0.00    -0.155 S 
ATOM     28  C   UNL     1      -6.531   1.323  26.677  0.00  0.00    +0.085 C 
ENDBRANCH  20   1
ENDBRANCH  18  20
TORSDOF 9
ENDMDL
MODEL 6
REMARK VINA RESULT:       5.3      2.455      5.742
REMARK  Name = 11865732
REMARK  10 active torsions:
REMARK  status: ('A' for Active; 'I' for Inactive)
REMARK    1  A    between atoms: S_1  and  C_20
REMARK    2  A    between atoms: S_1  and  C_28
REMARK    3  A    between atoms: N_9  and  C_13
REMARK    4  A    between atoms: N_10  and  C_19
REMARK    5  A    between atoms: N_11  and  C_25
REMARK    6  A    between atoms: C_14  and  C_17
REMARK    7  A    between atoms: C_18  and  C_20
REMARK    8  A    between atoms: C_19  and  C_22
REMARK    9  A    between atoms: C_19  and  C_23
REMARK   10  A    between atoms: C_22  and  C_24
REMARK                            x       y       z     vdW  Elec       q    Type
REMARK                         _______ _______ _______ _____ _____    ______ ____
ROOT
ATOM      5  O   UNL     1      -3.147  -0.878  23.045  0.00  0.00    -0.275 OA
ATOM      8  N   UNL     1      -3.746   1.253  23.725  0.00  0.00    -0.287 N 
ATOM     13  C   UNL     1      -4.004   3.563  24.211  0.00  0.00    +0.094 C 
ATOM     14  C   UNL     1      -2.954   1.965  22.734  0.00  0.00    +0.164 C 
ATOM     15  C   UNL     1      -3.451   3.408  22.791  0.00  0.00    +0.055 C 
ATOM     16  C   UNL     1      -4.542   2.173  24.535  0.00  0.00    +0.131 C 
ATOM     18  C   UNL     1      -3.836  -0.131  23.743  0.00  0.00    +0.226 C 
ENDROOT
BRANCH  13   9
ATOM      6  O   UNL     1      -2.391   1.853  25.850  0.00  0.00    -0.252 OA
ATOM      9  N   UNL     1      -2.984   3.974  25.143  0.00  0.00    -0.295 N 
ATOM     11  N   UNL     1      -1.325   3.756  26.718  0.00  0.00    -0.267 N 
ATOM     21  C   UNL     1      -2.236   3.072  25.909  0.00  0.00    +0.304 C 
ATOM     37  H   UNL     1      -2.841   4.968  25.295  0.00  0.00    +0.151 HD
ATOM     39  H   UNL     1      -1.323   4.771  26.649  0.00  0.00    +0.156 HD
BRANCH  11  25
ATOM      2  F   UNL     1       1.018   2.523  25.851  0.00  0.00    -0.203 F 
ATOM      3  F   UNL     1       2.318   1.621  30.309  0.00  0.00    -0.205 F 
ATOM     25  C   UNL     1      -0.394   3.211  27.632  0.00  0.00    +0.070 A 
ATOM     29  C   UNL     1       0.769   2.599  27.166  0.00  0.00    +0.147 A 
ATOM     30  C   UNL     1      -0.641   3.286  29.003  0.00  0.00    +0.029 A 
ATOM     34  C   UNL     1       1.685   2.061  28.070  0.00  0.00    +0.078 A 
ATOM     35  C   UNL     1       0.275   2.749  29.907  0.00  0.00    +0.040 A 
ATOM     36  C   UNL     1       1.438   2.136  29.441  0.00  0.00    +0.126 A 
ENDBRANCH  11  25
ENDBRANCH  13   9
BRANCH  14  17
ATOM      4  O   UNL     1      -0.751   2.833  23.042  0.00  0.00    -0.274 OA
ATOM     10  N   UNL     1      -1.152   0.586  23.502  0.00  0.00    -0.302 N 
ATOM     17  C   UNL     1      -1.506   1.866  23.111  0.00  0.00    +0.234 C 
ATOM     38  H   UNL     1      -1.866  -0.136  23.542  0.00  0.00    +0.150 HD
BRANCH  10  19
ATOM     19  C   UNL     1       0.190   0.222  23.893  0.00  0.00    +0.163 C 
BRANCH  19  23
ATOM      7  O   UNL     1       0.554  -1.992  24.826  0.00  0.00    -0.274 OA
ATOM     12  N   UNL     1      -0.601  -0.451  26.076  0.00  0.00    -0.328 N 
ATOM     23  C   UNL     1       0.070  -0.870  24.947  0.00  0.00    +0.231 C 
ATOM     40  H   UNL     1      -0.739  -1.077  26.862  0.00  0.00    +0.145 HD
ATOM     41  H   UNL     1      -0.976   0.488  26.172  0.00  0.00    +0.145 HD
ENDBRANCH  19  23
BRANCH  19  22
ATOM     22  C   UNL     1       1.026  -0.271  22.707  0.00  0.00    +0.067 C 
BRANCH  22  24
ATOM     24  C   UNL     1       2.511  -0.149  22.949  0.00  0.00    -0.045 A 
ATOM     26  C   UNL     1       3.227  -1.237  23.450  0.00  0.00    +0.004 A 
ATOM     27  C   UNL     1       3.167   1.050  22.673  0.00  0.00    +0.004 A 
ATOM     31  C   UNL     1       4.599  -1.124  23.674  0.00  0.00    +0.000 A 
ATOM     32  C   UNL     1       4.539   1.162  22.896  0.00  0.00    +0.000 A 
ATOM     33  C   UNL     1       5.256   0.076  23.397  0.00  0.00    +0.000 A 
ENDBRANCH  22  24
ENDBRANCH  19  22
ENDBRANCH  10  19
ENDBRANCH  14  17
BRANCH  18  20
ATOM     20  C   UNL     1      -4.848  -0.705  24.703  0.00  0.00    +0.164 C 
BRANCH  20   1
ATOM      1  S   UNL     1      -3.945  -1.455  26.065  0.00  0.00    -0.155 S 
ATOM     28  C   UNL     1      -3.274  -2.894  25.199  0.00  0.00    +0.085 C 
ENDBRANCH  20   1
ENDBRANCH  18  20
TORSDOF 9
ENDMDL
MODEL 7
REMARK VINA RESULT:       5.3      1.826      3.533
REMARK  Name = 11865732
REMARK  10 active torsions:
REMARK  status: ('A' for Active; 'I' for Inactive)
REMARK    1  A    between atoms: S_1  and  C_20
REMARK    2  A    between atoms: S_1  and  C_28
REMARK    3  A    between atoms: N_9  and  C_13
REMARK    4  A    between atoms: N_10  and  C_19
REMARK    5  A    between atoms: N_11  and  C_25
REMARK    6  A    between atoms: C_14  and  C_17
REMARK    7  A    between atoms: C_18  and  C_20
REMARK    8  A    between atoms: C_19  and  C_22
REMARK    9  A    between atoms: C_19  and  C_23
REMARK   10  A    between atoms: C_22  and  C_24
REMARK                            x       y       z     vdW  Elec       q    Type
REMARK                         _______ _______ _______ _____ _____    ______ ____
ROOT
ATOM      5  O   UNL     1      -4.404   0.881  26.725  0.00  0.00    -0.275 OA
ATOM      8  N   UNL     1      -3.466  -0.299  24.968  0.00  0.00    -0.287 N 
ATOM     13  C   UNL     1      -2.174  -1.575  23.437  0.00  0.00    +0.094 C 
ATOM     14  C   UNL     1      -2.517  -1.054  25.771  0.00  0.00    +0.164 C 
ATOM     15  C   UNL     1      -1.996  -2.151  24.844  0.00  0.00    +0.055 C 
ATOM     16  C   UNL     1      -3.421  -0.706  23.564  0.00  0.00    +0.131 C 
ATOM     18  C   UNL     1      -4.396   0.559  25.535  0.00  0.00    +0.226 C 
ENDROOT
BRANCH  13   9
ATOM      6  O   UNL     1       0.536  -1.950  24.290  0.00  0.00    -0.252 OA
ATOM      9  N   UNL     1      -1.025  -0.807  23.023  0.00  0.00    -0.295 N 
ATOM     11  N   UNL     1       1.176  -0.157  22.915  0.00  0.00    -0.267 N 
ATOM     21  C   UNL     1       0.272  -1.055  23.488  0.00  0.00    +0.304 C 
ATOM     37  H   UNL     1      -1.172  -0.011  22.411  0.00  0.00    +0.151 HD
ATOM     39  H   UNL     1       0.794   0.527  22.267  0.00  0.00    +0.156 HD
BRANCH  11  25
ATOM      2  F   UNL     1       2.586  -2.219  24.151  0.00  0.00    -0.203 F 
ATOM      3  F   UNL     1       6.649   0.167  23.734  0.00  0.00    -0.205 F 
ATOM     25  C   UNL     1       2.572  -0.077  23.125  0.00  0.00    +0.070 A 
ATOM     29  C   UNL     1       3.249  -1.126  23.748  0.00  0.00    +0.147 A 
ATOM     30  C   UNL     1       3.273   1.054  22.708  0.00  0.00    +0.029 A 
ATOM     34  C   UNL     1       4.625  -1.043  23.954  0.00  0.00    +0.078 A 
ATOM     35  C   UNL     1       4.650   1.137  22.914  0.00  0.00    +0.040 A 
ATOM     36  C   UNL     1       5.326   0.088  23.537  0.00  0.00    +0.126 A 
ENDBRANCH  11  25
ENDBRANCH  13   9
BRANCH  14  17
ATOM      4  O   UNL     1      -0.703  -0.392  27.177  0.00  0.00    -0.274 OA
ATOM     10  N   UNL     1      -1.336   1.001  25.423  0.00  0.00    -0.302 N 
ATOM     17  C   UNL     1      -1.416  -0.135  26.209  0.00  0.00    +0.234 C 
ATOM     38  H   UNL     1      -1.966   1.101  24.630  0.00  0.00    +0.150 HD
BRANCH  10  19
ATOM     19  C   UNL     1      -0.375   2.054  25.649  0.00  0.00    +0.163 C 
BRANCH  19  23
ATOM      7  O   UNL     1      -0.446   2.573  23.277  0.00  0.00    -0.274 OA
ATOM     12  N   UNL     1      -0.485   4.308  24.782  0.00  0.00    -0.328 N 
ATOM     23  C   UNL     1      -0.422   2.974  24.438  0.00  0.00    +0.231 C 
ATOM     40  H   UNL     1      -0.534   5.027  24.068  0.00  0.00    +0.145 HD
ATOM     41  H   UNL     1      -0.488   4.623  25.746  0.00  0.00    +0.145 HD
ENDBRANCH  19  23
BRANCH  19  22
ATOM     22  C   UNL     1      -0.670   2.844  26.930  0.00  0.00    +0.067 C 
BRANCH  22  24
ATOM     24  C   UNL     1       0.442   2.746  27.945  0.00  0.00    -0.045 A 
ATOM     26  C   UNL     1       0.146   2.451  29.277  0.00  0.00    +0.004 A 
ATOM     27  C   UNL     1       1.764   2.951  27.554  0.00  0.00    +0.004 A 
ATOM     31  C   UNL     1       1.174   2.360  30.216  0.00  0.00    +0.000 A 
ATOM     32  C   UNL     1       2.792   2.860  28.493  0.00  0.00    +0.000 A 
ATOM     33  C   UNL     1       2.497   2.565  29.824  0.00  0.00    +0.000 A 
ENDBRANCH  22  24
ENDBRANCH  19  22
ENDBRANCH  10  19
ENDBRANCH  14  17
BRANCH  18  20
ATOM     20  C   UNL     1      -5.433   1.111  24.590  0.00  0.00    +0.164 C 
BRANCH  20   1
ATOM      1  S   UNL     1      -5.607   2.868  24.936  0.00  0.00    -0.155 S 
ATOM     28  C   UNL     1      -3.994   3.432  24.341  0.00  0.00    +0.085 C 
ENDBRANCH  20   1
ENDBRANCH  18  20
TORSDOF 9
ENDMDL
MODEL 8
REMARK VINA RESULT:       5.6      2.922      5.546
REMARK  Name = 11865732
REMARK  10 active torsions:
REMARK  status: ('A' for Active; 'I' for Inactive)
REMARK    1  A    between atoms: S_1  and  C_20
REMARK    2  A    between atoms: S_1  and  C_28
REMARK    3  A    between atoms: N_9  and  C_13
REMARK    4  A    between atoms: N_10  and  C_19
REMARK    5  A    between atoms: N_11  and  C_25
REMARK    6  A    between atoms: C_14  and  C_17
REMARK    7  A    between atoms: C_18  and  C_20
REMARK    8  A    between atoms: C_19  and  C_22
REMARK    9  A    between atoms: C_19  and  C_23
REMARK   10  A    between atoms: C_22  and  C_24
REMARK                            x       y       z     vdW  Elec       q    Type
REMARK                         _______ _______ _______ _____ _____    ______ ____
ROOT
ATOM      5  O   UNL     1      -3.620   0.245  23.591  0.00  0.00    -0.275 OA
ATOM      8  N   UNL     1      -2.669   2.281  24.147  0.00  0.00    -0.287 N 
ATOM     13  C   UNL     1      -1.363   4.238  24.472  0.00  0.00    +0.094 C 
ATOM     14  C   UNL     1      -1.712   2.314  23.051  0.00  0.00    +0.164 C 
ATOM     15  C   UNL     1      -1.179   3.746  23.033  0.00  0.00    +0.055 C 
ATOM     16  C   UNL     1      -2.620   3.510  24.938  0.00  0.00    +0.131 C 
ATOM     18  C   UNL     1      -3.609   1.269  24.276  0.00  0.00    +0.226 C 
ENDROOT
BRANCH  13   9
ATOM      6  O   UNL     1      -1.415   3.280  27.172  0.00  0.00    -0.252 OA
ATOM      9  N   UNL     1      -0.223   3.922  25.296  0.00  0.00    -0.295 N 
ATOM     11  N   UNL     1       0.933   3.236  27.160  0.00  0.00    -0.267 N 
ATOM     21  C   UNL     1      -0.334   3.456  26.612  0.00  0.00    +0.304 C 
ATOM     37  H   UNL     1       0.705   4.102  24.927  0.00  0.00    +0.151 HD
ATOM     39  H   UNL     1       1.732   3.433  26.562  0.00  0.00    +0.156 HD
BRANCH  11  25
ATOM      2  F   UNL     1       3.512   2.419  27.826  0.00  0.00    -0.203 F 
ATOM      3  F   UNL     1       2.163   1.404  32.245  0.00  0.00    -0.205 F 
ATOM     25  C   UNL     1       1.249   2.769  28.457  0.00  0.00    +0.070 A 
ATOM     29  C   UNL     1       2.550   2.366  28.758  0.00  0.00    +0.147 A 
ATOM     30  C   UNL     1       0.257   2.711  29.435  0.00  0.00    +0.029 A 
ATOM     34  C   UNL     1       2.858   1.904  30.037  0.00  0.00    +0.078 A 
ATOM     35  C   UNL     1       0.566   2.250  30.715  0.00  0.00    +0.040 A 
ATOM     36  C   UNL     1       1.866   1.846  31.016  0.00  0.00    +0.126 A 
ENDBRANCH  11  25
ENDBRANCH  13   9
BRANCH  14  17
ATOM      4  O   UNL     1       0.299   1.577  24.108  0.00  0.00    -0.274 OA
ATOM     10  N   UNL     1      -0.776   0.153  22.613  0.00  0.00    -0.302 N 
ATOM     17  C   UNL     1      -0.621   1.325  23.333  0.00  0.00    +0.234 C 
ATOM     38  H   UNL     1      -1.591   0.043  22.014  0.00  0.00    +0.150 HD
BRANCH  10  19
ATOM     19  C   UNL     1       0.152  -0.950  22.688  0.00  0.00    +0.163 C 
BRANCH  19  23
ATOM      7  O   UNL     1       1.758  -0.297  20.985  0.00  0.00    -0.274 OA
ATOM     12  N   UNL     1       2.366  -0.123  23.193  0.00  0.00    -0.328 N 
ATOM     23  C   UNL     1       1.493  -0.445  22.176  0.00  0.00    +0.231 C 
ATOM     40  H   UNL     1       3.291   0.239  22.989  0.00  0.00    +0.145 HD
ATOM     41  H   UNL     1       2.125  -0.227  24.173  0.00  0.00    +0.145 HD
ENDBRANCH  19  23
BRANCH  19  22
ATOM     22  C   UNL     1       0.296  -1.492  24.115  0.00  0.00    +0.067 C 
BRANCH  22  24
ATOM     24  C   UNL     1      -1.034  -1.705  24.795  0.00  0.00    -0.045 A 
ATOM     26  C   UNL     1      -1.347  -0.993  25.953  0.00  0.00    +0.004 A 
ATOM     27  C   UNL     1      -1.950  -2.615  24.267  0.00  0.00    +0.004 A 
ATOM     31  C   UNL     1      -2.577  -1.190  26.581  0.00  0.00    +0.000 A 
ATOM     32  C   UNL     1      -3.180  -2.812  24.895  0.00  0.00    +0.000 A 
ATOM     33  C   UNL     1      -3.493  -2.100  26.053  0.00  0.00    +0.000 A 
ENDBRANCH  22  24
ENDBRANCH  19  22
ENDBRANCH  10  19
ENDBRANCH  14  17
BRANCH  18  20
ATOM     20  C   UNL     1      -4.651   1.482  25.345  0.00  0.00    +0.164 C 
BRANCH  20   1
ATOM      1  S   UNL     1      -6.006   2.408  24.609  0.00  0.00    -0.155 S 
ATOM     28  C   UNL     1      -5.861   3.932  25.573  0.00  0.00    +0.085 C 
ENDBRANCH  20   1
ENDBRANCH  18  20
TORSDOF 9
ENDMDL
MODEL 9
REMARK VINA RESULT:       6.3      2.794      5.183
REMARK  Name = 11865732
REMARK  10 active torsions:
REMARK  status: ('A' for Active; 'I' for Inactive)
REMARK    1  A    between atoms: S_1  and  C_20
REMARK    2  A    between atoms: S_1  and  C_28
REMARK    3  A    between atoms: N_9  and  C_13
REMARK    4  A    between atoms: N_10  and  C_19
REMARK    5  A    between atoms: N_11  and  C_25
REMARK    6  A    between atoms: C_14  and  C_17
REMARK    7  A    between atoms: C_18  and  C_20
REMARK    8  A    between atoms: C_19  and  C_22
REMARK    9  A    between atoms: C_19  and  C_23
REMARK   10  A    between atoms: C_22  and  C_24
REMARK                            x       y       z     vdW  Elec       q    Type
REMARK                         _______ _______ _______ _____ _____    ______ ____
ROOT
ATOM      5  O   UNL     1      -5.379   1.303  24.124  0.00  0.00    -0.275 OA
ATOM      8  N   UNL     1      -3.695   2.884  23.963  0.00  0.00    -0.287 N 
ATOM     13  C   UNL     1      -1.771   4.212  23.550  0.00  0.00    +0.094 C 
ATOM     14  C   UNL     1      -3.077   2.338  22.765  0.00  0.00    +0.164 C 
ATOM     15  C   UNL     1      -2.116   3.423  22.284  0.00  0.00    +0.055 C 
ATOM     16  C   UNL     1      -3.046   4.126  24.381  0.00  0.00    +0.131 C 
ATOM     18  C   UNL     1      -4.859   2.355  24.501  0.00  0.00    +0.226 C 
ENDROOT
BRANCH  13   9
ATOM      6  O   UNL     1      -1.463   3.933  26.385  0.00  0.00    -0.252 OA
ATOM      9  N   UNL     1      -0.640   3.646  24.243  0.00  0.00    -0.295 N 
ATOM     11  N   UNL     1       0.642   2.957  26.022  0.00  0.00    -0.267 N 
ATOM     21  C   UNL     1      -0.567   3.545  25.638  0.00  0.00    +0.304 C 
ATOM     37  H   UNL     1       0.168   3.362  23.697  0.00  0.00    +0.151 HD
ATOM     39  H   UNL     1       1.280   2.692  25.276  0.00  0.00    +0.156 HD
BRANCH  11  25
ATOM      2  F   UNL     1      -0.785   1.288  27.737  0.00  0.00    -0.203 F 
ATOM      3  F   UNL     1       2.428   1.880  31.157  0.00  0.00    -0.205 F 
ATOM     25  C   UNL     1       1.095   2.681  27.332  0.00  0.00    +0.070 A 
ATOM     29  C   UNL     1       0.357   1.841  28.167  0.00  0.00    +0.147 A 
ATOM     30  C   UNL     1       2.284   3.250  27.790  0.00  0.00    +0.029 A 
ATOM     34  C   UNL     1       0.807   1.571  29.459  0.00  0.00    +0.078 A 
ATOM     35  C   UNL     1       2.734   2.979  29.082  0.00  0.00    +0.040 A 
ATOM     36  C   UNL     1       1.996   2.140  29.917  0.00  0.00    +0.126 A 
ENDBRANCH  11  25
ENDBRANCH  13   9
BRANCH  14  17
ATOM      4  O   UNL     1      -2.945   0.032  23.369  0.00  0.00    -0.274 OA
ATOM     10  N   UNL     1      -0.977   1.260  23.175  0.00  0.00    -0.302 N 
ATOM     17  C   UNL     1      -2.349   1.078  23.128  0.00  0.00    +0.234 C 
ATOM     38  H   UNL     1      -0.589   2.169  22.935  0.00  0.00    +0.150 HD
BRANCH  10  19
ATOM     19  C   UNL     1      -0.051   0.208  23.523  0.00  0.00    +0.163 C 
BRANCH  19  23
ATOM      7  O   UNL     1       1.700   1.887  23.662  0.00  0.00    -0.274 OA
ATOM     12  N   UNL     1       2.210  -0.159  22.752  0.00  0.00    -0.328 N 
ATOM     23  C   UNL     1       1.352   0.760  23.319  0.00  0.00    +0.231 C 
ATOM     40  H   UNL     1       3.180   0.076  22.574  0.00  0.00    +0.145 HD
ATOM     41  H   UNL     1       1.915  -1.096  22.496  0.00  0.00    +0.145 HD
ENDBRANCH  19  23
BRANCH  19  22
ATOM     22  C   UNL     1      -0.232  -0.270  24.969  0.00  0.00    +0.067 C 
BRANCH  22  24
ATOM     24  C   UNL     1      -1.406  -1.203  25.132  0.00  0.00    -0.045 A 
ATOM     26  C   UNL     1      -1.480  -2.371  24.371  0.00  0.00    +0.004 A 
ATOM     27  C   UNL     1      -2.418  -0.900  26.042  0.00  0.00    +0.004 A 
ATOM     31  C   UNL     1      -2.565  -3.234  24.522  0.00  0.00    +0.000 A 
ATOM     32  C   UNL     1      -3.503  -1.763  26.194  0.00  0.00    +0.000 A 
ATOM     33  C   UNL     1      -3.577  -2.930  25.434  0.00  0.00    +0.000 A 
ENDBRANCH  22  24
ENDBRANCH  19  22
ENDBRANCH  10  19
ENDBRANCH  14  17
BRANCH  18  20
ATOM     20  C   UNL     1      -5.479   3.151  25.622  0.00  0.00    +0.164 C 
BRANCH  20   1
ATOM      1  S   UNL     1      -7.044   2.374  26.044  0.00  0.00    -0.155 S 
ATOM     28  C   UNL     1      -6.478   1.322  27.403  0.00  0.00    +0.085 C 
ENDBRANCH  20   1
ENDBRANCH  18  20
TORSDOF 9
ENDMDL
