MODEL 1
REMARK VINA RESULT:       3.3      0.000      0.000
REMARK  Name = 11867236
REMARK  6 active torsions:
REMARK  status: ('A' for Active; 'I' for Inactive)
REMARK    1  A    between atoms: S_1  and  N_10
REMARK    2  A    between atoms: S_1  and  C_24
REMARK    3  A    between atoms: N_9  and  C_23
REMARK    4  A    between atoms: N_10  and  C_21
REMARK    5  A    between atoms: C_24  and  C_25
REMARK    6  A    between atoms: C_25  and  C_28
REMARK                            x       y       z     vdW  Elec       q    Type
REMARK                         _______ _______ _______ _____ _____    ______ ____
ROOT
ATOM      3  O   UNL     1       0.233   2.300  26.278  0.00  0.00    -0.266 OA
ATOM      4  O   UNL     1      -4.564   0.179  26.565  0.00  0.00    -0.252 OA
ATOM      7  N   UNL     1      -1.659   3.114  25.161  0.00  0.00    -0.310 N 
ATOM      8  N   UNL     1      -4.684   2.101  25.282  0.00  0.00    -0.284 N 
ATOM      9  N   UNL     1      -4.636  -0.024  24.256  0.00  0.00    -0.269 N 
ATOM     11  C   UNL     1      -3.677   4.112  26.376  0.00  0.00    +0.027 C 
ATOM     12  C   UNL     1      -3.695   3.940  23.925  0.00  0.00    +0.054 C 
ATOM     13  C   UNL     1      -3.886   4.905  25.093  0.00  0.00    +0.018 C 
ATOM     14  C   UNL     1      -2.230   3.606  26.421  0.00  0.00    +0.130 C 
ATOM     15  C   UNL     1      -4.694   2.963  26.468  0.00  0.00    +0.114 C 
ATOM     16  C   UNL     1      -4.749   2.817  23.995  0.00  0.00    +0.119 C 
ATOM     17  C   UNL     1      -2.302   3.335  23.936  0.00  0.00    +0.027 A 
ATOM     18  C   UNL     1      -1.709   2.983  22.781  0.00  0.00    +0.024 A 
ATOM     19  C   UNL     1      -0.388   2.506  25.236  0.00  0.00    +0.274 A 
ATOM     20  C   UNL     1      -4.616   0.700  25.447  0.00  0.00    +0.306 C 
ATOM     21  C   UNL     1       0.205   2.118  23.932  0.00  0.00    +0.112 A 
ATOM     22  C   UNL     1      -0.415   2.353  22.775  0.00  0.00    +0.031 A 
ATOM     32  H   UNL     1      -5.104   0.384  23.454  0.00  0.00    +0.156 HD
ENDROOT
BRANCH   9  23
ATOM      2  F   UNL     1      -2.573  -5.091  23.381  0.00  0.00    -0.205 F 
ATOM     23  C   UNL     1      -4.110  -1.320  24.034  0.00  0.00    +0.035 A 
ATOM     26  C   UNL     1      -4.913  -2.306  23.468  0.00  0.00    +0.026 A 
ATOM     27  C   UNL     1      -2.790  -1.599  24.379  0.00  0.00    +0.026 A 
ATOM     29  C   UNL     1      -4.393  -3.583  23.248  0.00  0.00    +0.040 A 
ATOM     30  C   UNL     1      -2.271  -2.875  24.159  0.00  0.00    +0.040 A 
ATOM     31  C   UNL     1      -3.073  -3.866  23.593  0.00  0.00    +0.124 A 
ENDBRANCH   9  23
BRANCH  21  10
ATOM     10  N   UNL     1       1.463   1.494  23.883  0.00  0.00    -0.215 N 
ATOM     33  H   UNL     1       2.230   2.099  23.559  0.00  0.00    +0.173 HD
BRANCH  10   1
ATOM      1  S   UNL     1       1.479  -0.075  23.214  0.00  0.00    +0.043 S 
ATOM      5  O   UNL     1       0.642  -0.954  24.009  0.00  0.00    -0.155 OA
ATOM      6  O   UNL     1       1.319   0.016  21.776  0.00  0.00    -0.155 OA
BRANCH   1  24
ATOM     24  C   UNL     1       3.167  -0.520  23.539  0.00  0.00    +0.188 C 
BRANCH  24  25
ATOM     25  C   UNL     1       4.127   0.539  23.024  0.00  0.00    +0.021 C 
ATOM     28  C   UNL     1       5.562   0.228  23.419  0.00  0.00    +0.005 C 
ENDBRANCH  24  25
ENDBRANCH   1  24
ENDBRANCH  10   1
ENDBRANCH  21  10
TORSDOF 5
ENDMDL
MODEL 2
REMARK VINA RESULT:       3.4      2.742      5.462
REMARK  Name = 11867236
REMARK  6 active torsions:
REMARK  status: ('A' for Active; 'I' for Inactive)
REMARK    1  A    between atoms: S_1  and  N_10
REMARK    2  A    between atoms: S_1  and  C_24
REMARK    3  A    between atoms: N_9  and  C_23
REMARK    4  A    between atoms: N_10  and  C_21
REMARK    5  A    between atoms: C_24  and  C_25
REMARK    6  A    between atoms: C_25  and  C_28
REMARK                            x       y       z     vdW  Elec       q    Type
REMARK                         _______ _______ _______ _____ _____    ______ ____
ROOT
ATOM      3  O   UNL     1      -4.313   4.014  23.183  0.00  0.00    -0.266 OA
ATOM      4  O   UNL     1      -0.289   0.643  23.000  0.00  0.00    -0.252 OA
ATOM      7  N   UNL     1      -2.421   4.113  24.563  0.00  0.00    -0.310 N 
ATOM      8  N   UNL     1       0.199   2.287  24.553  0.00  0.00    -0.284 N 
ATOM      9  N   UNL     1      -0.558   0.164  25.253  0.00  0.00    -0.269 N 
ATOM     11  C   UNL     1      -0.073   4.615  23.679  0.00  0.00    +0.027 C 
ATOM     12  C   UNL     1      -0.403   4.167  26.073  0.00  0.00    +0.054 C 
ATOM     13  C   UNL     1       0.187   5.162  25.077  0.00  0.00    +0.018 C 
ATOM     14  C   UNL     1      -1.587   4.559  23.440  0.00  0.00    +0.130 C 
ATOM     15  C   UNL     1       0.591   3.239  23.509  0.00  0.00    +0.114 C 
ATOM     16  C   UNL     1       0.301   2.802  25.930  0.00  0.00    +0.119 C 
ATOM     17  C   UNL     1      -1.896   3.996  25.857  0.00  0.00    +0.027 A 
ATOM     18  C   UNL     1      -2.701   3.701  26.894  0.00  0.00    +0.024 A 
ATOM     19  C   UNL     1      -3.791   3.911  24.293  0.00  0.00    +0.274 A 
ATOM     20  C   UNL     1      -0.232   0.995  24.181  0.00  0.00    +0.306 C 
ATOM     21  C   UNL     1      -4.623   3.564  25.473  0.00  0.00    +0.112 A 
ATOM     22  C   UNL     1      -4.108   3.476  26.700  0.00  0.00    +0.031 A 
ATOM     32  H   UNL     1      -0.097   0.325  26.142  0.00  0.00    +0.156 HD
ENDROOT
BRANCH   9  23
ATOM      2  F   UNL     1      -4.030  -4.153  25.200  0.00  0.00    -0.205 F 
ATOM     23  C   UNL     1      -1.445  -0.940  25.241  0.00  0.00    +0.035 A 
ATOM     26  C   UNL     1      -2.407  -1.067  26.239  0.00  0.00    +0.026 A 
ATOM     27  C   UNL     1      -1.351  -1.891  24.228  0.00  0.00    +0.026 A 
ATOM     29  C   UNL     1      -3.281  -2.155  26.226  0.00  0.00    +0.040 A 
ATOM     30  C   UNL     1      -2.225  -2.978  24.215  0.00  0.00    +0.040 A 
ATOM     31  C   UNL     1      -3.190  -3.109  25.214  0.00  0.00    +0.124 A 
ENDBRANCH   9  23
BRANCH  21  10
ATOM     10  N   UNL     1      -6.001   3.331  25.324  0.00  0.00    -0.215 N 
ATOM     33  H   UNL     1      -6.606   4.006  25.812  0.00  0.00    +0.173 HD
BRANCH  10   1
ATOM      1  S   UNL     1      -6.490   1.705  25.488  0.00  0.00    +0.043 S 
ATOM      5  O   UNL     1      -6.986   1.478  26.833  0.00  0.00    -0.155 OA
ATOM      6  O   UNL     1      -7.266   1.318  24.327  0.00  0.00    -0.155 OA
BRANCH   1  24
ATOM     24  C   UNL     1      -4.910   0.904  25.368  0.00  0.00    +0.188 C 
BRANCH  24  25
ATOM     25  C   UNL     1      -4.782   0.125  24.070  0.00  0.00    +0.021 C 
ATOM     28  C   UNL     1      -3.645   0.657  23.213  0.00  0.00    +0.005 C 
ENDBRANCH  24  25
ENDBRANCH   1  24
ENDBRANCH  10   1
ENDBRANCH  21  10
TORSDOF 5
ENDMDL
MODEL 3
REMARK VINA RESULT:       5.3      3.157      5.916
REMARK  Name = 11867236
REMARK  6 active torsions:
REMARK  status: ('A' for Active; 'I' for Inactive)
REMARK    1  A    between atoms: S_1  and  N_10
REMARK    2  A    between atoms: S_1  and  C_24
REMARK    3  A    between atoms: N_9  and  C_23
REMARK    4  A    between atoms: N_10  and  C_21
REMARK    5  A    between atoms: C_24  and  C_25
REMARK    6  A    between atoms: C_25  and  C_28
REMARK                            x       y       z     vdW  Elec       q    Type
REMARK                         _______ _______ _______ _____ _____    ______ ____
ROOT
ATOM      3  O   UNL     1       0.012   0.875  22.605  0.00  0.00    -0.266 OA
ATOM      4  O   UNL     1      -4.982  -0.448  23.554  0.00  0.00    -0.252 OA
ATOM      7  N   UNL     1      -0.703  -0.448  24.402  0.00  0.00    -0.310 N 
ATOM      8  N   UNL     1      -3.632  -1.502  25.110  0.00  0.00    -0.284 N 
ATOM      9  N   UNL     1      -4.835   0.444  25.689  0.00  0.00    -0.269 N 
ATOM     11  C   UNL     1      -1.729  -2.773  24.102  0.00  0.00    +0.027 C 
ATOM     12  C   UNL     1      -1.500  -1.824  26.358  0.00  0.00    +0.054 C 
ATOM     13  C   UNL     1      -1.181  -3.044  25.497  0.00  0.00    +0.018 C 
ATOM     14  C   UNL     1      -0.988  -1.572  23.501  0.00  0.00    +0.130 C 
ATOM     15  C   UNL     1      -3.249  -2.547  24.157  0.00  0.00    +0.114 C 
ATOM     16  C   UNL     1      -3.028  -1.632  26.449  0.00  0.00    +0.119 C 
ATOM     17  C   UNL     1      -0.861  -0.570  25.789  0.00  0.00    +0.027 A 
ATOM     18  C   UNL     1      -0.483   0.428  26.607  0.00  0.00    +0.024 A 
ATOM     19  C   UNL     1      -0.165   0.715  23.812  0.00  0.00    +0.274 A 
ATOM     20  C   UNL     1      -4.519  -0.483  24.698  0.00  0.00    +0.306 C 
ATOM     21  C   UNL     1       0.210   1.790  24.764  0.00  0.00    +0.112 A 
ATOM     22  C   UNL     1       0.070   1.648  26.083  0.00  0.00    +0.031 A 
ATOM     32  H   UNL     1      -4.802   0.142  26.657  0.00  0.00    +0.156 HD
ENDROOT
BRANCH   9  23
ATOM      2  F   UNL     1      -6.480   5.686  24.970  0.00  0.00    -0.205 F 
ATOM     23  C   UNL     1      -5.257   1.784  25.505  0.00  0.00    +0.035 A 
ATOM     26  C   UNL     1      -6.201   2.337  26.366  0.00  0.00    +0.026 A 
ATOM     27  C   UNL     1      -4.723   2.540  24.465  0.00  0.00    +0.026 A 
ATOM     29  C   UNL     1      -6.615   3.657  26.184  0.00  0.00    +0.040 A 
ATOM     30  C   UNL     1      -5.137   3.860  24.284  0.00  0.00    +0.040 A 
ATOM     31  C   UNL     1      -6.083   4.418  25.143  0.00  0.00    +0.124 A 
ENDBRANCH   9  23
BRANCH  21  10
ATOM     10  N   UNL     1       0.747   3.000  24.291  0.00  0.00    -0.215 N 
ATOM     33  H   UNL     1       1.477   3.409  24.890  0.00  0.00    +0.173 HD
BRANCH  10   1
ATOM      1  S   UNL     1      -0.391   4.127  23.705  0.00  0.00    +0.043 S 
ATOM      5  O   UNL     1       0.259   5.049  22.792  0.00  0.00    -0.155 OA
ATOM      6  O   UNL     1      -1.606   3.431  23.330  0.00  0.00    -0.155 OA
BRANCH   1  24
ATOM     24  C   UNL     1      -0.725   5.019  25.204  0.00  0.00    +0.188 C 
BRANCH  24  25
ATOM     25  C   UNL     1      -2.217   5.089  25.485  0.00  0.00    +0.021 C 
ATOM     28  C   UNL     1      -2.622   4.111  26.576  0.00  0.00    +0.005 C 
ENDBRANCH  24  25
ENDBRANCH   1  24
ENDBRANCH  10   1
ENDBRANCH  21  10
TORSDOF 5
ENDMDL
MODEL 4
REMARK VINA RESULT:       5.5      2.842      5.545
REMARK  Name = 11867236
REMARK  6 active torsions:
REMARK  status: ('A' for Active; 'I' for Inactive)
REMARK    1  A    between atoms: S_1  and  N_10
REMARK    2  A    between atoms: S_1  and  C_24
REMARK    3  A    between atoms: N_9  and  C_23
REMARK    4  A    between atoms: N_10  and  C_21
REMARK    5  A    between atoms: C_24  and  C_25
REMARK    6  A    between atoms: C_25  and  C_28
REMARK                            x       y       z     vdW  Elec       q    Type
REMARK                         _______ _______ _______ _____ _____    ______ ____
ROOT
ATOM      3  O   UNL     1      -0.207  -1.624  22.155  0.00  0.00    -0.266 OA
ATOM      4  O   UNL     1      -4.203   1.552  23.396  0.00  0.00    -0.252 OA
ATOM      7  N   UNL     1      -1.614  -1.905  24.008  0.00  0.00    -0.310 N 
ATOM      8  N   UNL     1      -4.173  -0.213  24.891  0.00  0.00    -0.284 N 
ATOM      9  N   UNL     1      -3.305   1.893  25.506  0.00  0.00    -0.269 N 
ATOM     11  C   UNL     1      -4.102  -2.463  23.800  0.00  0.00    +0.027 C 
ATOM     12  C   UNL     1      -3.105  -2.157  26.025  0.00  0.00    +0.054 C 
ATOM     13  C   UNL     1      -3.931  -3.112  25.167  0.00  0.00    +0.018 C 
ATOM     14  C   UNL     1      -2.725  -2.317  23.141  0.00  0.00    +0.130 C 
ATOM     15  C   UNL     1      -4.825  -1.112  23.934  0.00  0.00    +0.114 C 
ATOM     16  C   UNL     1      -3.857  -0.822  26.196  0.00  0.00    +0.119 C 
ATOM     17  C   UNL     1      -1.744  -1.900  25.403  0.00  0.00    +0.027 A 
ATOM     18  C   UNL     1      -0.682  -1.634  26.184  0.00  0.00    +0.024 A 
ATOM     19  C   UNL     1      -0.387  -1.620  23.372  0.00  0.00    +0.274 A 
ATOM     20  C   UNL     1      -3.905   1.120  24.513  0.00  0.00    +0.306 C 
ATOM     21  C   UNL     1       0.741  -1.311  24.286  0.00  0.00    +0.112 A 
ATOM     22  C   UNL     1       0.602  -1.329  25.613  0.00  0.00    +0.031 A 
ATOM     32  H   UNL     1      -3.483   1.652  26.475  0.00  0.00    +0.156 HD
ENDROOT
BRANCH   9  23
ATOM      2  F   UNL     1      -0.124   6.373  24.791  0.00  0.00    -0.205 F 
ATOM     23  C   UNL     1      -2.491   3.038  25.325  0.00  0.00    +0.035 A 
ATOM     26  C   UNL     1      -1.166   2.889  24.926  0.00  0.00    +0.026 A 
ATOM     27  C   UNL     1      -3.023   4.306  25.544  0.00  0.00    +0.026 A 
ATOM     29  C   UNL     1      -0.365   4.018  24.746  0.00  0.00    +0.040 A 
ATOM     30  C   UNL     1      -2.221   5.434  25.364  0.00  0.00    +0.040 A 
ATOM     31  C   UNL     1      -0.893   5.289  24.965  0.00  0.00    +0.124 A 
ENDBRANCH   9  23
BRANCH  21  10
ATOM     10  N   UNL     1       2.009  -1.001  23.766  0.00  0.00    -0.215 N 
ATOM     33  H   UNL     1       2.773  -1.021  24.457  0.00  0.00    +0.173 HD
BRANCH  10   1
ATOM      1  S   UNL     1       2.061   0.332  22.704  0.00  0.00    +0.043 S 
ATOM      5  O   UNL     1       2.005  -0.134  21.331  0.00  0.00    -0.155 OA
ATOM      6  O   UNL     1       1.161   1.363  23.184  0.00  0.00    -0.155 OA
BRANCH   1  24
ATOM     24  C   UNL     1       3.720   0.888  23.004  0.00  0.00    +0.188 C 
BRANCH  24  25
ATOM     25  C   UNL     1       4.666  -0.282  23.213  0.00  0.00    +0.021 C 
ATOM     28  C   UNL     1       5.770   0.065  24.198  0.00  0.00    +0.005 C 
ENDBRANCH  24  25
ENDBRANCH   1  24
ENDBRANCH  10   1
ENDBRANCH  21  10
TORSDOF 5
ENDMDL
MODEL 5
REMARK VINA RESULT:       5.5      1.568      2.039
REMARK  Name = 11867236
REMARK  6 active torsions:
REMARK  status: ('A' for Active; 'I' for Inactive)
REMARK    1  A    between atoms: S_1  and  N_10
REMARK    2  A    between atoms: S_1  and  C_24
REMARK    3  A    between atoms: N_9  and  C_23
REMARK    4  A    between atoms: N_10  and  C_21
REMARK    5  A    between atoms: C_24  and  C_25
REMARK    6  A    between atoms: C_25  and  C_28
REMARK                            x       y       z     vdW  Elec       q    Type
REMARK                         _______ _______ _______ _____ _____    ______ ____
ROOT
ATOM      3  O   UNL     1       0.060   2.372  26.462  0.00  0.00    -0.266 OA
ATOM      4  O   UNL     1      -4.913   0.690  26.653  0.00  0.00    -0.252 OA
ATOM      7  N   UNL     1      -1.699   3.248  25.185  0.00  0.00    -0.310 N 
ATOM      8  N   UNL     1      -4.804   2.505  25.222  0.00  0.00    -0.284 N 
ATOM      9  N   UNL     1      -4.895   0.307  24.366  0.00  0.00    -0.269 N 
ATOM     11  C   UNL     1      -3.676   4.507  26.211  0.00  0.00    +0.027 C 
ATOM     12  C   UNL     1      -3.594   4.138  23.782  0.00  0.00    +0.054 C 
ATOM     13  C   UNL     1      -3.754   5.207  24.860  0.00  0.00    +0.018 C 
ATOM     14  C   UNL     1      -2.283   3.887  26.371  0.00  0.00    +0.130 C 
ATOM     15  C   UNL     1      -4.794   3.458  26.335  0.00  0.00    +0.114 C 
ATOM     16  C   UNL     1      -4.746   3.117  23.882  0.00  0.00    +0.119 C 
ATOM     17  C   UNL     1      -2.263   3.422  23.914  0.00  0.00    +0.027 A 
ATOM     18  C   UNL     1      -1.649   2.928  22.824  0.00  0.00    +0.024 A 
ATOM     19  C   UNL     1      -0.492   2.544  25.375  0.00  0.00    +0.274 A 
ATOM     20  C   UNL     1      -4.867   1.121  25.498  0.00  0.00    +0.306 C 
ATOM     21  C   UNL     1       0.125   2.002  24.138  0.00  0.00    +0.112 A 
ATOM     22  C   UNL     1      -0.417   2.194  22.935  0.00  0.00    +0.031 A 
ATOM     32  H   UNL     1      -5.287   0.687  23.511  0.00  0.00    +0.156 HD
ENDROOT
BRANCH   9  23
ATOM      2  F   UNL     1      -3.256  -4.973  24.002  0.00  0.00    -0.205 F 
ATOM     23  C   UNL     1      -4.474  -1.042  24.273  0.00  0.00    +0.035 A 
ATOM     26  C   UNL     1      -3.753  -1.617  25.316  0.00  0.00    +0.026 A 
ATOM     27  C   UNL     1      -4.787  -1.787  23.139  0.00  0.00    +0.026 A 
ATOM     29  C   UNL     1      -3.340  -2.947  25.224  0.00  0.00    +0.040 A 
ATOM     30  C   UNL     1      -4.374  -3.117  23.047  0.00  0.00    +0.040 A 
ATOM     31  C   UNL     1      -3.651  -3.696  24.090  0.00  0.00    +0.124 A 
ENDBRANCH   9  23
BRANCH  21  10
ATOM     10  N   UNL     1       1.325   1.273  24.205  0.00  0.00    -0.215 N 
ATOM     33  H   UNL     1       2.178   1.838  24.091  0.00  0.00    +0.173 HD
BRANCH  10   1
ATOM      1  S   UNL     1       1.339  -0.198  23.342  0.00  0.00    +0.043 S 
ATOM      5  O   UNL     1       1.275   0.071  21.918  0.00  0.00    -0.155 OA
ATOM      6  O   UNL     1       2.356  -1.070  23.896  0.00  0.00    -0.155 OA
BRANCH   1  24
ATOM     24  C   UNL     1      -0.243  -0.843  23.827  0.00  0.00    +0.188 C 
BRANCH  24  25
ATOM     25  C   UNL     1      -0.160  -1.566  25.160  0.00  0.00    +0.021 C 
ATOM     28  C   UNL     1      -0.922  -0.822  26.245  0.00  0.00    +0.005 C 
ENDBRANCH  24  25
ENDBRANCH   1  24
ENDBRANCH  10   1
ENDBRANCH  21  10
TORSDOF 5
ENDMDL
MODEL 6
REMARK VINA RESULT:       6.9      1.132      1.554
REMARK  Name = 11867236
REMARK  6 active torsions:
REMARK  status: ('A' for Active; 'I' for Inactive)
REMARK    1  A    between atoms: S_1  and  N_10
REMARK    2  A    between atoms: S_1  and  C_24
REMARK    3  A    between atoms: N_9  and  C_23
REMARK    4  A    between atoms: N_10  and  C_21
REMARK    5  A    between atoms: C_24  and  C_25
REMARK    6  A    between atoms: C_25  and  C_28
REMARK                            x       y       z     vdW  Elec       q    Type
REMARK                         _______ _______ _______ _____ _____    ______ ____
ROOT
ATOM      3  O   UNL     1      -0.691   3.320  26.104  0.00  0.00    -0.266 OA
ATOM      4  O   UNL     1      -4.497  -0.241  26.754  0.00  0.00    -0.252 OA
ATOM      7  N   UNL     1      -2.840   3.476  25.184  0.00  0.00    -0.310 N 
ATOM      8  N   UNL     1      -5.351   1.537  25.544  0.00  0.00    -0.284 N 
ATOM      9  N   UNL     1      -4.716  -0.459  24.456  0.00  0.00    -0.269 N 
ATOM     11  C   UNL     1      -4.949   3.767  26.604  0.00  0.00    +0.027 C 
ATOM     12  C   UNL     1      -5.141   3.596  24.159  0.00  0.00    +0.054 C 
ATOM     13  C   UNL     1      -5.522   4.448  25.368  0.00  0.00    +0.018 C 
ATOM     14  C   UNL     1      -3.419   3.758  26.504  0.00  0.00    +0.130 C 
ATOM     15  C   UNL     1      -5.528   2.350  26.751  0.00  0.00    +0.114 C 
ATOM     16  C   UNL     1      -5.764   2.192  24.290  0.00  0.00    +0.119 C 
ATOM     17  C   UNL     1      -3.633   3.475  24.028  0.00  0.00    +0.027 A 
ATOM     18  C   UNL     1      -3.068   3.333  22.816  0.00  0.00    +0.024 A 
ATOM     19  C   UNL     1      -1.440   3.313  25.128  0.00  0.00    +0.274 A 
ATOM     20  C   UNL     1      -4.819   0.234  25.662  0.00  0.00    +0.306 C 
ATOM     21  C   UNL     1      -0.879   3.136  23.765  0.00  0.00    +0.112 A 
ATOM     22  C   UNL     1      -1.647   3.157  22.676  0.00  0.00    +0.031 A 
ATOM     32  H   UNL     1      -5.364  -0.225  23.711  0.00  0.00    +0.156 HD
ENDROOT
BRANCH   9  23
ATOM      2  F   UNL     1      -1.223  -4.590  23.262  0.00  0.00    -0.205 F 
ATOM     23  C   UNL     1      -3.823  -1.514  24.149  0.00  0.00    +0.035 A 
ATOM     26  C   UNL     1      -2.456  -1.347  24.356  0.00  0.00    +0.026 A 
ATOM     27  C   UNL     1      -4.317  -2.714  23.646  0.00  0.00    +0.026 A 
ATOM     29  C   UNL     1      -1.576  -2.387  24.055  0.00  0.00    +0.040 A 
ATOM     30  C   UNL     1      -3.437  -3.755  23.345  0.00  0.00    +0.040 A 
ATOM     31  C   UNL     1      -2.067  -3.591  23.550  0.00  0.00    +0.124 A 
ENDBRANCH   9  23
BRANCH  21  10
ATOM     10  N   UNL     1       0.503   2.954  23.587  0.00  0.00    -0.215 N 
ATOM     33  H   UNL     1       0.898   3.442  22.771  0.00  0.00    +0.173 HD
BRANCH  10   1
ATOM      1  S   UNL     1       1.064   1.356  23.786  0.00  0.00    +0.043 S 
ATOM      5  O   UNL     1       1.322   1.101  25.191  0.00  0.00    -0.155 OA
ATOM      6  O   UNL     1       0.244   0.458  22.998  0.00  0.00    -0.155 OA
BRANCH   1  24
ATOM     24  C   UNL     1       2.640   1.491  22.978  0.00  0.00    +0.188 C 
BRANCH  24  25
ATOM     25  C   UNL     1       3.328   0.140  22.879  0.00  0.00    +0.021 C 
ATOM     28  C   UNL     1       4.746   0.197  23.424  0.00  0.00    +0.005 C 
ENDBRANCH  24  25
ENDBRANCH   1  24
ENDBRANCH  10   1
ENDBRANCH  21  10
TORSDOF 5
ENDMDL
MODEL 7
REMARK VINA RESULT:       7.1      2.951      5.422
REMARK  Name = 11867236
REMARK  6 active torsions:
REMARK  status: ('A' for Active; 'I' for Inactive)
REMARK    1  A    between atoms: S_1  and  N_10
REMARK    2  A    between atoms: S_1  and  C_24
REMARK    3  A    between atoms: N_9  and  C_23
REMARK    4  A    between atoms: N_10  and  C_21
REMARK    5  A    between atoms: C_24  and  C_25
REMARK    6  A    between atoms: C_25  and  C_28
REMARK                            x       y       z     vdW  Elec       q    Type
REMARK                         _______ _______ _______ _____ _____    ______ ____
ROOT
ATOM      3  O   UNL     1      -0.227  -0.450  22.093  0.00  0.00    -0.266 OA
ATOM      4  O   UNL     1      -4.932   1.535  23.321  0.00  0.00    -0.252 OA
ATOM      7  N   UNL     1      -1.383  -0.884  24.084  0.00  0.00    -0.310 N 
ATOM      8  N   UNL     1      -4.288   0.076  24.997  0.00  0.00    -0.284 N 
ATOM      9  N   UNL     1      -4.074   2.408  25.291  0.00  0.00    -0.269 N 
ATOM     11  C   UNL     1      -3.590  -2.177  24.164  0.00  0.00    +0.027 C 
ATOM     12  C   UNL     1      -2.621  -1.293  26.242  0.00  0.00    +0.054 C 
ATOM     13  C   UNL     1      -3.159  -2.556  25.574  0.00  0.00    +0.018 C 
ATOM     14  C   UNL     1      -2.358  -1.719  23.372  0.00  0.00    +0.130 C 
ATOM     15  C   UNL     1      -4.683  -1.096  24.209  0.00  0.00    +0.114 C 
ATOM     16  C   UNL     1      -3.735  -0.230  26.329  0.00  0.00    +0.119 C 
ATOM     17  C   UNL     1      -1.437  -0.730  25.476  0.00  0.00    +0.027 A 
ATOM     18  C   UNL     1      -0.468  -0.059  26.124  0.00  0.00    +0.024 A 
ATOM     19  C   UNL     1      -0.337  -0.336  23.313  0.00  0.00    +0.274 A 
ATOM     20  C   UNL     1      -4.460   1.366  24.448  0.00  0.00    +0.306 C 
ATOM     21  C   UNL     1       0.689   0.414  24.082  0.00  0.00    +0.112 A 
ATOM     22  C   UNL     1       0.630   0.534  25.409  0.00  0.00    +0.031 A 
ATOM     32  H   UNL     1      -4.121   2.257  26.293  0.00  0.00    +0.156 HD
ENDROOT
BRANCH   9  23
ATOM      2  F   UNL     1      -2.449   7.488  23.794  0.00  0.00    -0.205 F 
ATOM     23  C   UNL     1      -3.660   3.707  24.909  0.00  0.00    +0.035 A 
ATOM     26  C   UNL     1      -2.544   4.282  25.512  0.00  0.00    +0.026 A 
ATOM     27  C   UNL     1      -4.369   4.401  23.932  0.00  0.00    +0.026 A 
ATOM     29  C   UNL     1      -2.135   5.562  25.135  0.00  0.00    +0.040 A 
ATOM     30  C   UNL     1      -3.959   5.680  23.555  0.00  0.00    +0.040 A 
ATOM     31  C   UNL     1      -2.842   6.260  24.157  0.00  0.00    +0.124 A 
ENDBRANCH   9  23
BRANCH  21  10
ATOM     10  N   UNL     1       1.773   1.013  23.419  0.00  0.00    -0.215 N 
ATOM     33  H   UNL     1       1.531   1.845  22.864  0.00  0.00    +0.173 HD
BRANCH  10   1
ATOM      1  S   UNL     1       2.840  -0.064  22.637  0.00  0.00    +0.043 S 
ATOM      5  O   UNL     1       3.043  -1.238  23.464  0.00  0.00    -0.155 OA
ATOM      6  O   UNL     1       2.463  -0.184  21.242  0.00  0.00    -0.155 OA
BRANCH   1  24
ATOM     24  C   UNL     1       4.334   0.894  22.708  0.00  0.00    +0.188 C 
BRANCH  24  25
ATOM     25  C   UNL     1       5.202   0.477  23.883  0.00  0.00    +0.021 C 
ATOM     28  C   UNL     1       6.375  -0.379  23.433  0.00  0.00    +0.005 C 
ENDBRANCH  24  25
ENDBRANCH   1  24
ENDBRANCH  10   1
ENDBRANCH  21  10
TORSDOF 5
ENDMDL
