MODEL 1
REMARK VINA RESULT:      16.3      0.000      0.000
REMARK  Name = 7664150
REMARK  5 active torsions:
REMARK  status: ('A' for Active; 'I' for Inactive)
REMARK    1  A    between atoms: N_8  and  C_22
REMARK    2  A    between atoms: N_9  and  C_20
REMARK    3  A    between atoms: C_23  and  C_26
REMARK    4  A    between atoms: C_29  and  C_32
REMARK    5  A    between atoms: C_32  and  C_36
REMARK                            x       y       z     vdW  Elec       q    Type
REMARK                         _______ _______ _______ _____ _____    ______ ____
ROOT
ATOM      2  O   UNL     1      -0.018   2.543  26.357  0.00  0.00    -0.266 OA
ATOM      3  O   UNL     1      -4.662   0.166  26.659  0.00  0.00    -0.252 OA
ATOM      6  N   UNL     1      -4.944   2.157  25.513  0.00  0.00    -0.284 N 
ATOM      7  N   UNL     1      -1.979   3.327  25.355  0.00  0.00    -0.310 N 
ATOM      8  N   UNL     1      -4.793   0.113  24.345  0.00  0.00    -0.269 N 
ATOM     10  C   UNL     1      -3.995   4.140  26.705  0.00  0.00    +0.027 C 
ATOM     11  C   UNL     1      -4.097   4.130  24.250  0.00  0.00    +0.054 C 
ATOM     12  C   UNL     1      -4.291   5.004  25.486  0.00  0.00    +0.018 C 
ATOM     13  C   UNL     1      -4.955   2.939  26.754  0.00  0.00    +0.114 C 
ATOM     14  C   UNL     1      -2.526   3.704  26.664  0.00  0.00    +0.130 C 
ATOM     15  C   UNL     1      -5.094   2.951  24.281  0.00  0.00    +0.119 C 
ATOM     16  C   UNL     1      -2.679   3.594  24.174  0.00  0.00    +0.027 A 
ATOM     17  C   UNL     1      -2.110   3.348  22.982  0.00  0.00    +0.024 A 
ATOM     18  C   UNL     1      -0.680   2.780  25.345  0.00  0.00    +0.273 A 
ATOM     19  C   UNL     1      -4.783   0.756  25.582  0.00  0.00    +0.306 C 
ATOM     20  C   UNL     1      -0.093   2.496  23.997  0.00  0.00    +0.099 A 
ATOM     21  C   UNL     1      -0.792   2.787  22.894  0.00  0.00    +0.030 A 
ATOM     37  H   UNL     1      -5.309   0.540  23.585  0.00  0.00    +0.156 HD
ENDROOT
BRANCH   8  22
ATOM     22  C   UNL     1      -4.193  -1.129  24.021  0.00  0.00    +0.035 A 
ATOM     24  C   UNL     1      -4.962  -2.145  23.460  0.00  0.00    +0.024 A 
ATOM     25  C   UNL     1      -2.836  -1.328  24.267  0.00  0.00    +0.024 A 
ATOM     27  C   UNL     1      -4.371  -3.368  23.141  0.00  0.00    +0.013 A 
ATOM     28  C   UNL     1      -2.246  -2.550  23.948  0.00  0.00    +0.013 A 
ATOM     29  C   UNL     1      -3.013  -3.570  23.385  0.00  0.00    +0.017 A 
BRANCH  29  32
ATOM      5  O   UNL     1      -3.058  -5.902  23.030  0.00  0.00    -0.292 OA
ATOM     32  C   UNL     1      -2.396  -4.844  23.052  0.00  0.00    +0.160 C 
ATOM     36  C   UNL     1      -0.910  -4.914  22.719  0.00  0.00    +0.091 C 
ENDBRANCH  29  32
ENDBRANCH   8  22
BRANCH  20   9
ATOM      4  O   UNL     1       0.607  -0.005  22.813  0.00  0.00    -0.270 OA
ATOM      9  N   UNL     1       1.156   1.952  23.944  0.00  0.00    -0.277 N 
ATOM     23  C   UNL     1       1.433   0.727  23.352  0.00  0.00    +0.248 C 
ATOM     38  H   UNL     1       1.858   2.429  24.499  0.00  0.00    +0.155 HD
BRANCH  23  26
ATOM      1  F   UNL     1       6.792  -0.838  23.431  0.00  0.00    -0.205 F 
ATOM     26  C   UNL     1       2.859   0.310  23.372  0.00  0.00    +0.037 A 
ATOM     30  C   UNL     1       3.828   1.237  23.051  0.00  0.00    +0.016 A 
ATOM     31  C   UNL     1       3.169  -0.990  23.712  0.00  0.00    +0.016 A 
ATOM     33  C   UNL     1       5.168   0.847  23.070  0.00  0.00    +0.039 A 
ATOM     34  C   UNL     1       4.507  -1.382  23.733  0.00  0.00    +0.039 A 
ATOM     35  C   UNL     1       5.507  -0.462  23.412  0.00  0.00    +0.123 A 
ENDBRANCH  23  26
ENDBRANCH  20   9
TORSDOF 4
ENDMDL
