MODEL 1
REMARK VINA RESULT:      -3.6      0.000      0.000
REMARK  Name = 40777477
REMARK  7 active torsions:
REMARK  status: ('A' for Active; 'I' for Inactive)
REMARK    1  A    between atoms: N_4  and  C_18
REMARK    2  A    between atoms: C_7  and  C_13
REMARK    3  A    between atoms: C_8  and  C_12
REMARK    4  A    between atoms: C_12  and  C_14
REMARK    5  A    between atoms: C_13  and  C_15
REMARK    6  A    between atoms: C_17  and  C_20
REMARK    7  A    between atoms: C_18  and  C_19
REMARK                            x       y       z     vdW  Elec       q    Type
REMARK                         _______ _______ _______ _____ _____    ______ ____
ROOT
ATOM      3  N   UNL     1      -0.613   5.348  24.611  0.00  0.00    -0.316 NA
ATOM      7  C   UNL     1      -2.685   3.406  25.410  0.00  0.00    +0.004 C 
ATOM      8  C   UNL     1      -1.433   3.005  24.592  0.00  0.00    +0.012 C 
ATOM      9  C   UNL     1      -2.375   4.681  26.208  0.00  0.00    +0.019 C 
ATOM     10  C   UNL     1      -0.891   4.185  23.769  0.00  0.00    +0.085 C 
ATOM     11  C   UNL     1      -1.803   5.795  25.332  0.00  0.00    +0.081 C 
ATOM     30  H   UNL     1      -0.264   6.111  24.030  0.00  0.00    +0.122 HD
ENDROOT
BRANCH   8  12
ATOM     12  C   UNL     1      -1.666   1.787  23.697  0.00  0.00    +0.064 C 
BRANCH  12  14
ATOM      2  O   UNL     1       0.932  -0.461  22.620  0.00  0.00    -0.353 OA
ATOM      5  N   UNL     1      -0.391  -0.038  22.656  0.00  0.00    -0.083 NA
ATOM     14  C   UNL     1      -0.385   1.050  23.431  0.00  0.00    +0.085 A 
ATOM     16  C   UNL     1       0.901   1.360  23.906  0.00  0.00    +0.077 A 
ATOM     17  C   UNL     1       1.692   0.379  23.368  0.00  0.00    +0.186 A 
BRANCH  17  20
ATOM      6  N   UNL     1       3.911   1.108  23.159  0.00  0.00    -0.252 NA
ATOM     20  C   UNL     1       3.091   0.067  23.425  0.00  0.00    +0.109 A 
ATOM     23  C   UNL     1       3.532  -1.210  23.732  0.00  0.00    +0.031 A 
ATOM     26  C   UNL     1       4.903  -1.433  23.770  0.00  0.00    +0.004 A 
ATOM     28  C   UNL     1       5.239   0.853  23.205  0.00  0.00    +0.111 A 
ATOM     29  C   UNL     1       5.779  -0.387  23.502  0.00  0.00    +0.020 A 
ENDBRANCH  17  20
ENDBRANCH  12  14
ENDBRANCH   8  12
BRANCH   7  13
ATOM     13  C   UNL     1      -3.950   3.585  24.563  0.00  0.00    +0.099 C 
BRANCH  13  15
ATOM      1  O   UNL     1      -6.120   2.518  24.641  0.00  0.00    -0.276 OA
ATOM      4  N   UNL     1      -4.203   1.225  24.881  0.00  0.00    -0.311 N 
ATOM     15  C   UNL     1      -4.898   2.412  24.693  0.00  0.00    +0.214 C 
ATOM     31  H   UNL     1      -3.187   1.241  24.893  0.00  0.00    +0.149 HD
BRANCH   4  18
ATOM     18  C   UNL     1      -4.856  -0.055  25.037  0.00  0.00    +0.139 C 
BRANCH  18  19
ATOM     19  C   UNL     1      -3.919  -1.198  24.778  0.00  0.00    -0.030 A 
ATOM     21  C   UNL     1      -2.655  -1.211  25.366  0.00  0.00    +0.005 A 
ATOM     22  C   UNL     1      -4.313  -2.250  23.949  0.00  0.00    +0.005 A 
ATOM     24  C   UNL     1      -1.784  -2.274  25.125  0.00  0.00    +0.000 A 
ATOM     25  C   UNL     1      -3.443  -3.312  23.708  0.00  0.00    +0.000 A 
ATOM     27  C   UNL     1      -2.179  -3.325  24.296  0.00  0.00    +0.000 A 
ENDBRANCH  18  19
ENDBRANCH   4  18
ENDBRANCH  13  15
ENDBRANCH   7  13
TORSDOF 7
ENDMDL
MODEL 2
REMARK VINA RESULT:      -2.3      1.409      4.696
REMARK  Name = 40777477
REMARK  7 active torsions:
REMARK  status: ('A' for Active; 'I' for Inactive)
REMARK    1  A    between atoms: N_4  and  C_18
REMARK    2  A    between atoms: C_7  and  C_13
REMARK    3  A    between atoms: C_8  and  C_12
REMARK    4  A    between atoms: C_12  and  C_14
REMARK    5  A    between atoms: C_13  and  C_15
REMARK    6  A    between atoms: C_17  and  C_20
REMARK    7  A    between atoms: C_18  and  C_19
REMARK                            x       y       z     vdW  Elec       q    Type
REMARK                         _______ _______ _______ _____ _____    ______ ____
ROOT
ATOM      3  N   UNL     1      -2.117  -2.854  24.912  0.00  0.00    -0.316 NA
ATOM      7  C   UNL     1      -3.947  -0.868  23.723  0.00  0.00    +0.004 C 
ATOM      8  C   UNL     1      -2.409  -0.695  23.723  0.00  0.00    +0.012 C 
ATOM      9  C   UNL     1      -4.283  -2.364  23.829  0.00  0.00    +0.019 C 
ATOM     10  C   UNL     1      -1.753  -1.437  24.898  0.00  0.00    +0.085 C 
ATOM     11  C   UNL     1      -3.565  -3.043  24.995  0.00  0.00    +0.081 C 
ATOM     30  H   UNL     1      -1.672  -3.309  25.709  0.00  0.00    +0.122 HD
ENDROOT
BRANCH   8  12
ATOM     12  C   UNL     1      -1.971   0.770  23.700  0.00  0.00    +0.064 C 
BRANCH  12  14
ATOM      2  O   UNL     1       1.464   1.851  23.734  0.00  0.00    -0.353 OA
ATOM      5  N   UNL     1       0.097   2.094  23.807  0.00  0.00    -0.083 NA
ATOM     14  C   UNL     1      -0.475   0.894  23.670  0.00  0.00    +0.085 A 
ATOM     16  C   UNL     1       0.471  -0.133  23.511  0.00  0.00    +0.077 A 
ATOM     17  C   UNL     1       1.674   0.521  23.558  0.00  0.00    +0.186 A 
BRANCH  17  20
ATOM      6  N   UNL     1       3.896   1.091  23.071  0.00  0.00    -0.252 NA
ATOM     20  C   UNL     1       3.046   0.116  23.465  0.00  0.00    +0.109 A 
ATOM     23  C   UNL     1       3.437  -1.180  23.761  0.00  0.00    +0.031 A 
ATOM     26  C   UNL     1       4.786  -1.495  23.648  0.00  0.00    +0.004 A 
ATOM     28  C   UNL     1       5.200   0.747  22.972  0.00  0.00    +0.111 A 
ATOM     29  C   UNL     1       5.690  -0.519  23.246  0.00  0.00    +0.020 A 
ENDBRANCH  17  20
ENDBRANCH  12  14
ENDBRANCH   8  12
BRANCH   7  13
ATOM     13  C   UNL     1      -4.664  -0.068  24.817  0.00  0.00    +0.099 C 
BRANCH  13  15
ATOM      1  O   UNL     1      -4.510   1.937  23.472  0.00  0.00    -0.276 OA
ATOM      4  N   UNL     1      -4.572   2.119  25.788  0.00  0.00    -0.311 N 
ATOM     15  C   UNL     1      -4.574   1.425  24.587  0.00  0.00    +0.214 C 
ATOM     31  H   UNL     1      -4.646   1.602  26.660  0.00  0.00    +0.149 HD
BRANCH   4  18
ATOM     18  C   UNL     1      -4.493   3.559  25.867  0.00  0.00    +0.139 C 
BRANCH  18  19
ATOM     19  C   UNL     1      -3.106   4.062  25.590  0.00  0.00    -0.030 A 
ATOM     21  C   UNL     1      -2.003   3.393  26.118  0.00  0.00    +0.005 A 
ATOM     22  C   UNL     1      -2.920   5.200  24.802  0.00  0.00    +0.005 A 
ATOM     24  C   UNL     1      -0.714   3.860  25.861  0.00  0.00    +0.000 A 
ATOM     25  C   UNL     1      -1.632   5.667  24.545  0.00  0.00    +0.000 A 
ATOM     27  C   UNL     1      -0.529   4.997  25.073  0.00  0.00    +0.000 A 
ENDBRANCH  18  19
ENDBRANCH   4  18
ENDBRANCH  13  15
ENDBRANCH   7  13
TORSDOF 7
ENDMDL
MODEL 3
REMARK VINA RESULT:      -0.1      2.026      6.410
REMARK  Name = 40777477
REMARK  7 active torsions:
REMARK  status: ('A' for Active; 'I' for Inactive)
REMARK    1  A    between atoms: N_4  and  C_18
REMARK    2  A    between atoms: C_7  and  C_13
REMARK    3  A    between atoms: C_8  and  C_12
REMARK    4  A    between atoms: C_12  and  C_14
REMARK    5  A    between atoms: C_13  and  C_15
REMARK    6  A    between atoms: C_17  and  C_20
REMARK    7  A    between atoms: C_18  and  C_19
REMARK                            x       y       z     vdW  Elec       q    Type
REMARK                         _______ _______ _______ _____ _____    ______ ____
ROOT
ATOM      3  N   UNL     1       3.702   1.107  22.045  0.00  0.00    -0.316 NA
ATOM      7  C   UNL     1       1.053   0.108  22.877  0.00  0.00    +0.004 C 
ATOM      8  C   UNL     1       1.555   1.532  23.216  0.00  0.00    +0.012 C 
ATOM      9  C   UNL     1       1.788  -0.397  21.625  0.00  0.00    +0.019 C 
ATOM     10  C   UNL     1       3.089   1.594  23.281  0.00  0.00    +0.085 C 
ATOM     11  C   UNL     1       3.306  -0.268  21.747  0.00  0.00    +0.081 C 
ATOM     30  H   UNL     1       4.717   1.155  22.129  0.00  0.00    +0.122 HD
ENDROOT
BRANCH   8  12
ATOM     12  C   UNL     1       0.939   2.095  24.498  0.00  0.00    +0.064 C 
BRANCH  12  14
ATOM      2  O   UNL     1      -2.465   2.434  23.374  0.00  0.00    -0.353 OA
ATOM      5  N   UNL     1      -1.112   2.210  23.149  0.00  0.00    -0.083 NA
ATOM     14  C   UNL     1      -0.543   2.289  24.355  0.00  0.00    +0.085 A 
ATOM     16  C   UNL     1      -1.477   2.558  25.370  0.00  0.00    +0.077 A 
ATOM     17  C   UNL     1      -2.670   2.640  24.701  0.00  0.00    +0.186 A 
BRANCH  17  20
ATOM      6  N   UNL     1      -4.356   4.194  25.194  0.00  0.00    -0.252 NA
ATOM     20  C   UNL     1      -4.029   2.886  25.088  0.00  0.00    +0.109 A 
ATOM     23  C   UNL     1      -4.910   1.844  25.327  0.00  0.00    +0.031 A 
ATOM     26  C   UNL     1      -6.211   2.164  25.697  0.00  0.00    +0.004 A 
ATOM     28  C   UNL     1      -5.630   4.466  25.556  0.00  0.00    +0.111 A 
ATOM     29  C   UNL     1      -6.585   3.498  25.817  0.00  0.00    +0.020 A 
ENDBRANCH  17  20
ENDBRANCH  12  14
ENDBRANCH   8  12
BRANCH   7  13
ATOM     13  C   UNL     1       1.189  -0.892  24.031  0.00  0.00    +0.099 C 
BRANCH  13  15
ATOM      1  O   UNL     1      -0.772  -2.301  23.891  0.00  0.00    -0.276 OA
ATOM      4  N   UNL     1      -0.573  -0.794  25.649  0.00  0.00    -0.311 N 
ATOM     15  C   UNL     1      -0.151  -1.425  24.488  0.00  0.00    +0.214 C 
ATOM     31  H   UNL     1       0.023  -0.091  26.077  0.00  0.00    +0.149 HD
BRANCH   4  18
ATOM     18  C   UNL     1      -1.821  -1.105  26.308  0.00  0.00    +0.139 C 
BRANCH  18  19
ATOM     19  C   UNL     1      -2.867  -1.573  25.338  0.00  0.00    -0.030 A 
ATOM     21  C   UNL     1      -3.521  -0.651  24.521  0.00  0.00    +0.005 A 
ATOM     22  C   UNL     1      -3.185  -2.929  25.254  0.00  0.00    +0.005 A 
ATOM     24  C   UNL     1      -4.494  -1.085  23.619  0.00  0.00    +0.000 A 
ATOM     25  C   UNL     1      -4.156  -3.363  24.353  0.00  0.00    +0.000 A 
ATOM     27  C   UNL     1      -4.811  -2.442  23.535  0.00  0.00    +0.000 A 
ENDBRANCH  18  19
ENDBRANCH   4  18
ENDBRANCH  13  15
ENDBRANCH   7  13
TORSDOF 7
ENDMDL
