MODEL 1
REMARK VINA RESULT:       8.0      0.000      0.000
REMARK  Name = 40776839
REMARK  12 active torsions:
REMARK  status: ('A' for Active; 'I' for Inactive)
REMARK    1  A    between atoms: S_1  and  N_6
REMARK    2  A    between atoms: S_1  and  C_23
REMARK    3  A    between atoms: N_6  and  C_18
REMARK    4  A    between atoms: N_9  and  C_35
REMARK    5  A    between atoms: N_9  and  C_36
REMARK    6  A    between atoms: N_9  and  C_37
REMARK    7  A    between atoms: N_10  and  C_34
REMARK    8  A    between atoms: C_12  and  C_19
REMARK    9  A    between atoms: C_13  and  C_18
REMARK   10  A    between atoms: C_21  and  C_24
REMARK   11  A    between atoms: C_22  and  C_25
REMARK   12  A    between atoms: C_38  and  C_39
REMARK                            x       y       z     vdW  Elec       q    Type
REMARK                         _______ _______ _______ _____ _____    ______ ____
ROOT
ATOM      5  N   UNL     1      -3.626  -1.694  25.939  0.00  0.00    -0.297 NA
ATOM     11  C   UNL     1      -2.715  -2.055  23.525  0.00  0.00    +0.002 C 
ATOM     12  C   UNL     1      -1.572  -1.605  24.477  0.00  0.00    +0.055 C 
ATOM     13  C   UNL     1      -4.482  -0.975  24.959  0.00  0.00    +0.072 C 
ATOM     14  C   UNL     1      -3.844  -1.004  23.553  0.00  0.00    +0.024 C 
ATOM     15  C   UNL     1      -3.294  -3.360  24.113  0.00  0.00    +0.019 C 
ATOM     16  C   UNL     1      -2.224  -1.218  25.834  0.00  0.00    +0.094 C 
ATOM     17  C   UNL     1      -3.652  -3.135  25.592  0.00  0.00    +0.085 C 
ENDROOT
BRANCH  12  19
ATOM      7  N   UNL     1      -1.129   0.643  23.621  0.00  0.00    -0.237 NA
ATOM      8  N   UNL     1       1.096   1.395  23.080  0.00  0.00    -0.232 NA
ATOM     19  C   UNL     1      -0.599  -0.545  23.981  0.00  0.00    +0.050 A 
ATOM     20  C   UNL     1       0.749  -0.834  23.919  0.00  0.00    +0.052 A 
ATOM     21  C   UNL     1       1.557   0.184  23.457  0.00  0.00    +0.075 A 
ATOM     22  C   UNL     1      -0.237   1.554  23.186  0.00  0.00    +0.127 A 
ATOM     25  C   UNL     1      -0.785   2.879  22.778  0.00  0.00    +0.088 C 
BRANCH  21  24
ATOM     24  C   UNL     1       2.985   0.010  23.343  0.00  0.00    +0.001 A 
ATOM     28  C   UNL     1       3.582  -1.167  23.796  0.00  0.00    +0.012 A 
ATOM     29  C   UNL     1       3.769   1.017  22.780  0.00  0.00    +0.012 A 
ATOM     32  C   UNL     1       4.963  -1.336  23.687  0.00  0.00    +0.024 A 
ATOM     33  C   UNL     1       5.149   0.848  22.671  0.00  0.00    +0.024 A 
ATOM     35  C   UNL     1       5.746  -0.329  23.124  0.00  0.00    +0.029 A 
BRANCH  35   9
ATOM      9  N   UNL     1       7.141  -0.498  23.013  0.00  0.00    -0.336 N 
ATOM     36  C   UNL     1       8.047   0.386  23.721  0.00  0.00    +0.129 C 
ATOM     37  C   UNL     1       7.690  -1.563  22.197  0.00  0.00    +0.129 C 
ENDBRANCH  35   9
ENDBRANCH  21  24
ENDBRANCH  12  19
BRANCH  13  18
ATOM     18  C   UNL     1      -4.809   0.452  25.407  0.00  0.00    +0.124 C 
BRANCH  18   6
ATOM      6  N   UNL     1      -4.431   1.401  24.405  0.00  0.00    -0.188 NA
ATOM     40  H   UNL     1      -3.911   1.044  23.594  0.00  0.00    +0.148 HD
BRANCH   6   1
ATOM      1  S   UNL     1      -4.164   3.059  24.794  0.00  0.00    +0.058 S 
ATOM      2  O   UNL     1      -5.100   3.446  25.832  0.00  0.00    -0.153 OA
ATOM      3  O   UNL     1      -4.051   3.848  23.582  0.00  0.00    -0.153 OA
BRANCH   1  23
ATOM     23  C   UNL     1      -2.551   2.986  25.515  0.00  0.00    +0.105 A 
ATOM     26  C   UNL     1      -1.708   4.096  25.453  0.00  0.00    +0.030 A 
ATOM     27  C   UNL     1      -2.121   1.818  26.146  0.00  0.00    +0.030 A 
ATOM     30  C   UNL     1      -0.437   4.039  26.022  0.00  0.00    +0.025 A 
ATOM     31  C   UNL     1      -0.849   1.761  26.715  0.00  0.00    +0.025 A 
ATOM     34  C   UNL     1      -0.006   2.871  26.653  0.00  0.00    +0.033 A 
BRANCH  34  10
ATOM      4  O   UNL     1       0.836   2.634  29.534  0.00  0.00    -0.276 OA
ATOM     10  N   UNL     1       1.266   2.814  27.223  0.00  0.00    -0.286 N 
ATOM     38  C   UNL     1       1.602   2.704  28.579  0.00  0.00    +0.214 C 
ATOM     39  C   UNL     1       3.097   2.673  28.783  0.00  0.00    +0.109 C 
ATOM     41  H   UNL     1       2.039   2.857  26.563  0.00  0.00    +0.155 HD
ENDBRANCH  34  10
ENDBRANCH   1  23
ENDBRANCH   6   1
ENDBRANCH  18   6
ENDBRANCH  13  18
TORSDOF 8
ENDMDL
MODEL 2
REMARK VINA RESULT:       8.3      1.946      3.797
REMARK  Name = 40776839
REMARK  12 active torsions:
REMARK  status: ('A' for Active; 'I' for Inactive)
REMARK    1  A    between atoms: S_1  and  N_6
REMARK    2  A    between atoms: S_1  and  C_23
REMARK    3  A    between atoms: N_6  and  C_18
REMARK    4  A    between atoms: N_9  and  C_35
REMARK    5  A    between atoms: N_9  and  C_36
REMARK    6  A    between atoms: N_9  and  C_37
REMARK    7  A    between atoms: N_10  and  C_34
REMARK    8  A    between atoms: C_12  and  C_19
REMARK    9  A    between atoms: C_13  and  C_18
REMARK   10  A    between atoms: C_21  and  C_24
REMARK   11  A    between atoms: C_22  and  C_25
REMARK   12  A    between atoms: C_38  and  C_39
REMARK                            x       y       z     vdW  Elec       q    Type
REMARK                         _______ _______ _______ _____ _____    ______ ____
ROOT
ATOM      5  N   UNL     1      -4.672   3.172  25.635  0.00  0.00    -0.297 NA
ATOM     11  C   UNL     1      -5.810   0.879  25.152  0.00  0.00    +0.002 C 
ATOM     12  C   UNL     1      -4.397   0.668  25.763  0.00  0.00    +0.055 C 
ATOM     13  C   UNL     1      -5.198   3.148  24.244  0.00  0.00    +0.072 C 
ATOM     14  C   UNL     1      -5.690   1.732  23.872  0.00  0.00    +0.024 C 
ATOM     15  C   UNL     1      -6.617   1.707  26.176  0.00  0.00    +0.019 C 
ATOM     16  C   UNL     1      -3.709   2.060  25.833  0.00  0.00    +0.094 C 
ATOM     17  C   UNL     1      -5.814   2.964  26.557  0.00  0.00    +0.085 C 
ENDROOT
BRANCH  12  19
ATOM      7  N   UNL     1      -4.061  -1.589  24.880  0.00  0.00    -0.237 NA
ATOM      8  N   UNL     1      -1.931  -2.330  24.030  0.00  0.00    -0.232 NA
ATOM     19  C   UNL     1      -3.497  -0.391  25.141  0.00  0.00    +0.050 A 
ATOM     20  C   UNL     1      -2.175  -0.092  24.879  0.00  0.00    +0.052 A 
ATOM     21  C   UNL     1      -1.433  -1.110  24.317  0.00  0.00    +0.075 A 
ATOM     22  C   UNL     1      -3.233  -2.499  24.332  0.00  0.00    +0.127 A 
ATOM     25  C   UNL     1      -3.819  -3.836  24.031  0.00  0.00    +0.088 C 
BRANCH  21  24
ATOM     24  C   UNL     1      -0.038  -0.926  23.996  0.00  0.00    +0.001 A 
ATOM     28  C   UNL     1       0.336  -0.007  23.015  0.00  0.00    +0.012 A 
ATOM     29  C   UNL     1       0.936  -1.666  24.666  0.00  0.00    +0.012 A 
ATOM     32  C   UNL     1       1.684   0.171  22.703  0.00  0.00    +0.024 A 
ATOM     33  C   UNL     1       2.284  -1.488  24.354  0.00  0.00    +0.024 A 
ATOM     35  C   UNL     1       2.658  -0.570  23.373  0.00  0.00    +0.029 A 
BRANCH  35   9
ATOM      9  N   UNL     1       4.021  -0.391  23.059  0.00  0.00    -0.336 N 
ATOM     36  C   UNL     1       4.426   0.617  22.098  0.00  0.00    +0.129 C 
ATOM     37  C   UNL     1       5.036  -1.206  23.697  0.00  0.00    +0.129 C 
ENDBRANCH  35   9
ENDBRANCH  21  24
ENDBRANCH  12  19
BRANCH  13  18
ATOM     18  C   UNL     1      -4.187   3.686  23.229  0.00  0.00    +0.124 C 
BRANCH  18   6
ATOM      6  N   UNL     1      -3.044   4.238  23.891  0.00  0.00    -0.188 NA
ATOM     40  H   UNL     1      -3.138   5.185  24.277  0.00  0.00    +0.148 HD
BRANCH   6   1
ATOM      1  S   UNL     1      -1.443   3.759  23.467  0.00  0.00    +0.058 S 
ATOM      2  O   UNL     1      -0.710   4.933  23.033  0.00  0.00    -0.153 OA
ATOM      3  O   UNL     1      -1.477   2.571  22.637  0.00  0.00    -0.153 OA
BRANCH   1  23
ATOM     23  C   UNL     1      -0.804   3.270  25.041  0.00  0.00    +0.105 A 
ATOM     26  C   UNL     1      -1.417   3.716  26.213  0.00  0.00    +0.030 A 
ATOM     27  C   UNL     1       0.315   2.439  25.112  0.00  0.00    +0.030 A 
ATOM     30  C   UNL     1      -0.913   3.330  27.454  0.00  0.00    +0.025 A 
ATOM     31  C   UNL     1       0.820   2.053  26.354  0.00  0.00    +0.025 A 
ATOM     34  C   UNL     1       0.207   2.499  27.525  0.00  0.00    +0.033 A 
BRANCH  34  10
ATOM      4  O   UNL     1       2.841   3.119  28.844  0.00  0.00    -0.276 OA
ATOM     10  N   UNL     1       0.711   2.112  28.767  0.00  0.00    -0.286 N 
ATOM     38  C   UNL     1       1.952   2.431  29.334  0.00  0.00    +0.214 C 
ATOM     39  C   UNL     1       2.116   1.815  30.702  0.00  0.00    +0.109 C 
ATOM     41  H   UNL     1       0.092   1.527  29.324  0.00  0.00    +0.155 HD
ENDBRANCH  34  10
ENDBRANCH   1  23
ENDBRANCH   6   1
ENDBRANCH  18   6
ENDBRANCH  13  18
TORSDOF 8
ENDMDL
