MODEL 1
REMARK VINA RESULT:      -5.5      0.000      0.000
REMARK  Name = 40777896
REMARK  12 active torsions:
REMARK  status: ('A' for Active; 'I' for Inactive)
REMARK    1  A    between atoms: O_2  and  C_11
REMARK    2  A    between atoms: O_3  and  C_12
REMARK    3  A    between atoms: O_4  and  C_21
REMARK    4  A    between atoms: O_4  and  C_23
REMARK    5  A    between atoms: N_8  and  C_20
REMARK    6  A    between atoms: N_9  and  C_24
REMARK    7  A    between atoms: C_10  and  C_15
REMARK    8  A    between atoms: C_13  and  C_20
REMARK    9  A    between atoms: C_14  and  C_21
REMARK   10  A    between atoms: C_15  and  C_19
REMARK   11  A    between atoms: C_24  and  C_25
REMARK   12  A    between atoms: C_24  and  C_26
REMARK                            x       y       z     vdW  Elec       q    Type
REMARK                         _______ _______ _______ _____ _____    ______ ____
ROOT
ATOM      1  O   UNL     1      -2.103   0.098  25.791  0.00  0.00    -0.366 OA
ATOM     10  C   UNL     1      -2.687  -1.129  25.315  0.00  0.00    +0.159 C 
ATOM     11  C   UNL     1      -1.715  -1.672  24.281  0.00  0.00    +0.175 C 
ATOM     12  C   UNL     1      -0.383  -1.266  24.874  0.00  0.00    +0.176 C 
ATOM     13  C   UNL     1      -0.698   0.110  25.450  0.00  0.00    +0.167 C 
ENDROOT
BRANCH  11   2
ATOM      2  O   UNL     1      -1.849  -3.067  24.112  0.00  0.00    -0.387 OA
ATOM     27  H   UNL     1      -2.786  -3.288  24.249  0.00  0.00    +0.210 HD
ENDBRANCH  11   2
BRANCH  12   3
ATOM      3  O   UNL     1      -0.037  -2.129  25.956  0.00  0.00    -0.387 OA
ATOM     28  H   UNL     1      -0.828  -2.231  26.511  0.00  0.00    +0.210 HD
ENDBRANCH  12   3
BRANCH  10  15
ATOM     15  C   UNL     1      -4.071  -0.853  24.755  0.00  0.00    +0.130 C 
BRANCH  15  19
ATOM      5  O   UNL     1      -5.148   0.840  26.037  0.00  0.00    -0.276 OA
ATOM      7  N   UNL     1      -4.016   1.515  24.134  0.00  0.00    -0.296 N 
ATOM     14  C   UNL     1      -4.390   2.928  24.211  0.00  0.00    +0.102 C 
ATOM     16  C   UNL     1      -4.051   3.470  22.820  0.00  0.00    +0.026 C 
ATOM     17  C   UNL     1      -3.211   1.243  22.946  0.00  0.00    +0.108 C 
ATOM     18  C   UNL     1      -2.865   2.616  22.387  0.00  0.00    +0.021 C 
ATOM     19  C   UNL     1      -4.469   0.573  25.044  0.00  0.00    +0.218 C 
BRANCH  14  21
ATOM     21  C   UNL     1      -3.619   3.651  25.314  0.00  0.00    +0.181 C 
BRANCH  21   4
ATOM      4  O   UNL     1      -2.795   4.633  24.714  0.00  0.00    -0.381 OA
ATOM     23  C   UNL     1      -1.495   4.657  25.293  0.00  0.00    +0.194 C 
ENDBRANCH  21   4
ENDBRANCH  14  21
ENDBRANCH  15  19
ENDBRANCH  10  15
BRANCH  13  20
ATOM     20  C   UNL     1      -0.471   1.240  24.455  0.00  0.00    +0.140 C 
BRANCH  20   8
ATOM      6  O   UNL     1       1.382   0.035  22.600  0.00  0.00    -0.253 OA
ATOM      8  N   UNL     1       0.924   1.535  24.314  0.00  0.00    -0.297 N 
ATOM      9  N   UNL     1       3.064   1.381  23.462  0.00  0.00    -0.297 N 
ATOM     22  C   UNL     1       1.758   0.904  23.387  0.00  0.00    +0.300 C 
ATOM     29  H   UNL     1       1.326   2.249  24.914  0.00  0.00    +0.150 HD
ATOM     30  H   UNL     1       3.260   2.152  24.092  0.00  0.00    +0.150 HD
BRANCH   9  24
ATOM     24  C   UNL     1       4.126   0.893  22.613  0.00  0.00    +0.068 C 
ATOM     25  C   UNL     1       3.548   0.136  21.425  0.00  0.00    +0.027 C 
ATOM     26  C   UNL     1       5.089   0.020  23.410  0.00  0.00    +0.027 C 
ENDBRANCH   9  24
ENDBRANCH  20   8
ENDBRANCH  13  20
TORSDOF 9
ENDMDL
MODEL 2
REMARK VINA RESULT:      -4.9      1.436      4.395
REMARK  Name = 40777896
REMARK  12 active torsions:
REMARK  status: ('A' for Active; 'I' for Inactive)
REMARK    1  A    between atoms: O_2  and  C_11
REMARK    2  A    between atoms: O_3  and  C_12
REMARK    3  A    between atoms: O_4  and  C_21
REMARK    4  A    between atoms: O_4  and  C_23
REMARK    5  A    between atoms: N_8  and  C_20
REMARK    6  A    between atoms: N_9  and  C_24
REMARK    7  A    between atoms: C_10  and  C_15
REMARK    8  A    between atoms: C_13  and  C_20
REMARK    9  A    between atoms: C_14  and  C_21
REMARK   10  A    between atoms: C_15  and  C_19
REMARK   11  A    between atoms: C_24  and  C_25
REMARK   12  A    between atoms: C_24  and  C_26
REMARK                            x       y       z     vdW  Elec       q    Type
REMARK                         _______ _______ _______ _____ _____    ______ ____
ROOT
ATOM      1  O   UNL     1      -2.053   2.901  23.686  0.00  0.00    -0.366 OA
ATOM     10  C   UNL     1      -3.320   3.240  24.279  0.00  0.00    +0.159 C 
ATOM     11  C   UNL     1      -3.046   3.413  25.763  0.00  0.00    +0.175 C 
ATOM     12  C   UNL     1      -1.660   4.023  25.747  0.00  0.00    +0.176 C 
ATOM     13  C   UNL     1      -0.995   3.269  24.601  0.00  0.00    +0.167 C 
ENDROOT
BRANCH  11   2
ATOM      2  O   UNL     1      -4.011   4.233  26.387  0.00  0.00    -0.387 OA
ATOM     27  H   UNL     1      -4.875   3.804  26.273  0.00  0.00    +0.210 HD
ENDBRANCH  11   2
BRANCH  12   3
ATOM      3  O   UNL     1      -1.729   5.402  25.389  0.00  0.00    -0.387 OA
ATOM     28  H   UNL     1      -2.663   5.612  25.220  0.00  0.00    +0.210 HD
ENDBRANCH  12   3
BRANCH  10  15
ATOM     15  C   UNL     1      -4.334   2.152  23.975  0.00  0.00    +0.130 C 
BRANCH  15  19
ATOM      5  O   UNL     1      -3.152   0.906  22.326  0.00  0.00    -0.276 OA
ATOM      7  N   UNL     1      -3.569  -0.144  24.346  0.00  0.00    -0.296 N 
ATOM     14  C   UNL     1      -3.007  -1.444  23.975  0.00  0.00    +0.102 C 
ATOM     16  C   UNL     1      -3.539  -2.390  25.055  0.00  0.00    +0.026 C 
ATOM     17  C   UNL     1      -4.121  -0.170  25.698  0.00  0.00    +0.108 C 
ATOM     18  C   UNL     1      -3.655  -1.495  26.283  0.00  0.00    +0.021 C 
ATOM     19  C   UNL     1      -3.630   0.921  23.461  0.00  0.00    +0.218 C 
BRANCH  14  21
ATOM     21  C   UNL     1      -1.480  -1.406  23.944  0.00  0.00    +0.181 C 
BRANCH  21   4
ATOM      4  O   UNL     1      -0.990  -2.499  24.697  0.00  0.00    -0.381 OA
ATOM     23  C   UNL     1       0.090  -2.117  25.541  0.00  0.00    +0.194 C 
ENDBRANCH  21   4
ENDBRANCH  14  21
ENDBRANCH  15  19
ENDBRANCH  10  15
BRANCH  13  20
ATOM     20  C   UNL     1      -0.303   1.989  25.049  0.00  0.00    +0.140 C 
BRANCH  20   8
ATOM      6  O   UNL     1       0.908   0.481  22.909  0.00  0.00    -0.253 OA
ATOM      8  N   UNL     1       1.079   1.986  24.670  0.00  0.00    -0.297 N 
ATOM      9  N   UNL     1       2.961   1.410  23.464  0.00  0.00    -0.297 N 
ATOM     22  C   UNL     1       1.590   1.223  23.616  0.00  0.00    +0.300 C 
ATOM     29  H   UNL     1       1.719   2.579  25.189  0.00  0.00    +0.150 HD
ATOM     30  H   UNL     1       3.421   2.101  24.047  0.00  0.00    +0.150 HD
BRANCH   9  24
ATOM     24  C   UNL     1       3.735   0.736  22.447  0.00  0.00    +0.068 C 
ATOM     25  C   UNL     1       2.866  -0.263  21.696  0.00  0.00    +0.027 C 
ATOM     26  C   UNL     1       4.951   0.056  23.065  0.00  0.00    +0.027 C 
ENDBRANCH   9  24
ENDBRANCH  20   8
ENDBRANCH  13  20
TORSDOF 9
ENDMDL
MODEL 3
REMARK VINA RESULT:      -4.2      1.470      4.360
REMARK  Name = 40777896
REMARK  12 active torsions:
REMARK  status: ('A' for Active; 'I' for Inactive)
REMARK    1  A    between atoms: O_2  and  C_11
REMARK    2  A    between atoms: O_3  and  C_12
REMARK    3  A    between atoms: O_4  and  C_21
REMARK    4  A    between atoms: O_4  and  C_23
REMARK    5  A    between atoms: N_8  and  C_20
REMARK    6  A    between atoms: N_9  and  C_24
REMARK    7  A    between atoms: C_10  and  C_15
REMARK    8  A    between atoms: C_13  and  C_20
REMARK    9  A    between atoms: C_14  and  C_21
REMARK   10  A    between atoms: C_15  and  C_19
REMARK   11  A    between atoms: C_24  and  C_25
REMARK   12  A    between atoms: C_24  and  C_26
REMARK                            x       y       z     vdW  Elec       q    Type
REMARK                         _______ _______ _______ _____ _____    ______ ____
ROOT
ATOM      1  O   UNL     1      -1.736   2.806  23.719  0.00  0.00    -0.366 OA
ATOM     10  C   UNL     1      -3.138   3.004  23.975  0.00  0.00    +0.159 C 
ATOM     11  C   UNL     1      -3.245   3.316  25.458  0.00  0.00    +0.175 C 
ATOM     12  C   UNL     1      -1.978   4.112  25.692  0.00  0.00    +0.176 C 
ATOM     13  C   UNL     1      -0.976   3.381  24.805  0.00  0.00    +0.167 C 
ENDROOT
BRANCH  11   2
ATOM      2  O   UNL     1      -4.421   4.034  25.764  0.00  0.00    -0.387 OA
ATOM     27  H   UNL     1      -5.147   3.390  25.826  0.00  0.00    +0.210 HD
ENDBRANCH  11   2
BRANCH  12   3
ATOM      3  O   UNL     1      -2.127   5.439  25.190  0.00  0.00    -0.387 OA
ATOM     28  H   UNL     1      -2.079   5.390  24.221  0.00  0.00    +0.210 HD
ENDBRANCH  12   3
BRANCH  10  15
ATOM     15  C   UNL     1      -3.914   1.765  23.562  0.00  0.00    +0.130 C 
BRANCH  15  19
ATOM      5  O   UNL     1      -4.878   0.788  25.507  0.00  0.00    -0.276 OA
ATOM      7  N   UNL     1      -2.885  -0.112  24.751  0.00  0.00    -0.296 N 
ATOM     14  C   UNL     1      -2.712  -1.073  25.842  0.00  0.00    +0.102 C 
ATOM     16  C   UNL     1      -1.247  -1.500  25.722  0.00  0.00    +0.026 C 
ATOM     17  C   UNL     1      -1.762  -0.162  23.818  0.00  0.00    +0.108 C 
ATOM     18  C   UNL     1      -0.970  -1.395  24.226  0.00  0.00    +0.021 C 
ATOM     19  C   UNL     1      -3.948   0.776  24.700  0.00  0.00    +0.218 C 
BRANCH  14  21
ATOM     21  C   UNL     1      -3.669  -2.255  25.703  0.00  0.00    +0.181 C 
BRANCH  21   4
ATOM      4  O   UNL     1      -3.439  -2.872  24.450  0.00  0.00    -0.381 OA
ATOM     23  C   UNL     1      -4.511  -2.640  23.543  0.00  0.00    +0.194 C 
ENDBRANCH  21   4
ENDBRANCH  14  21
ENDBRANCH  15  19
ENDBRANCH  10  15
BRANCH  13  20
ATOM     20  C   UNL     1      -0.260   2.246  25.524  0.00  0.00    +0.140 C 
BRANCH  20   8
ATOM      6  O   UNL     1       0.549   0.909  23.099  0.00  0.00    -0.253 OA
ATOM      8  N   UNL     1       1.076   2.082  25.034  0.00  0.00    -0.297 N 
ATOM      9  N   UNL     1       2.759   1.405  23.605  0.00  0.00    -0.297 N 
ATOM     22  C   UNL     1       1.387   1.418  23.843  0.00  0.00    +0.300 C 
ATOM     29  H   UNL     1       1.838   2.479  25.575  0.00  0.00    +0.150 HD
ATOM     30  H   UNL     1       3.363   1.918  24.239  0.00  0.00    +0.150 HD
BRANCH   9  24
ATOM     24  C   UNL     1       3.346   0.781  22.442  0.00  0.00    +0.068 C 
ATOM     25  C   UNL     1       2.433  -0.316  21.913  0.00  0.00    +0.027 C 
ATOM     26  C   UNL     1       4.731   0.237  22.770  0.00  0.00    +0.027 C 
ENDBRANCH   9  24
ENDBRANCH  20   8
ENDBRANCH  13  20
TORSDOF 9
ENDMDL
MODEL 4
REMARK VINA RESULT:      -4.2      2.160      3.899
REMARK  Name = 40777896
REMARK  12 active torsions:
REMARK  status: ('A' for Active; 'I' for Inactive)
REMARK    1  A    between atoms: O_2  and  C_11
REMARK    2  A    between atoms: O_3  and  C_12
REMARK    3  A    between atoms: O_4  and  C_21
REMARK    4  A    between atoms: O_4  and  C_23
REMARK    5  A    between atoms: N_8  and  C_20
REMARK    6  A    between atoms: N_9  and  C_24
REMARK    7  A    between atoms: C_10  and  C_15
REMARK    8  A    between atoms: C_13  and  C_20
REMARK    9  A    between atoms: C_14  and  C_21
REMARK   10  A    between atoms: C_15  and  C_19
REMARK   11  A    between atoms: C_24  and  C_25
REMARK   12  A    between atoms: C_24  and  C_26
REMARK                            x       y       z     vdW  Elec       q    Type
REMARK                         _______ _______ _______ _____ _____    ______ ____
ROOT
ATOM      1  O   UNL     1      -0.280   3.190  23.680  0.00  0.00    -0.366 OA
ATOM     10  C   UNL     1      -1.235   3.646  24.656  0.00  0.00    +0.159 C 
ATOM     11  C   UNL     1      -1.336   2.531  25.683  0.00  0.00    +0.175 C 
ATOM     12  C   UNL     1       0.089   2.021  25.719  0.00  0.00    +0.176 C 
ATOM     13  C   UNL     1       0.495   2.112  24.252  0.00  0.00    +0.167 C 
ENDROOT
BRANCH  11   2
ATOM      2  O   UNL     1      -1.792   3.004  26.933  0.00  0.00    -0.387 OA
ATOM     27  H   UNL     1      -1.009   3.161  27.487  0.00  0.00    +0.210 HD
ENDBRANCH  11   2
BRANCH  12   3
ATOM      3  O   UNL     1       0.917   2.913  26.463  0.00  0.00    -0.387 OA
ATOM     28  H   UNL     1       0.337   3.582  26.864  0.00  0.00    +0.210 HD
ENDBRANCH  12   3
BRANCH  10  15
ATOM     15  C   UNL     1      -2.555   3.959  23.973  0.00  0.00    +0.130 C 
BRANCH  15  19
ATOM      5  O   UNL     1      -2.966   1.926  22.804  0.00  0.00    -0.276 OA
ATOM      7  N   UNL     1      -4.389   2.446  24.553  0.00  0.00    -0.296 N 
ATOM     14  C   UNL     1      -5.290   1.305  24.379  0.00  0.00    +0.102 C 
ATOM     16  C   UNL     1      -6.521   1.684  25.206  0.00  0.00    +0.026 C 
ATOM     17  C   UNL     1      -4.837   3.313  25.640  0.00  0.00    +0.108 C 
ATOM     18  C   UNL     1      -5.942   2.530  26.334  0.00  0.00    +0.021 C 
ATOM     19  C   UNL     1      -3.314   2.683  23.712  0.00  0.00    +0.218 C 
BRANCH  14  21
ATOM     21  C   UNL     1      -4.648   0.006  24.864  0.00  0.00    +0.181 C 
BRANCH  21   4
ATOM      4  O   UNL     1      -4.316  -0.779  23.734  0.00  0.00    -0.381 OA
ATOM     23  C   UNL     1      -3.933  -2.099  24.102  0.00  0.00    +0.194 C 
ENDBRANCH  21   4
ENDBRANCH  14  21
ENDBRANCH  15  19
ENDBRANCH  10  15
BRANCH  13  20
ATOM     20  C   UNL     1       0.182   0.847  23.466  0.00  0.00    +0.140 C 
BRANCH  20   8
ATOM      6  O   UNL     1       2.971   1.477  23.081  0.00  0.00    -0.253 OA
ATOM      8  N   UNL     1       1.286  -0.067  23.493  0.00  0.00    -0.297 N 
ATOM      9  N   UNL     1       3.482  -0.768  23.375  0.00  0.00    -0.297 N 
ATOM     22  C   UNL     1       2.615   0.319  23.296  0.00  0.00    +0.300 C 
ATOM     29  H   UNL     1       1.091  -1.047  23.675  0.00  0.00    +0.150 HD
ATOM     30  H   UNL     1       3.100  -1.672  23.632  0.00  0.00    +0.150 HD
BRANCH   9  24
ATOM     24  C   UNL     1       4.911  -0.642  23.207  0.00  0.00    +0.068 C 
ATOM     25  C   UNL     1       5.626  -1.819  23.855  0.00  0.00    +0.027 C 
ATOM     26  C   UNL     1       5.401   0.684  23.779  0.00  0.00    +0.027 C 
ENDBRANCH   9  24
ENDBRANCH  20   8
ENDBRANCH  13  20
TORSDOF 9
ENDMDL
MODEL 5
REMARK VINA RESULT:      -3.9      1.804      6.370
REMARK  Name = 40777896
REMARK  12 active torsions:
REMARK  status: ('A' for Active; 'I' for Inactive)
REMARK    1  A    between atoms: O_2  and  C_11
REMARK    2  A    between atoms: O_3  and  C_12
REMARK    3  A    between atoms: O_4  and  C_21
REMARK    4  A    between atoms: O_4  and  C_23
REMARK    5  A    between atoms: N_8  and  C_20
REMARK    6  A    between atoms: N_9  and  C_24
REMARK    7  A    between atoms: C_10  and  C_15
REMARK    8  A    between atoms: C_13  and  C_20
REMARK    9  A    between atoms: C_14  and  C_21
REMARK   10  A    between atoms: C_15  and  C_19
REMARK   11  A    between atoms: C_24  and  C_25
REMARK   12  A    between atoms: C_24  and  C_26
REMARK                            x       y       z     vdW  Elec       q    Type
REMARK                         _______ _______ _______ _____ _____    ______ ____
ROOT
ATOM      1  O   UNL     1      -3.444   3.734  26.035  0.00  0.00    -0.366 OA
ATOM     10  C   UNL     1      -2.425   3.560  25.033  0.00  0.00    +0.159 C 
ATOM     11  C   UNL     1      -3.100   2.834  23.883  0.00  0.00    +0.175 C 
ATOM     12  C   UNL     1      -4.491   3.431  23.920  0.00  0.00    +0.176 C 
ATOM     13  C   UNL     1      -4.740   3.559  25.419  0.00  0.00    +0.167 C 
ENDROOT
BRANCH  11   2
ATOM      2  O   UNL     1      -2.432   3.049  22.657  0.00  0.00    -0.387 OA
ATOM     27  H   UNL     1      -2.891   3.774  22.200  0.00  0.00    +0.210 HD
ENDBRANCH  11   2
BRANCH  12   3
ATOM      3  O   UNL     1      -4.483   4.743  23.360  0.00  0.00    -0.387 OA
ATOM     28  H   UNL     1      -3.752   5.232  23.775  0.00  0.00    +0.210 HD
ENDBRANCH  12   3
BRANCH  10  15
ATOM     15  C   UNL     1      -1.252   2.797  25.624  0.00  0.00    +0.130 C 
BRANCH  15  19
ATOM      5  O   UNL     1       0.361   3.444  23.997  0.00  0.00    -0.276 OA
ATOM      7  N   UNL     1      -0.019   1.177  24.264  0.00  0.00    -0.296 N 
ATOM     14  C   UNL     1       0.866   0.732  23.186  0.00  0.00    +0.102 C 
ATOM     16  C   UNL     1       0.454  -0.724  22.955  0.00  0.00    +0.026 C 
ATOM     17  C   UNL     1      -0.695   0.046  24.895  0.00  0.00    +0.108 C 
ATOM     18  C   UNL     1      -0.001  -1.186  24.335  0.00  0.00    +0.021 C 
ATOM     19  C   UNL     1      -0.229   2.516  24.552  0.00  0.00    +0.218 C 
BRANCH  14  21
ATOM     21  C   UNL     1       2.337   0.858  23.583  0.00  0.00    +0.181 C 
BRANCH  21   4
ATOM      4  O   UNL     1       3.132   0.437  22.491  0.00  0.00    -0.381 OA
ATOM     23  C   UNL     1       4.518   0.439  22.816  0.00  0.00    +0.194 C 
ENDBRANCH  21   4
ENDBRANCH  14  21
ENDBRANCH  15  19
ENDBRANCH  10  15
BRANCH  13  20
ATOM     20  C   UNL     1      -5.380   2.318  26.026  0.00  0.00    +0.140 C 
BRANCH  20   8
ATOM      6  O   UNL     1      -3.527   0.109  26.108  0.00  0.00    -0.253 OA
ATOM      8  N   UNL     1      -5.319   1.208  25.121  0.00  0.00    -0.297 N 
ATOM      9  N   UNL     1      -4.552  -0.776  24.224  0.00  0.00    -0.297 N 
ATOM     22  C   UNL     1      -4.386   0.173  25.230  0.00  0.00    +0.300 C 
ATOM     29  H   UNL     1      -5.998   1.167  24.368  0.00  0.00    +0.150 HD
ATOM     30  H   UNL     1      -5.338  -0.675  23.591  0.00  0.00    +0.150 HD
BRANCH   9  24
ATOM     24  C   UNL     1      -3.715  -1.948  24.108  0.00  0.00    +0.068 C 
ATOM     25  C   UNL     1      -4.412  -3.015  23.275  0.00  0.00    +0.027 C 
ATOM     26  C   UNL     1      -3.345  -2.478  25.488  0.00  0.00    +0.027 C 
ENDBRANCH   9  24
ENDBRANCH  20   8
ENDBRANCH  13  20
TORSDOF 9
ENDMDL
MODEL 6
REMARK VINA RESULT:      -3.8      1.488      2.255
REMARK  Name = 40777896
REMARK  12 active torsions:
REMARK  status: ('A' for Active; 'I' for Inactive)
REMARK    1  A    between atoms: O_2  and  C_11
REMARK    2  A    between atoms: O_3  and  C_12
REMARK    3  A    between atoms: O_4  and  C_21
REMARK    4  A    between atoms: O_4  and  C_23
REMARK    5  A    between atoms: N_8  and  C_20
REMARK    6  A    between atoms: N_9  and  C_24
REMARK    7  A    between atoms: C_10  and  C_15
REMARK    8  A    between atoms: C_13  and  C_20
REMARK    9  A    between atoms: C_14  and  C_21
REMARK   10  A    between atoms: C_15  and  C_19
REMARK   11  A    between atoms: C_24  and  C_25
REMARK   12  A    between atoms: C_24  and  C_26
REMARK                            x       y       z     vdW  Elec       q    Type
REMARK                         _______ _______ _______ _____ _____    ______ ____
ROOT
ATOM      1  O   UNL     1      -1.790  -1.246  25.573  0.00  0.00    -0.366 OA
ATOM     10  C   UNL     1      -3.221  -1.397  25.537  0.00  0.00    +0.159 C 
ATOM     11  C   UNL     1      -3.568  -1.677  24.085  0.00  0.00    +0.175 C 
ATOM     12  C   UNL     1      -2.381  -2.506  23.643  0.00  0.00    +0.176 C 
ATOM     13  C   UNL     1      -1.229  -1.823  24.372  0.00  0.00    +0.167 C 
ENDROOT
BRANCH  11   2
ATOM      2  O   UNL     1      -4.801  -2.354  23.957  0.00  0.00    -0.387 OA
ATOM     27  H   UNL     1      -5.488  -1.682  23.815  0.00  0.00    +0.210 HD
ENDBRANCH  11   2
BRANCH  12   3
ATOM      3  O   UNL     1      -2.491  -3.838  24.143  0.00  0.00    -0.387 OA
ATOM     28  H   UNL     1      -2.646  -4.422  23.381  0.00  0.00    +0.210 HD
ENDBRANCH  12   3
BRANCH  10  15
ATOM     15  C   UNL     1      -3.881  -0.143  26.084  0.00  0.00    +0.130 C 
BRANCH  15  19
ATOM      5  O   UNL     1      -4.935   0.944  24.247  0.00  0.00    -0.276 OA
ATOM      7  N   UNL     1      -2.900   1.792  24.950  0.00  0.00    -0.296 N 
ATOM     14  C   UNL     1      -2.775   2.810  23.906  0.00  0.00    +0.102 C 
ATOM     16  C   UNL     1      -1.302   3.224  23.976  0.00  0.00    +0.026 C 
ATOM     17  C   UNL     1      -1.732   1.785  25.827  0.00  0.00    +0.108 C 
ATOM     18  C   UNL     1      -0.952   3.036  25.448  0.00  0.00    +0.021 C 
ATOM     19  C   UNL     1      -3.965   0.907  25.005  0.00  0.00    +0.218 C 
BRANCH  14  21
ATOM     21  C   UNL     1      -3.715   3.988  24.158  0.00  0.00    +0.181 C 
BRANCH  21   4
ATOM      4  O   UNL     1      -4.176   3.915  25.494  0.00  0.00    -0.381 OA
ATOM     23  C   UNL     1      -5.594   4.010  25.569  0.00  0.00    +0.194 C 
ENDBRANCH  21   4
ENDBRANCH  14  21
ENDBRANCH  15  19
ENDBRANCH  10  15
BRANCH  13  20
ATOM     20  C   UNL     1      -0.597  -0.696  23.566  0.00  0.00    +0.140 C 
BRANCH  20   8
ATOM      6  O   UNL     1       1.580  -0.162  21.750  0.00  0.00    -0.253 OA
ATOM      8  N   UNL     1       0.786  -0.529  23.902  0.00  0.00    -0.297 N 
ATOM      9  N   UNL     1       3.037  -0.152  23.556  0.00  0.00    -0.297 N 
ATOM     22  C   UNL     1       1.785  -0.271  22.958  0.00  0.00    +0.300 C 
ATOM     29  H   UNL     1       1.052  -0.591  24.880  0.00  0.00    +0.150 HD
ATOM     30  H   UNL     1       3.093  -0.183  24.569  0.00  0.00    +0.150 HD
BRANCH   9  24
ATOM     24  C   UNL     1       4.241   0.113  22.804  0.00  0.00    +0.068 C 
ATOM     25  C   UNL     1       5.471  -0.216  23.640  0.00  0.00    +0.027 C 
ATOM     26  C   UNL     1       4.267   1.562  22.332  0.00  0.00    +0.027 C 
ENDBRANCH   9  24
ENDBRANCH  20   8
ENDBRANCH  13  20
TORSDOF 9
ENDMDL
MODEL 7
REMARK VINA RESULT:      -3.4      2.499      5.368
REMARK  Name = 40777896
REMARK  12 active torsions:
REMARK  status: ('A' for Active; 'I' for Inactive)
REMARK    1  A    between atoms: O_2  and  C_11
REMARK    2  A    between atoms: O_3  and  C_12
REMARK    3  A    between atoms: O_4  and  C_21
REMARK    4  A    between atoms: O_4  and  C_23
REMARK    5  A    between atoms: N_8  and  C_20
REMARK    6  A    between atoms: N_9  and  C_24
REMARK    7  A    between atoms: C_10  and  C_15
REMARK    8  A    between atoms: C_13  and  C_20
REMARK    9  A    between atoms: C_14  and  C_21
REMARK   10  A    between atoms: C_15  and  C_19
REMARK   11  A    between atoms: C_24  and  C_25
REMARK   12  A    between atoms: C_24  and  C_26
REMARK                            x       y       z     vdW  Elec       q    Type
REMARK                         _______ _______ _______ _____ _____    ______ ____
ROOT
ATOM      1  O   UNL     1      -2.324   3.516  23.439  0.00  0.00    -0.366 OA
ATOM     10  C   UNL     1      -3.541   3.383  24.195  0.00  0.00    +0.159 C 
ATOM     11  C   UNL     1      -3.124   3.414  25.655  0.00  0.00    +0.175 C 
ATOM     12  C   UNL     1      -1.972   4.397  25.621  0.00  0.00    +0.176 C 
ATOM     13  C   UNL     1      -1.291   4.041  24.304  0.00  0.00    +0.167 C 
ENDROOT
BRANCH  11   2
ATOM      2  O   UNL     1      -4.180   3.820  26.499  0.00  0.00    -0.387 OA
ATOM     27  H   UNL     1      -3.798   4.008  27.373  0.00  0.00    +0.210 HD
ENDBRANCH  11   2
BRANCH  12   3
ATOM      3  O   UNL     1      -2.463   5.732  25.519  0.00  0.00    -0.387 OA
ATOM     28  H   UNL     1      -3.383   5.681  25.210  0.00  0.00    +0.210 HD
ENDBRANCH  12   3
BRANCH  10  15
ATOM     15  C   UNL     1      -4.252   2.101  23.798  0.00  0.00    +0.130 C 
BRANCH  15  19
ATOM      5  O   UNL     1      -2.505   1.145  22.493  0.00  0.00    -0.276 OA
ATOM      7  N   UNL     1      -3.211  -0.046  24.347  0.00  0.00    -0.296 N 
ATOM     14  C   UNL     1      -2.359  -1.216  24.127  0.00  0.00    +0.102 C 
ATOM     16  C   UNL     1      -2.964  -2.283  25.043  0.00  0.00    +0.026 C 
ATOM     17  C   UNL     1      -4.063  -0.223  25.521  0.00  0.00    +0.108 C 
ATOM     18  C   UNL     1      -3.530  -1.474  26.204  0.00  0.00    +0.021 C 
ATOM     19  C   UNL     1      -3.241   1.031  23.475  0.00  0.00    +0.218 C 
BRANCH  14  21
ATOM     21  C   UNL     1      -0.901  -0.918  24.475  0.00  0.00    +0.181 C 
BRANCH  21   4
ATOM      4  O   UNL     1      -0.119  -1.084  23.308  0.00  0.00    -0.381 OA
ATOM     23  C   UNL     1       0.876  -0.074  23.191  0.00  0.00    +0.194 C 
ENDBRANCH  21   4
ENDBRANCH  14  21
ENDBRANCH  15  19
ENDBRANCH  10  15
BRANCH  13  20
ATOM     20  C   UNL     1      -0.222   2.968  24.456  0.00  0.00    +0.140 C 
BRANCH  20   8
ATOM      6  O   UNL     1      -0.323   1.449  26.906  0.00  0.00    -0.253 OA
ATOM      8  N   UNL     1       0.563   3.181  25.636  0.00  0.00    -0.297 N 
ATOM      9  N   UNL     1       1.332   2.820  27.783  0.00  0.00    -0.297 N 
ATOM     22  C   UNL     1       0.453   2.397  26.789  0.00  0.00    +0.300 C 
ATOM     29  H   UNL     1       1.242   3.935  25.630  0.00  0.00    +0.150 HD
ATOM     30  H   UNL     1       1.987   3.563  27.563  0.00  0.00    +0.150 HD
BRANCH   9  24
ATOM     24  C   UNL     1       1.419   2.179  29.075  0.00  0.00    +0.068 C 
ATOM     25  C   UNL     1       0.558   2.918  30.090  0.00  0.00    +0.027 C 
ATOM     26  C   UNL     1       2.870   2.101  29.534  0.00  0.00    +0.027 C 
ENDBRANCH   9  24
ENDBRANCH  20   8
ENDBRANCH  13  20
TORSDOF 9
ENDMDL
MODEL 8
REMARK VINA RESULT:      -3.1      1.614      3.113
REMARK  Name = 40777896
REMARK  12 active torsions:
REMARK  status: ('A' for Active; 'I' for Inactive)
REMARK    1  A    between atoms: O_2  and  C_11
REMARK    2  A    between atoms: O_3  and  C_12
REMARK    3  A    between atoms: O_4  and  C_21
REMARK    4  A    between atoms: O_4  and  C_23
REMARK    5  A    between atoms: N_8  and  C_20
REMARK    6  A    between atoms: N_9  and  C_24
REMARK    7  A    between atoms: C_10  and  C_15
REMARK    8  A    between atoms: C_13  and  C_20
REMARK    9  A    between atoms: C_14  and  C_21
REMARK   10  A    between atoms: C_15  and  C_19
REMARK   11  A    between atoms: C_24  and  C_25
REMARK   12  A    between atoms: C_24  and  C_26
REMARK                            x       y       z     vdW  Elec       q    Type
REMARK                         _______ _______ _______ _____ _____    ______ ____
ROOT
ATOM      1  O   UNL     1      -0.772  -1.316  25.505  0.00  0.00    -0.366 OA
ATOM     10  C   UNL     1      -1.783  -0.506  26.134  0.00  0.00    +0.159 C 
ATOM     11  C   UNL     1      -2.768  -0.152  25.034  0.00  0.00    +0.175 C 
ATOM     12  C   UNL     1      -2.757  -1.414  24.198  0.00  0.00    +0.176 C 
ATOM     13  C   UNL     1      -1.287  -1.817  24.251  0.00  0.00    +0.167 C 
ENDROOT
BRANCH  11   2
ATOM      2  O   UNL     1      -4.044   0.166  25.548  0.00  0.00    -0.387 OA
ATOM     27  H   UNL     1      -4.080   1.132  25.658  0.00  0.00    +0.210 HD
ENDBRANCH  11   2
BRANCH  12   3
ATOM      3  O   UNL     1      -3.519  -2.438  24.835  0.00  0.00    -0.387 OA
ATOM     28  H   UNL     1      -3.543  -3.201  24.233  0.00  0.00    +0.210 HD
ENDBRANCH  12   3
BRANCH  10  15
ATOM     15  C   UNL     1      -1.137   0.708  26.780  0.00  0.00    +0.130 C 
BRANCH  15  19
ATOM      5  O   UNL     1       0.329   1.332  25.011  0.00  0.00    -0.276 OA
ATOM      7  N   UNL     1      -1.317   2.847  25.603  0.00  0.00    -0.296 N 
ATOM     14  C   UNL     1      -0.899   3.912  24.689  0.00  0.00    +0.102 C 
ATOM     16  C   UNL     1      -1.638   5.148  25.210  0.00  0.00    +0.026 C 
ATOM     17  C   UNL     1      -2.458   3.263  26.415  0.00  0.00    +0.108 C 
ATOM     18  C   UNL     1      -2.923   4.572  25.794  0.00  0.00    +0.021 C 
ATOM     19  C   UNL     1      -0.631   1.648  25.716  0.00  0.00    +0.218 C 
BRANCH  14  21
ATOM     21  C   UNL     1      -1.271   3.586  23.244  0.00  0.00    +0.181 C 
BRANCH  21   4
ATOM      4  O   UNL     1      -2.051   2.405  23.237  0.00  0.00    -0.381 OA
ATOM     23  C   UNL     1      -3.384   2.655  22.807  0.00  0.00    +0.194 C 
ENDBRANCH  21   4
ENDBRANCH  14  21
ENDBRANCH  15  19
ENDBRANCH  10  15
BRANCH  13  20
ATOM     20  C   UNL     1      -0.460  -1.204  23.130  0.00  0.00    +0.140 C 
BRANCH  20   8
ATOM      6  O   UNL     1       1.711  -0.190  21.522  0.00  0.00    -0.253 OA
ATOM      8  N   UNL     1       0.885  -0.950  23.556  0.00  0.00    -0.297 N 
ATOM      9  N   UNL     1       3.094  -0.302  23.383  0.00  0.00    -0.297 N 
ATOM     22  C   UNL     1       1.884  -0.457  22.711  0.00  0.00    +0.300 C 
ATOM     29  H   UNL     1       1.121  -1.129  24.527  0.00  0.00    +0.150 HD
ATOM     30  H   UNL     1       3.117  -0.477  24.382  0.00  0.00    +0.150 HD
BRANCH   9  24
ATOM     24  C   UNL     1       4.289   0.191  22.738  0.00  0.00    +0.068 C 
ATOM     25  C   UNL     1       5.512  -0.105  23.594  0.00  0.00    +0.027 C 
ATOM     26  C   UNL     1       4.163   1.683  22.453  0.00  0.00    +0.027 C 
ENDBRANCH   9  24
ENDBRANCH  20   8
ENDBRANCH  13  20
TORSDOF 9
ENDMDL
MODEL 9
REMARK VINA RESULT:      -3.1      1.823      4.762
REMARK  Name = 40777896
REMARK  12 active torsions:
REMARK  status: ('A' for Active; 'I' for Inactive)
REMARK    1  A    between atoms: O_2  and  C_11
REMARK    2  A    between atoms: O_3  and  C_12
REMARK    3  A    between atoms: O_4  and  C_21
REMARK    4  A    between atoms: O_4  and  C_23
REMARK    5  A    between atoms: N_8  and  C_20
REMARK    6  A    between atoms: N_9  and  C_24
REMARK    7  A    between atoms: C_10  and  C_15
REMARK    8  A    between atoms: C_13  and  C_20
REMARK    9  A    between atoms: C_14  and  C_21
REMARK   10  A    between atoms: C_15  and  C_19
REMARK   11  A    between atoms: C_24  and  C_25
REMARK   12  A    between atoms: C_24  and  C_26
REMARK                            x       y       z     vdW  Elec       q    Type
REMARK                         _______ _______ _______ _____ _____    ______ ____
ROOT
ATOM      1  O   UNL     1      -3.696   2.788  23.869  0.00  0.00    -0.366 OA
ATOM     10  C   UNL     1      -4.884   2.276  24.499  0.00  0.00    +0.159 C 
ATOM     11  C   UNL     1      -4.832   2.768  25.935  0.00  0.00    +0.175 C 
ATOM     12  C   UNL     1      -4.199   4.132  25.766  0.00  0.00    +0.176 C 
ATOM     13  C   UNL     1      -3.171   3.871  24.670  0.00  0.00    +0.167 C 
ENDROOT
BRANCH  11   2
ATOM      2  O   UNL     1      -6.115   2.816  26.525  0.00  0.00    -0.387 OA
ATOM     27  H   UNL     1      -5.990   2.908  27.484  0.00  0.00    +0.210 HD
ENDBRANCH  11   2
BRANCH  12   3
ATOM      3  O   UNL     1      -5.154   5.065  25.264  0.00  0.00    -0.387 OA
ATOM     28  H   UNL     1      -5.713   5.340  26.010  0.00  0.00    +0.210 HD
ENDBRANCH  12   3
BRANCH  10  15
ATOM     15  C   UNL     1      -4.915   0.762  24.380  0.00  0.00    +0.130 C 
BRANCH  15  19
ATOM      5  O   UNL     1      -2.912   0.969  23.109  0.00  0.00    -0.276 OA
ATOM      7  N   UNL     1      -3.230  -1.011  24.265  0.00  0.00    -0.296 N 
ATOM     14  C   UNL     1      -2.029  -1.686  23.771  0.00  0.00    +0.102 C 
ATOM     16  C   UNL     1      -2.267  -3.156  24.127  0.00  0.00    +0.026 C 
ATOM     17  C   UNL     1      -4.006  -1.883  25.144  0.00  0.00    +0.108 C 
ATOM     18  C   UNL     1      -3.104  -3.081  25.398  0.00  0.00    +0.021 C 
ATOM     19  C   UNL     1      -3.594   0.261  23.852  0.00  0.00    +0.218 C 
BRANCH  14  21
ATOM     21  C   UNL     1      -0.766  -1.132  24.428  0.00  0.00    +0.181 C 
BRANCH  21   4
ATOM      4  O   UNL     1      -0.697  -1.626  25.752  0.00  0.00    -0.381 OA
ATOM     23  C   UNL     1      -0.994  -0.614  26.708  0.00  0.00    +0.194 C 
ENDBRANCH  21   4
ENDBRANCH  14  21
ENDBRANCH  15  19
ENDBRANCH  10  15
BRANCH  13  20
ATOM     20  C   UNL     1      -1.817   3.436  25.213  0.00  0.00    +0.140 C 
BRANCH  20   8
ATOM      6  O   UNL     1       0.676   2.032  25.584  0.00  0.00    -0.253 OA
ATOM      8  N   UNL     1      -1.049   2.760  24.209  0.00  0.00    -0.297 N 
ATOM      9  N   UNL     1       0.689   1.529  23.319  0.00  0.00    -0.297 N 
ATOM     22  C   UNL     1       0.155   2.100  24.471  0.00  0.00    +0.300 C 
ATOM     29  H   UNL     1      -1.405   2.752  23.258  0.00  0.00    +0.150 HD
ATOM     30  H   UNL     1       0.147   1.575  22.462  0.00  0.00    +0.150 HD
BRANCH   9  24
ATOM     24  C   UNL     1       1.931   0.790  23.314  0.00  0.00    +0.068 C 
ATOM     25  C   UNL     1       3.091   1.706  22.950  0.00  0.00    +0.027 C 
ATOM     26  C   UNL     1       1.842  -0.395  22.360  0.00  0.00    +0.027 C 
ENDBRANCH   9  24
ENDBRANCH  20   8
ENDBRANCH  13  20
TORSDOF 9
ENDMDL
MODEL 10
REMARK VINA RESULT:      -2.3      2.368      3.616
REMARK  Name = 40777896
REMARK  12 active torsions:
REMARK  status: ('A' for Active; 'I' for Inactive)
REMARK    1  A    between atoms: O_2  and  C_11
REMARK    2  A    between atoms: O_3  and  C_12
REMARK    3  A    between atoms: O_4  and  C_21
REMARK    4  A    between atoms: O_4  and  C_23
REMARK    5  A    between atoms: N_8  and  C_20
REMARK    6  A    between atoms: N_9  and  C_24
REMARK    7  A    between atoms: C_10  and  C_15
REMARK    8  A    between atoms: C_13  and  C_20
REMARK    9  A    between atoms: C_14  and  C_21
REMARK   10  A    between atoms: C_15  and  C_19
REMARK   11  A    between atoms: C_24  and  C_25
REMARK   12  A    between atoms: C_24  and  C_26
REMARK                            x       y       z     vdW  Elec       q    Type
REMARK                         _______ _______ _______ _____ _____    ______ ____
ROOT
ATOM      1  O   UNL     1      -0.326   3.281  23.805  0.00  0.00    -0.366 OA
ATOM     10  C   UNL     1      -1.243   3.723  24.822  0.00  0.00    +0.159 C 
ATOM     11  C   UNL     1      -1.328   2.583  25.822  0.00  0.00    +0.175 C 
ATOM     12  C   UNL     1       0.090   2.052  25.799  0.00  0.00    +0.176 C 
ATOM     13  C   UNL     1       0.451   2.178  24.323  0.00  0.00    +0.167 C 
ENDROOT
BRANCH  11   2
ATOM      2  O   UNL     1      -1.738   3.027  27.098  0.00  0.00    -0.387 OA
ATOM     27  H   UNL     1      -2.708   2.967  27.129  0.00  0.00    +0.210 HD
ENDBRANCH  11   2
BRANCH  12   3
ATOM      3  O   UNL     1       0.954   2.913  26.540  0.00  0.00    -0.387 OA
ATOM     28  H   UNL     1       0.399   3.594  26.955  0.00  0.00    +0.210 HD
ENDBRANCH  12   3
BRANCH  10  15
ATOM     15  C   UNL     1      -2.579   4.072  24.190  0.00  0.00    +0.130 C 
BRANCH  15  19
ATOM      5  O   UNL     1      -4.374   3.908  25.746  0.00  0.00    -0.276 OA
ATOM      7  N   UNL     1      -3.868   2.016  24.513  0.00  0.00    -0.296 N 
ATOM     14  C   UNL     1      -4.836   1.130  25.164  0.00  0.00    +0.102 C 
ATOM     16  C   UNL     1      -4.384  -0.271  24.746  0.00  0.00    +0.026 C 
ATOM     17  C   UNL     1      -3.083   1.298  23.512  0.00  0.00    +0.108 C 
ATOM     18  C   UNL     1      -3.774  -0.049  23.367  0.00  0.00    +0.021 C 
ATOM     19  C   UNL     1      -3.690   3.336  24.895  0.00  0.00    +0.218 C 
BRANCH  14  21
ATOM     21  C   UNL     1      -6.263   1.434  24.712  0.00  0.00    +0.181 C 
BRANCH  21   4
ATOM      4  O   UNL     1      -6.943   2.076  25.775  0.00  0.00    -0.381 OA
ATOM     23  C   UNL     1      -6.560   1.549  27.040  0.00  0.00    +0.194 C 
ENDBRANCH  21   4
ENDBRANCH  14  21
ENDBRANCH  15  19
ENDBRANCH  10  15
BRANCH  13  20
ATOM     20  C   UNL     1       0.096   0.938  23.514  0.00  0.00    +0.140 C 
BRANCH  20   8
ATOM      6  O   UNL     1       2.896   1.514  23.123  0.00  0.00    -0.253 OA
ATOM      8  N   UNL     1       1.177  -0.002  23.502  0.00  0.00    -0.297 N 
ATOM      9  N   UNL     1       3.356  -0.750  23.343  0.00  0.00    -0.297 N 
ATOM     22  C   UNL     1       2.514   0.359  23.305  0.00  0.00    +0.300 C 
ATOM     29  H   UNL     1       0.961  -0.982  23.657  0.00  0.00    +0.150 HD
ATOM     30  H   UNL     1       2.955  -1.652  23.575  0.00  0.00    +0.150 HD
BRANCH   9  24
ATOM     24  C   UNL     1       4.786  -0.652  23.166  0.00  0.00    +0.068 C 
ATOM     25  C   UNL     1       5.490  -1.769  23.922  0.00  0.00    +0.027 C 
ATOM     26  C   UNL     1       5.287   0.717  23.610  0.00  0.00    +0.027 C 
ENDBRANCH   9  24
ENDBRANCH  20   8
ENDBRANCH  13  20
TORSDOF 9
ENDMDL
