MODEL 1
REMARK VINA RESULT:       4.8      0.000      0.000
REMARK  Name = 75536996
REMARK  4 active torsions:
REMARK  status: ('A' for Active; 'I' for Inactive)
REMARK    1  A    between atoms: N_5  and  C_14
REMARK    2  A    between atoms: N_7  and  C_19
REMARK    3  A    between atoms: C_14  and  C_16
REMARK    4  A    between atoms: C_19  and  C_22
REMARK                            x       y       z     vdW  Elec       q    Type
REMARK                         _______ _______ _______ _____ _____    ______ ____
ROOT
ATOM      2  O   UNL     1      -3.871  -2.525  25.190  0.00  0.00    -0.252 OA
ATOM      3  O   UNL     1       2.740  -1.493  23.447  0.00  0.00    -0.253 OA
ATOM      4  N   UNL     1      -1.975  -1.471  24.286  0.00  0.00    -0.278 N 
ATOM      5  N   UNL     1      -3.903  -0.318  24.361  0.00  0.00    -0.279 N 
ATOM      6  N   UNL     1       0.678  -0.659  24.096  0.00  0.00    -0.282 N 
ATOM      7  N   UNL     1       2.118   0.579  22.689  0.00  0.00    -0.295 N 
ATOM      8  C   UNL     1      -1.683  -0.222  23.601  0.00  0.00    +0.112 C 
ATOM      9  C   UNL     1      -2.924   0.629  23.856  0.00  0.00    +0.133 C 
ATOM     10  C   UNL     1      -0.380   0.372  24.126  0.00  0.00    +0.133 C 
ATOM     11  C   UNL     1      -0.946  -2.490  24.407  0.00  0.00    +0.128 C 
ATOM     12  C   UNL     1       0.361  -1.859  24.888  0.00  0.00    +0.128 C 
ATOM     13  C   UNL     1      -3.319  -1.562  24.674  0.00  0.00    +0.306 C 
ATOM     15  C   UNL     1       1.903  -0.586  23.415  0.00  0.00    +0.303 C 
ATOM     29  H   UNL     1       1.416   1.304  22.645  0.00  0.00    +0.151 HD
ENDROOT
BRANCH   5  14
ATOM     14  C   UNL     1      -5.270   0.066  24.631  0.00  0.00    +0.144 C 
BRANCH  14  16
ATOM      1  F   UNL     1      -5.734   5.565  25.750  0.00  0.00    -0.205 F 
ATOM     16  C   UNL     1      -5.394   1.532  24.930  0.00  0.00    -0.030 A 
ATOM     17  C   UNL     1      -6.330   1.978  25.863  0.00  0.00    +0.008 A 
ATOM     18  C   UNL     1      -4.572   2.449  24.274  0.00  0.00    +0.008 A 
ATOM     20  C   UNL     1      -6.445   3.340  26.140  0.00  0.00    +0.038 A 
ATOM     21  C   UNL     1      -4.687   3.811  24.551  0.00  0.00    +0.038 A 
ATOM     23  C   UNL     1      -5.623   4.257  25.484  0.00  0.00    +0.123 A 
ENDBRANCH  14  16
ENDBRANCH   5  14
BRANCH   7  19
ATOM     19  C   UNL     1       3.329   0.800  21.930  0.00  0.00    +0.141 C 
BRANCH  19  22
ATOM     22  C   UNL     1       4.556   0.417  22.704  0.00  0.00    -0.030 A 
ATOM     24  C   UNL     1       4.696   0.818  24.033  0.00  0.00    +0.005 A 
ATOM     25  C   UNL     1       5.557  -0.340  22.095  0.00  0.00    +0.005 A 
ATOM     26  C   UNL     1       5.837   0.462  24.753  0.00  0.00    +0.000 A 
ATOM     27  C   UNL     1       6.697  -0.696  22.815  0.00  0.00    +0.000 A 
ATOM     28  C   UNL     1       6.837  -0.295  24.144  0.00  0.00    +0.000 A 
ENDBRANCH  19  22
ENDBRANCH   7  19
TORSDOF 4
ENDMDL
MODEL 2
REMARK VINA RESULT:       8.5      2.921      9.159
REMARK  Name = 75536996
REMARK  4 active torsions:
REMARK  status: ('A' for Active; 'I' for Inactive)
REMARK    1  A    between atoms: N_5  and  C_14
REMARK    2  A    between atoms: N_7  and  C_19
REMARK    3  A    between atoms: C_14  and  C_16
REMARK    4  A    between atoms: C_19  and  C_22
REMARK                            x       y       z     vdW  Elec       q    Type
REMARK                         _______ _______ _______ _____ _____    ______ ____
ROOT
ATOM      2  O   UNL     1       2.986  -1.798  24.015  0.00  0.00    -0.252 OA
ATOM      3  O   UNL     1      -3.600  -1.561  26.106  0.00  0.00    -0.253 OA
ATOM      4  N   UNL     1       0.766  -1.051  24.206  0.00  0.00    -0.278 N 
ATOM      5  N   UNL     1       2.077  -0.111  22.641  0.00  0.00    -0.279 N 
ATOM      6  N   UNL     1      -1.998  -1.220  24.468  0.00  0.00    -0.282 N 
ATOM      7  N   UNL     1      -3.910   0.159  24.622  0.00  0.00    -0.295 N 
ATOM      8  C   UNL     1      -0.047   0.009  23.633  0.00  0.00    +0.112 C 
ATOM      9  C   UNL     1       0.768   0.484  22.433  0.00  0.00    +0.133 C 
ATOM     10  C   UNL     1      -1.437  -0.521  23.294  0.00  0.00    +0.133 C 
ATOM     11  C   UNL     1       0.239  -1.867  25.287  0.00  0.00    +0.128 C 
ATOM     12  C   UNL     1      -1.172  -2.344  24.941  0.00  0.00    +0.128 C 
ATOM     13  C   UNL     1       2.061  -1.076  23.668  0.00  0.00    +0.306 C 
ATOM     15  C   UNL     1      -3.197  -0.919  25.131  0.00  0.00    +0.303 C 
ATOM     29  H   UNL     1      -3.560   0.696  23.841  0.00  0.00    +0.151 HD
ENDROOT
BRANCH   5  14
ATOM     14  C   UNL     1       3.195   0.178  21.771  0.00  0.00    +0.144 C 
BRANCH  14  16
ATOM      1  F   UNL     1       8.109  -0.032  24.513  0.00  0.00    -0.205 F 
ATOM     16  C   UNL     1       4.505   0.122  22.503  0.00  0.00    -0.030 A 
ATOM     17  C   UNL     1       4.664   0.810  23.706  0.00  0.00    +0.008 A 
ATOM     18  C   UNL     1       5.565  -0.619  21.979  0.00  0.00    +0.008 A 
ATOM     20  C   UNL     1       5.880   0.758  24.384  0.00  0.00    +0.038 A 
ATOM     21  C   UNL     1       6.782  -0.671  22.658  0.00  0.00    +0.038 A 
ATOM     23  C   UNL     1       6.940   0.017  23.861  0.00  0.00    +0.123 A 
ENDBRANCH  14  16
ENDBRANCH   5  14
BRANCH   7  19
ATOM     19  C   UNL     1      -5.162   0.596  25.201  0.00  0.00    +0.141 C 
BRANCH  19  22
ATOM     22  C   UNL     1      -5.242   2.091  25.305  0.00  0.00    -0.030 A 
ATOM     24  C   UNL     1      -6.381   2.693  25.839  0.00  0.00    +0.005 A 
ATOM     25  C   UNL     1      -4.176   2.878  24.869  0.00  0.00    +0.005 A 
ATOM     26  C   UNL     1      -6.455   4.083  25.937  0.00  0.00    +0.000 A 
ATOM     27  C   UNL     1      -4.250   4.267  24.967  0.00  0.00    +0.000 A 
ATOM     28  C   UNL     1      -5.389   4.870  25.501  0.00  0.00    +0.000 A 
ENDBRANCH  19  22
ENDBRANCH   7  19
TORSDOF 4
ENDMDL
MODEL 3
REMARK VINA RESULT:       8.8      1.952      2.696
REMARK  Name = 75536996
REMARK  4 active torsions:
REMARK  status: ('A' for Active; 'I' for Inactive)
REMARK    1  A    between atoms: N_5  and  C_14
REMARK    2  A    between atoms: N_7  and  C_19
REMARK    3  A    between atoms: C_14  and  C_16
REMARK    4  A    between atoms: C_19  and  C_22
REMARK                            x       y       z     vdW  Elec       q    Type
REMARK                         _______ _______ _______ _____ _____    ______ ____
ROOT
ATOM      2  O   UNL     1      -5.484  -0.298  24.817  0.00  0.00    -0.252 OA
ATOM      3  O   UNL     1       0.524  -3.692  25.249  0.00  0.00    -0.253 OA
ATOM      4  N   UNL     1      -3.173  -0.702  24.681  0.00  0.00    -0.278 N 
ATOM      5  N   UNL     1      -3.909   1.400  24.378  0.00  0.00    -0.279 N 
ATOM      6  N   UNL     1      -0.688  -1.723  25.399  0.00  0.00    -0.282 N 
ATOM      7  N   UNL     1       1.565  -1.728  24.685  0.00  0.00    -0.295 N 
ATOM      8  C   UNL     1      -1.986   0.055  24.319  0.00  0.00    +0.112 C 
ATOM      9  C   UNL     1      -2.460   1.505  24.336  0.00  0.00    +0.133 C 
ATOM     10  C   UNL     1      -0.848  -0.259  25.286  0.00  0.00    +0.133 C 
ATOM     11  C   UNL     1      -3.076  -2.130  24.930  0.00  0.00    +0.128 C 
ATOM     12  C   UNL     1      -1.899  -2.420  25.862  0.00  0.00    +0.128 C 
ATOM     13  C   UNL     1      -4.334   0.083  24.644  0.00  0.00    +0.306 C 
ATOM     15  C   UNL     1       0.471  -2.465  25.122  0.00  0.00    +0.303 C 
ATOM     29  H   UNL     1       1.505  -0.728  24.557  0.00  0.00    +0.151 HD
ENDROOT
BRANCH   5  14
ATOM     14  C   UNL     1      -4.762   2.564  24.299  0.00  0.00    +0.144 C 
BRANCH  14  16
ATOM      1  F   UNL     1      -1.898   7.341  25.127  0.00  0.00    -0.205 F 
ATOM     16  C   UNL     1      -3.999   3.838  24.520  0.00  0.00    -0.030 A 
ATOM     17  C   UNL     1      -3.301   4.037  25.712  0.00  0.00    +0.008 A 
ATOM     18  C   UNL     1      -3.985   4.824  23.533  0.00  0.00    +0.008 A 
ATOM     20  C   UNL     1      -2.592   5.219  25.917  0.00  0.00    +0.038 A 
ATOM     21  C   UNL     1      -3.277   6.006  23.737  0.00  0.00    +0.038 A 
ATOM     23  C   UNL     1      -2.579   6.205  24.929  0.00  0.00    +0.123 A 
ENDBRANCH  14  16
ENDBRANCH   5  14
BRANCH   7  19
ATOM     19  C   UNL     1       2.828  -2.350  24.354  0.00  0.00    +0.141 C 
BRANCH  19  22
ATOM     22  C   UNL     1       3.844  -1.348  23.887  0.00  0.00    -0.030 A 
ATOM     24  C   UNL     1       5.184  -1.495  24.243  0.00  0.00    +0.005 A 
ATOM     25  C   UNL     1       3.446  -0.269  23.097  0.00  0.00    +0.005 A 
ATOM     26  C   UNL     1       6.127  -0.564  23.809  0.00  0.00    +0.000 A 
ATOM     27  C   UNL     1       4.389   0.662  22.663  0.00  0.00    +0.000 A 
ATOM     28  C   UNL     1       5.730   0.514  23.019  0.00  0.00    +0.000 A 
ENDBRANCH  19  22
ENDBRANCH   7  19
TORSDOF 4
ENDMDL
