MODEL 1
REMARK VINA RESULT:      13.8      0.000      0.000
REMARK  Name = 7144114
REMARK  6 active torsions:
REMARK  status: ('A' for Active; 'I' for Inactive)
REMARK    1  A    between atoms: O_3  and  C_26
REMARK    2  A    between atoms: O_3  and  C_32
REMARK    3  A    between atoms: O_4  and  C_27
REMARK    4  A    between atoms: O_4  and  C_33
REMARK    5  A    between atoms: N_7  and  C_23
REMARK    6  A    between atoms: C_15  and  C_20
REMARK                            x       y       z     vdW  Elec       q    Type
REMARK                         _______ _______ _______ _____ _____    ______ ____
ROOT
ATOM      1  O   UNL     1      -1.391   1.931  21.599  0.00  0.00    -0.268 OA
ATOM      2  O   UNL     1      -4.866  -0.107  24.397  0.00  0.00    -0.252 OA
ATOM      5  N   UNL     1      -0.931   0.855  23.628  0.00  0.00    -0.311 N 
ATOM      6  N   UNL     1      -2.921  -0.714  25.492  0.00  0.00    -0.284 N 
ATOM      7  N   UNL     1      -4.080   1.246  26.106  0.00  0.00    -0.266 N 
ATOM      8  C   UNL     1      -1.260  -1.670  23.908  0.00  0.00    +0.027 C 
ATOM      9  C   UNL     1      -0.498  -0.315  25.815  0.00  0.00    +0.054 C 
ATOM     10  C   UNL     1      -0.176  -1.547  24.969  0.00  0.00    +0.018 C 
ATOM     11  C   UNL     1      -1.173  -0.448  22.994  0.00  0.00    +0.130 C 
ATOM     12  C   UNL     1      -2.648  -1.810  24.558  0.00  0.00    +0.114 C 
ATOM     13  C   UNL     1      -1.868  -0.516  26.501  0.00  0.00    +0.119 C 
ATOM     14  C   UNL     1      -0.512   0.965  24.971  0.00  0.00    +0.034 A 
ATOM     15  C   UNL     1      -0.179   2.181  25.478  0.00  0.00    +0.002 A 
ATOM     16  C   UNL     1      -1.044   1.970  22.780  0.00  0.00    +0.252 A 
ATOM     17  C   UNL     1      -4.027   0.134  25.267  0.00  0.00    +0.307 C 
ATOM     18  C   UNL     1      -0.286   3.354  24.631  0.00  0.00    +0.015 A 
ATOM     19  C   UNL     1      -0.702   3.285  23.366  0.00  0.00    +0.071 A 
ATOM     34  H   UNL     1      -3.659   1.184  27.025  0.00  0.00    +0.156 HD
ENDROOT
BRANCH  15  20
ATOM     20  C   UNL     1       0.262   2.349  26.878  0.00  0.00    -0.016 A 
ATOM     21  C   UNL     1       1.621   2.357  27.179  0.00  0.00    +0.012 A 
ATOM     22  C   UNL     1      -0.686   2.498  27.887  0.00  0.00    +0.012 A 
ATOM     24  C   UNL     1       2.036   2.516  28.502  0.00  0.00    +0.046 A 
ATOM     25  C   UNL     1      -0.270   2.658  29.209  0.00  0.00    +0.046 A 
ATOM     26  C   UNL     1       1.091   2.667  29.516  0.00  0.00    +0.120 A 
BRANCH  26   3
ATOM      3  O   UNL     1       1.497   2.822  30.806  0.00  0.00    -0.495 OA
ATOM     32  C   UNL     1       0.619   2.346  31.824  0.00  0.00    +0.277 C 
ENDBRANCH  26   3
ENDBRANCH  15  20
BRANCH   7  23
ATOM     23  C   UNL     1      -4.704   2.488  25.837  0.00  0.00    +0.077 A 
ATOM     27  C   UNL     1      -6.089   2.618  25.932  0.00  0.00    +0.141 A 
ATOM     28  C   UNL     1      -3.919   3.580  25.477  0.00  0.00    +0.027 A 
ATOM     29  C   UNL     1      -6.689   3.849  25.664  0.00  0.00    +0.047 A 
ATOM     30  C   UNL     1      -4.520   4.810  25.209  0.00  0.00    +0.002 A 
ATOM     31  C   UNL     1      -5.906   4.944  25.303  0.00  0.00    +0.004 A 
BRANCH  27   4
ATOM      4  O   UNL     1      -6.873   1.560  26.284  0.00  0.00    -0.493 OA
ATOM     33  C   UNL     1      -6.919   1.221  27.668  0.00  0.00    +0.277 C 
ENDBRANCH  27   4
ENDBRANCH   7  23
TORSDOF 4
ENDMDL
MODEL 2
REMARK VINA RESULT:      14.1      0.983      1.797
REMARK  Name = 7144114
REMARK  6 active torsions:
REMARK  status: ('A' for Active; 'I' for Inactive)
REMARK    1  A    between atoms: O_3  and  C_26
REMARK    2  A    between atoms: O_3  and  C_32
REMARK    3  A    between atoms: O_4  and  C_27
REMARK    4  A    between atoms: O_4  and  C_33
REMARK    5  A    between atoms: N_7  and  C_23
REMARK    6  A    between atoms: C_15  and  C_20
REMARK                            x       y       z     vdW  Elec       q    Type
REMARK                         _______ _______ _______ _____ _____    ______ ____
ROOT
ATOM      1  O   UNL     1      -1.734   1.639  21.349  0.00  0.00    -0.268 OA
ATOM      2  O   UNL     1      -4.786  -0.725  24.375  0.00  0.00    -0.252 OA
ATOM      5  N   UNL     1      -1.034   0.646  23.352  0.00  0.00    -0.311 N 
ATOM      6  N   UNL     1      -2.721  -1.103  25.348  0.00  0.00    -0.284 N 
ATOM      7  N   UNL     1      -4.046   0.728  26.022  0.00  0.00    -0.266 N 
ATOM      8  C   UNL     1      -1.069  -1.896  23.669  0.00  0.00    +0.027 C 
ATOM      9  C   UNL     1      -0.341  -0.440  25.515  0.00  0.00    +0.054 C 
ATOM     10  C   UNL     1       0.059  -1.642  24.658  0.00  0.00    +0.018 C 
ATOM     11  C   UNL     1      -1.172  -0.684  22.743  0.00  0.00    +0.130 C 
ATOM     12  C   UNL     1      -2.390  -2.176  24.406  0.00  0.00    +0.114 C 
ATOM     13  C   UNL     1      -1.635  -0.779  26.287  0.00  0.00    +0.119 C 
ATOM     14  C   UNL     1      -0.547   0.818  24.665  0.00  0.00    +0.034 A 
ATOM     15  C   UNL     1      -0.317   2.070  25.141  0.00  0.00    +0.002 A 
ATOM     16  C   UNL     1      -1.320   1.732  22.505  0.00  0.00    +0.252 A 
ATOM     17  C   UNL     1      -3.925  -0.383  25.189  0.00  0.00    +0.307 C 
ATOM     18  C   UNL     1      -0.603   3.214  24.295  0.00  0.00    +0.015 A 
ATOM     19  C   UNL     1      -1.087   3.083  23.061  0.00  0.00    +0.071 A 
ATOM     34  H   UNL     1      -3.564   0.724  26.913  0.00  0.00    +0.156 HD
ENDROOT
BRANCH  15  20
ATOM     20  C   UNL     1       0.190   2.303  26.510  0.00  0.00    -0.016 A 
ATOM     21  C   UNL     1      -0.662   2.147  27.599  0.00  0.00    +0.012 A 
ATOM     22  C   UNL     1       1.518   2.676  26.700  0.00  0.00    +0.012 A 
ATOM     24  C   UNL     1      -0.182   2.367  28.891  0.00  0.00    +0.046 A 
ATOM     25  C   UNL     1       1.997   2.895  27.992  0.00  0.00    +0.046 A 
ATOM     26  C   UNL     1       1.147   2.740  29.087  0.00  0.00    +0.120 A 
BRANCH  26   3
ATOM      3  O   UNL     1       1.614   2.955  30.347  0.00  0.00    -0.495 OA
ATOM     32  C   UNL     1       0.905   2.331  31.417  0.00  0.00    +0.277 C 
ENDBRANCH  26   3
ENDBRANCH  15  20
BRANCH   7  23
ATOM     23  C   UNL     1      -4.817   1.892  25.786  0.00  0.00    +0.077 A 
ATOM     27  C   UNL     1      -4.232   3.154  25.862  0.00  0.00    +0.141 A 
ATOM     28  C   UNL     1      -6.169   1.760  25.477  0.00  0.00    +0.027 A 
ATOM     29  C   UNL     1      -5.006   4.292  25.627  0.00  0.00    +0.047 A 
ATOM     30  C   UNL     1      -6.941   2.898  25.243  0.00  0.00    +0.002 A 
ATOM     31  C   UNL     1      -6.359   4.164  25.318  0.00  0.00    +0.004 A 
BRANCH  27   4
ATOM      4  O   UNL     1      -2.912   3.302  26.162  0.00  0.00    -0.493 OA
ATOM     33  C   UNL     1      -2.403   4.633  26.209  0.00  0.00    +0.277 C 
ENDBRANCH  27   4
ENDBRANCH   7  23
TORSDOF 4
ENDMDL
MODEL 3
REMARK VINA RESULT:      16.6      2.678      5.667
REMARK  Name = 7144114
REMARK  6 active torsions:
REMARK  status: ('A' for Active; 'I' for Inactive)
REMARK    1  A    between atoms: O_3  and  C_26
REMARK    2  A    between atoms: O_3  and  C_32
REMARK    3  A    between atoms: O_4  and  C_27
REMARK    4  A    between atoms: O_4  and  C_33
REMARK    5  A    between atoms: N_7  and  C_23
REMARK    6  A    between atoms: C_15  and  C_20
REMARK                            x       y       z     vdW  Elec       q    Type
REMARK                         _______ _______ _______ _____ _____    ______ ____
ROOT
ATOM      1  O   UNL     1      -2.817   3.609  27.601  0.00  0.00    -0.268 OA
ATOM      2  O   UNL     1      -5.214   0.861  24.321  0.00  0.00    -0.252 OA
ATOM      5  N   UNL     1      -2.106   3.354  25.384  0.00  0.00    -0.311 N 
ATOM      6  N   UNL     1      -3.560   1.846  23.038  0.00  0.00    -0.284 N 
ATOM      7  N   UNL     1      -3.213  -0.269  24.022  0.00  0.00    -0.266 N 
ATOM      8  C   UNL     1      -3.463   4.299  23.427  0.00  0.00    +0.027 C 
ATOM      9  C   UNL     1      -1.393   3.043  22.990  0.00  0.00    +0.054 C 
ATOM     10  C   UNL     1      -2.120   4.359  22.715  0.00  0.00    +0.018 C 
ATOM     11  C   UNL     1      -3.202   4.222  24.931  0.00  0.00    +0.130 C 
ATOM     12  C   UNL     1      -4.296   3.107  22.923  0.00  0.00    +0.114 C 
ATOM     13  C   UNL     1      -2.226   1.876  22.416  0.00  0.00    +0.119 C 
ATOM     14  C   UNL     1      -1.149   2.832  24.489  0.00  0.00    +0.034 A 
ATOM     15  C   UNL     1      -0.083   2.138  24.968  0.00  0.00    +0.002 A 
ATOM     16  C   UNL     1      -2.019   3.166  26.775  0.00  0.00    +0.252 A 
ATOM     17  C   UNL     1      -4.081   0.805  23.837  0.00  0.00    +0.307 C 
ATOM     18  C   UNL     1       0.037   1.924  26.397  0.00  0.00    +0.015 A 
ATOM     19  C   UNL     1      -0.864   2.383  27.266  0.00  0.00    +0.071 A 
ATOM     34  H   UNL     1      -2.523  -0.468  23.308  0.00  0.00    +0.156 HD
ENDROOT
BRANCH  15  20
ATOM     20  C   UNL     1       0.944   1.569  24.070  0.00  0.00    -0.016 A 
ATOM     21  C   UNL     1       2.105   2.290  23.803  0.00  0.00    +0.012 A 
ATOM     22  C   UNL     1       0.745   0.315  23.500  0.00  0.00    +0.012 A 
ATOM     24  C   UNL     1       3.074   1.751  22.956  0.00  0.00    +0.046 A 
ATOM     25  C   UNL     1       1.715  -0.223  22.654  0.00  0.00    +0.046 A 
ATOM     26  C   UNL     1       2.879   0.495  22.383  0.00  0.00    +0.120 A 
BRANCH  26   3
ATOM      3  O   UNL     1       3.826  -0.029  21.557  0.00  0.00    -0.495 OA
ATOM     32  C   UNL     1       5.149  -0.145  22.077  0.00  0.00    +0.277 C 
ENDBRANCH  26   3
ENDBRANCH  15  20
BRANCH   7  23
ATOM     23  C   UNL     1      -3.197  -1.176  25.109  0.00  0.00    +0.077 A 
ATOM     27  C   UNL     1      -3.340  -2.545  24.890  0.00  0.00    +0.141 A 
ATOM     28  C   UNL     1      -3.037  -0.684  26.403  0.00  0.00    +0.027 A 
ATOM     29  C   UNL     1      -3.323  -3.426  25.972  0.00  0.00    +0.047 A 
ATOM     30  C   UNL     1      -3.020  -1.566  27.484  0.00  0.00    +0.002 A 
ATOM     31  C   UNL     1      -3.163  -2.937  27.268  0.00  0.00    +0.004 A 
BRANCH  27   4
ATOM      4  O   UNL     1      -3.497  -3.044  23.632  0.00  0.00    -0.493 OA
ATOM     33  C   UNL     1      -4.802  -2.967  23.063  0.00  0.00    +0.277 C 
ENDBRANCH  27   4
ENDBRANCH   7  23
TORSDOF 4
ENDMDL
