MODEL 1
REMARK VINA RESULT:       7.0      0.000      0.000
REMARK  Name = 11882072
REMARK  11 active torsions:
REMARK  status: ('A' for Active; 'I' for Inactive)
REMARK    1  A    between atoms: O_6  and  C_35
REMARK    2  A    between atoms: O_6  and  C_38
REMARK    3  A    between atoms: N_8  and  C_13
REMARK    4  A    between atoms: N_9  and  C_20
REMARK    5  A    between atoms: N_10  and  C_28
REMARK    6  A    between atoms: N_11  and  C_29
REMARK    7  A    between atoms: C_14  and  C_17
REMARK    8  A    between atoms: C_18  and  C_19
REMARK    9  A    between atoms: C_20  and  C_22
REMARK   10  A    between atoms: C_20  and  C_24
REMARK   11  A    between atoms: C_22  and  C_27
REMARK                            x       y       z     vdW  Elec       q    Type
REMARK                         _______ _______ _______ _____ _____    ______ ____
ROOT
ATOM      3  O   UNL     1      -2.185  -0.632  26.298  0.00  0.00    -0.268 OA
ATOM      7  N   UNL     1      -2.306   0.561  24.327  0.00  0.00    -0.283 N 
ATOM     13  C   UNL     1      -1.224   2.529  23.568  0.00  0.00    +0.105 C 
ATOM     14  C   UNL     1      -1.563   1.718  24.818  0.00  0.00    +0.182 C 
ATOM     15  C   UNL     1      -2.360   2.183  22.602  0.00  0.00    +0.043 C 
ATOM     16  C   UNL     1      -2.669   0.726  22.919  0.00  0.00    +0.111 C 
ATOM     18  C   UNL     1      -2.522  -0.574  25.115  0.00  0.00    +0.264 C 
ENDROOT
BRANCH  13   8
ATOM      4  O   UNL     1       0.673   0.745  24.761  0.00  0.00    -0.252 OA
ATOM      8  N   UNL     1       0.056   2.140  23.024  0.00  0.00    -0.294 N 
ATOM     11  N   UNL     1       2.084   1.070  22.913  0.00  0.00    -0.269 N 
ATOM     21  C   UNL     1       0.927   1.259  23.674  0.00  0.00    +0.304 C 
ATOM     39  H   UNL     1       0.310   2.470  22.097  0.00  0.00    +0.151 HD
ATOM     41  H   UNL     1       2.138   1.575  22.032  0.00  0.00    +0.156 HD
BRANCH  11  29
ATOM     29  C   UNL     1       3.201   0.259  23.218  0.00  0.00    +0.038 A 
ATOM     31  C   UNL     1       4.487   0.801  23.181  0.00  0.00    +0.069 A 
ATOM     32  C   UNL     1       3.019  -1.082  23.555  0.00  0.00    +0.023 A 
ATOM     35  C   UNL     1       5.589   0.000  23.482  0.00  0.00    +0.122 A 
ATOM     36  C   UNL     1       4.121  -1.882  23.855  0.00  0.00    +0.005 A 
ATOM     37  C   UNL     1       5.407  -1.341  23.820  0.00  0.00    +0.046 A 
BRANCH  35   6
ATOM      6  O   UNL     1       6.843   0.528  23.446  0.00  0.00    -0.495 OA
ATOM     38  C   UNL     1       7.903  -0.344  23.055  0.00  0.00    +0.277 C 
ENDBRANCH  35   6
ENDBRANCH  11  29
ENDBRANCH  13   8
BRANCH  18  19
ATOM     10  N   UNL     1      -2.592  -2.864  24.106  0.00  0.00    -0.346 N 
ATOM     19  C   UNL     1      -3.200  -1.692  24.472  0.00  0.00    +0.104 A 
ATOM     23  C   UNL     1      -4.530  -1.779  24.123  0.00  0.00    +0.032 A 
ATOM     25  C   UNL     1      -3.513  -3.699  23.529  0.00  0.00    +0.086 A 
ATOM     26  C   UNL     1      -4.728  -3.049  23.527  0.00  0.00    +0.020 A 
ATOM     28  C   UNL     1      -1.195  -3.189  24.292  0.00  0.00    +0.149 C 
ENDBRANCH  18  19
BRANCH  14  17
ATOM      2  O   UNL     1      -2.076   3.136  26.670  0.00  0.00    -0.274 OA
ATOM      9  N   UNL     1      -3.819   2.312  25.366  0.00  0.00    -0.302 N 
ATOM     17  C   UNL     1      -2.491   2.475  25.722  0.00  0.00    +0.236 C 
ATOM     40  H   UNL     1      -4.049   1.674  24.608  0.00  0.00    +0.150 HD
BRANCH   9  20
ATOM     20  C   UNL     1      -4.912   2.918  26.091  0.00  0.00    +0.163 C 
BRANCH  20  24
ATOM      5  O   UNL     1      -6.485   1.689  24.706  0.00  0.00    -0.274 OA
ATOM     12  N   UNL     1      -6.828   1.740  26.976  0.00  0.00    -0.328 N 
ATOM     24  C   UNL     1      -6.149   2.073  25.823  0.00  0.00    +0.231 C 
ATOM     42  H   UNL     1      -7.663   1.165  26.940  0.00  0.00    +0.145 HD
ATOM     43  H   UNL     1      -6.537   2.062  27.894  0.00  0.00    +0.145 HD
ENDBRANCH  20  24
BRANCH  20  22
ATOM     22  C   UNL     1      -5.155   4.372  25.667  0.00  0.00    +0.074 C 
BRANCH  22  27
ATOM      1  S   UNL     1      -3.744   5.363  23.479  0.00  0.00    -0.102 S 
ATOM     27  C   UNL     1      -3.901   5.038  25.153  0.00  0.00    -0.008 A 
ATOM     30  C   UNL     1      -2.797   5.451  25.865  0.00  0.00    +0.011 A 
ATOM     33  C   UNL     1      -1.808   6.042  25.026  0.00  0.00    +0.008 A 
ATOM     34  C   UNL     1      -2.194   6.057  23.704  0.00  0.00    +0.045 A 
ENDBRANCH  22  27
ENDBRANCH  20  22
ENDBRANCH   9  20
ENDBRANCH  14  17
TORSDOF 9
ENDMDL
MODEL 2
REMARK VINA RESULT:       8.2      1.615      2.701
REMARK  Name = 11882072
REMARK  11 active torsions:
REMARK  status: ('A' for Active; 'I' for Inactive)
REMARK    1  A    between atoms: O_6  and  C_35
REMARK    2  A    between atoms: O_6  and  C_38
REMARK    3  A    between atoms: N_8  and  C_13
REMARK    4  A    between atoms: N_9  and  C_20
REMARK    5  A    between atoms: N_10  and  C_28
REMARK    6  A    between atoms: N_11  and  C_29
REMARK    7  A    between atoms: C_14  and  C_17
REMARK    8  A    between atoms: C_18  and  C_19
REMARK    9  A    between atoms: C_20  and  C_22
REMARK   10  A    between atoms: C_20  and  C_24
REMARK   11  A    between atoms: C_22  and  C_27
REMARK                            x       y       z     vdW  Elec       q    Type
REMARK                         _______ _______ _______ _____ _____    ______ ____
ROOT
ATOM      3  O   UNL     1      -1.662  -0.103  26.366  0.00  0.00    -0.268 OA
ATOM      7  N   UNL     1      -1.707   0.728  24.214  0.00  0.00    -0.283 N 
ATOM     13  C   UNL     1      -0.371   2.324  23.078  0.00  0.00    +0.105 C 
ATOM     14  C   UNL     1      -0.762   1.813  24.464  0.00  0.00    +0.182 C 
ATOM     15  C   UNL     1      -1.602   2.008  22.224  0.00  0.00    +0.043 C 
ATOM     16  C   UNL     1      -2.119   0.701  22.811  0.00  0.00    +0.111 C 
ATOM     18  C   UNL     1      -2.054  -0.199  25.201  0.00  0.00    +0.264 C 
ENDROOT
BRANCH  13   8
ATOM      4  O   UNL     1       1.747   1.189  24.637  0.00  0.00    -0.252 OA
ATOM      8  N   UNL     1       0.796   1.638  22.578  0.00  0.00    -0.294 N 
ATOM     11  N   UNL     1       2.792   0.506  22.649  0.00  0.00    -0.269 N 
ATOM     21  C   UNL     1       1.789   1.110  23.412  0.00  0.00    +0.304 C 
ATOM     39  H   UNL     1       0.871   1.472  21.579  0.00  0.00    +0.151 HD
ATOM     41  H   UNL     1       2.675   0.529  21.640  0.00  0.00    +0.156 HD
BRANCH  11  29
ATOM     29  C   UNL     1       3.963  -0.140  23.111  0.00  0.00    +0.038 A 
ATOM     31  C   UNL     1       5.195   0.511  23.033  0.00  0.00    +0.069 A 
ATOM     32  C   UNL     1       3.887  -1.427  23.642  0.00  0.00    +0.023 A 
ATOM     35  C   UNL     1       6.350  -0.126  23.487  0.00  0.00    +0.122 A 
ATOM     36  C   UNL     1       5.042  -2.064  24.097  0.00  0.00    +0.005 A 
ATOM     37  C   UNL     1       6.274  -1.413  24.020  0.00  0.00    +0.046 A 
BRANCH  35   6
ATOM      6  O   UNL     1       7.552   0.508  23.412  0.00  0.00    -0.495 OA
ATOM     38  C   UNL     1       8.680  -0.282  23.038  0.00  0.00    +0.277 C 
ENDBRANCH  35   6
ENDBRANCH  11  29
ENDBRANCH  13   8
BRANCH  18  19
ATOM     10  N   UNL     1      -2.528  -2.566  24.540  0.00  0.00    -0.346 N 
ATOM     19  C   UNL     1      -2.937  -1.284  24.793  0.00  0.00    +0.104 A 
ATOM     23  C   UNL     1      -4.299  -1.227  24.592  0.00  0.00    +0.032 A 
ATOM     25  C   UNL     1      -3.608  -3.330  24.180  0.00  0.00    +0.086 A 
ATOM     26  C   UNL     1      -4.723  -2.522  24.205  0.00  0.00    +0.020 A 
ATOM     28  C   UNL     1      -1.171  -3.057  24.632  0.00  0.00    +0.149 C 
ENDBRANCH  18  19
BRANCH  14  17
ATOM      2  O   UNL     1      -1.408   2.952  26.461  0.00  0.00    -0.274 OA
ATOM      9  N   UNL     1      -2.290   3.658  24.427  0.00  0.00    -0.302 N 
ATOM     17  C   UNL     1      -1.503   2.861  25.241  0.00  0.00    +0.236 C 
ATOM     40  H   UNL     1      -2.352   3.437  23.436  0.00  0.00    +0.150 HD
BRANCH   9  20
ATOM     20  C   UNL     1      -3.121   4.727  24.932  0.00  0.00    +0.163 C 
BRANCH  20  24
ATOM      5  O   UNL     1      -2.562   6.902  25.859  0.00  0.00    -0.274 OA
ATOM     12  N   UNL     1      -0.896   5.670  24.869  0.00  0.00    -0.328 N 
ATOM     24  C   UNL     1      -2.198   5.891  25.264  0.00  0.00    +0.231 C 
ATOM     42  H   UNL     1      -0.174   6.362  25.045  0.00  0.00    +0.145 HD
ATOM     43  H   UNL     1      -0.608   4.828  24.381  0.00  0.00    +0.145 HD
ENDBRANCH  20  24
BRANCH  20  22
ATOM     22  C   UNL     1      -3.920   4.307  26.171  0.00  0.00    +0.074 C 
BRANCH  22  27
ATOM      1  S   UNL     1      -5.049   2.611  24.271  0.00  0.00    -0.102 S 
ATOM     27  C   UNL     1      -4.917   3.214  25.869  0.00  0.00    -0.008 A 
ATOM     30  C   UNL     1      -5.791   2.588  26.731  0.00  0.00    +0.011 A 
ATOM     33  C   UNL     1      -6.579   1.600  26.072  0.00  0.00    +0.008 A 
ATOM     34  C   UNL     1      -6.278   1.510  24.731  0.00  0.00    +0.045 A 
ENDBRANCH  22  27
ENDBRANCH  20  22
ENDBRANCH   9  20
ENDBRANCH  14  17
TORSDOF 9
ENDMDL
MODEL 3
REMARK VINA RESULT:       9.7      2.439      4.820
REMARK  Name = 11882072
REMARK  11 active torsions:
REMARK  status: ('A' for Active; 'I' for Inactive)
REMARK    1  A    between atoms: O_6  and  C_35
REMARK    2  A    between atoms: O_6  and  C_38
REMARK    3  A    between atoms: N_8  and  C_13
REMARK    4  A    between atoms: N_9  and  C_20
REMARK    5  A    between atoms: N_10  and  C_28
REMARK    6  A    between atoms: N_11  and  C_29
REMARK    7  A    between atoms: C_14  and  C_17
REMARK    8  A    between atoms: C_18  and  C_19
REMARK    9  A    between atoms: C_20  and  C_22
REMARK   10  A    between atoms: C_20  and  C_24
REMARK   11  A    between atoms: C_22  and  C_27
REMARK                            x       y       z     vdW  Elec       q    Type
REMARK                         _______ _______ _______ _____ _____    ______ ____
ROOT
ATOM      3  O   UNL     1      -0.393   3.780  24.444  0.00  0.00    -0.268 OA
ATOM      7  N   UNL     1      -0.451   1.474  24.464  0.00  0.00    -0.283 N 
ATOM     13  C   UNL     1      -0.406  -0.152  22.739  0.00  0.00    +0.105 C 
ATOM     14  C   UNL     1      -0.662   1.327  23.027  0.00  0.00    +0.182 C 
ATOM     15  C   UNL     1      -0.771  -0.838  24.058  0.00  0.00    +0.043 C 
ATOM     16  C   UNL     1      -0.339   0.169  25.117  0.00  0.00    +0.111 C 
ATOM     18  C   UNL     1      -0.281   2.723  25.067  0.00  0.00    +0.264 C 
ENDROOT
BRANCH  13   8
ATOM      4  O   UNL     1       1.893   0.848  24.124  0.00  0.00    -0.252 OA
ATOM      8  N   UNL     1       0.977  -0.387  22.398  0.00  0.00    -0.294 N 
ATOM     11  N   UNL     1       3.262  -0.252  22.567  0.00  0.00    -0.269 N 
ATOM     21  C   UNL     1       2.045   0.141  23.131  0.00  0.00    +0.304 C 
ATOM     39  H   UNL     1       1.187  -1.016  21.628  0.00  0.00    +0.151 HD
ATOM     41  H   UNL     1       3.213  -0.840  21.738  0.00  0.00    +0.156 HD
BRANCH  11  29
ATOM     29  C   UNL     1       4.567   0.069  23.007  0.00  0.00    +0.038 A 
ATOM     31  C   UNL     1       5.669  -0.592  22.462  0.00  0.00    +0.069 A 
ATOM     32  C   UNL     1       4.753   1.044  23.986  0.00  0.00    +0.023 A 
ATOM     35  C   UNL     1       6.956  -0.276  22.897  0.00  0.00    +0.122 A 
ATOM     36  C   UNL     1       6.041   1.361  24.421  0.00  0.00    +0.005 A 
ATOM     37  C   UNL     1       7.143   0.701  23.875  0.00  0.00    +0.046 A 
BRANCH  35   6
ATOM      6  O   UNL     1       8.032  -0.919  22.366  0.00  0.00    -0.495 OA
ATOM     38  C   UNL     1       9.324  -0.437  22.734  0.00  0.00    +0.277 C 
ENDBRANCH  35   6
ENDBRANCH  11  29
ENDBRANCH  13   8
BRANCH  18  19
ATOM     10  N   UNL     1      -0.894   3.031  27.475  0.00  0.00    -0.346 N 
ATOM     19  C   UNL     1       0.011   2.721  26.495  0.00  0.00    +0.104 A 
ATOM     23  C   UNL     1       1.209   2.421  27.106  0.00  0.00    +0.032 A 
ATOM     25  C   UNL     1      -0.293   2.932  28.703  0.00  0.00    +0.086 A 
ATOM     26  C   UNL     1       1.016   2.554  28.503  0.00  0.00    +0.020 A 
ATOM     28  C   UNL     1      -2.275   3.405  27.266  0.00  0.00    +0.149 C 
ENDBRANCH  18  19
BRANCH  14  17
ATOM      2  O   UNL     1      -2.484   2.001  21.638  0.00  0.00    -0.274 OA
ATOM      9  N   UNL     1      -2.865   1.658  23.908  0.00  0.00    -0.302 N 
ATOM     17  C   UNL     1      -2.092   1.693  22.760  0.00  0.00    +0.236 C 
ATOM     40  H   UNL     1      -2.413   1.465  24.798  0.00  0.00    +0.150 HD
BRANCH   9  20
ATOM     20  C   UNL     1      -4.271   1.991  23.925  0.00  0.00    +0.163 C 
BRANCH  20  24
ATOM      5  O   UNL     1      -3.690   4.336  24.184  0.00  0.00    -0.274 OA
ATOM     12  N   UNL     1      -5.411   3.486  25.445  0.00  0.00    -0.328 N 
ATOM     24  C   UNL     1      -4.392   3.386  24.521  0.00  0.00    +0.231 C 
ATOM     42  H   UNL     1      -5.611   4.367  25.906  0.00  0.00    +0.145 HD
ATOM     43  H   UNL     1      -5.987   2.693  25.711  0.00  0.00    +0.145 HD
ENDBRANCH  20  24
BRANCH  20  22
ATOM     22  C   UNL     1      -5.097   0.988  24.740  0.00  0.00    +0.074 C 
BRANCH  22  27
ATOM      1  S   UNL     1      -3.684  -0.991  26.100  0.00  0.00    -0.102 S 
ATOM     27  C   UNL     1      -4.501  -0.400  24.716  0.00  0.00    -0.008 A 
ATOM     30  C   UNL     1      -4.515  -1.321  23.692  0.00  0.00    +0.011 A 
ATOM     33  C   UNL     1      -3.845  -2.528  24.047  0.00  0.00    +0.008 A 
ATOM     34  C   UNL     1      -3.345  -2.483  25.330  0.00  0.00    +0.045 A 
ENDBRANCH  22  27
ENDBRANCH  20  22
ENDBRANCH   9  20
ENDBRANCH  14  17
TORSDOF 9
ENDMDL
MODEL 4
REMARK VINA RESULT:       9.9      0.879      1.659
REMARK  Name = 11882072
REMARK  11 active torsions:
REMARK  status: ('A' for Active; 'I' for Inactive)
REMARK    1  A    between atoms: O_6  and  C_35
REMARK    2  A    between atoms: O_6  and  C_38
REMARK    3  A    between atoms: N_8  and  C_13
REMARK    4  A    between atoms: N_9  and  C_20
REMARK    5  A    between atoms: N_10  and  C_28
REMARK    6  A    between atoms: N_11  and  C_29
REMARK    7  A    between atoms: C_14  and  C_17
REMARK    8  A    between atoms: C_18  and  C_19
REMARK    9  A    between atoms: C_20  and  C_22
REMARK   10  A    between atoms: C_20  and  C_24
REMARK   11  A    between atoms: C_22  and  C_27
REMARK                            x       y       z     vdW  Elec       q    Type
REMARK                         _______ _______ _______ _____ _____    ______ ____
ROOT
ATOM      3  O   UNL     1      -1.864  -0.696  26.378  0.00  0.00    -0.268 OA
ATOM      7  N   UNL     1      -2.155   0.439  24.391  0.00  0.00    -0.283 N 
ATOM     13  C   UNL     1      -1.200   2.426  23.519  0.00  0.00    +0.105 C 
ATOM     14  C   UNL     1      -1.429   1.635  24.807  0.00  0.00    +0.182 C 
ATOM     15  C   UNL     1      -2.380   2.012  22.635  0.00  0.00    +0.043 C 
ATOM     16  C   UNL     1      -2.611   0.553  23.006  0.00  0.00    +0.111 C 
ATOM     18  C   UNL     1      -2.276  -0.682  25.217  0.00  0.00    +0.264 C 
ENDROOT
BRANCH  13   8
ATOM      4  O   UNL     1       1.096   1.325  24.829  0.00  0.00    -0.252 OA
ATOM      8  N   UNL     1       0.057   2.072  22.904  0.00  0.00    -0.294 N 
ATOM     11  N   UNL     1       2.212   1.294  22.764  0.00  0.00    -0.269 N 
ATOM     21  C   UNL     1       1.133   1.536  23.619  0.00  0.00    +0.304 C 
ATOM     39  H   UNL     1       0.144   2.154  21.895  0.00  0.00    +0.151 HD
ATOM     41  H   UNL     1       2.079   1.529  21.783  0.00  0.00    +0.156 HD
BRANCH  11  29
ATOM     29  C   UNL     1       3.479   0.759  23.094  0.00  0.00    +0.038 A 
ATOM     31  C   UNL     1       3.614  -0.605  23.354  0.00  0.00    +0.069 A 
ATOM     32  C   UNL     1       4.593   1.595  23.161  0.00  0.00    +0.023 A 
ATOM     35  C   UNL     1       4.863  -1.133  23.679  0.00  0.00    +0.122 A 
ATOM     36  C   UNL     1       5.843   1.068  23.487  0.00  0.00    +0.005 A 
ATOM     37  C   UNL     1       5.978  -0.297  23.746  0.00  0.00    +0.046 A 
BRANCH  35   6
ATOM      6  O   UNL     1       4.996  -2.463  23.933  0.00  0.00    -0.495 OA
ATOM     38  C   UNL     1       3.889  -3.121  24.548  0.00  0.00    +0.277 C 
ENDBRANCH  35   6
ENDBRANCH  11  29
ENDBRANCH  13   8
BRANCH  18  19
ATOM     10  N   UNL     1      -4.249  -1.855  24.217  0.00  0.00    -0.346 N 
ATOM     19  C   UNL     1      -2.948  -1.842  24.646  0.00  0.00    +0.104 A 
ATOM     23  C   UNL     1      -2.421  -3.098  24.437  0.00  0.00    +0.032 A 
ATOM     25  C   UNL     1      -4.562  -3.100  23.738  0.00  0.00    +0.086 A 
ATOM     26  C   UNL     1      -3.443  -3.894  23.862  0.00  0.00    +0.020 A 
ATOM     28  C   UNL     1      -5.166  -0.738  24.257  0.00  0.00    +0.149 C 
ENDBRANCH  18  19
BRANCH  14  17
ATOM      2  O   UNL     1      -1.896   2.922  26.763  0.00  0.00    -0.274 OA
ATOM      9  N   UNL     1      -3.650   2.352  25.345  0.00  0.00    -0.302 N 
ATOM     17  C   UNL     1      -2.327   2.380  25.750  0.00  0.00    +0.236 C 
ATOM     40  H   UNL     1      -3.902   1.803  24.527  0.00  0.00    +0.150 HD
BRANCH   9  20
ATOM     20  C   UNL     1      -4.719   2.976  26.091  0.00  0.00    +0.163 C 
BRANCH  20  24
ATOM      5  O   UNL     1      -6.396   1.992  24.633  0.00  0.00    -0.274 OA
ATOM     12  N   UNL     1      -6.626   1.731  26.904  0.00  0.00    -0.328 N 
ATOM     24  C   UNL     1      -5.994   2.207  25.774  0.00  0.00    +0.231 C 
ATOM     42  H   UNL     1      -7.479   1.187  26.832  0.00  0.00    +0.145 HD
ATOM     43  H   UNL     1      -6.280   1.913  27.841  0.00  0.00    +0.145 HD
ENDBRANCH  20  24
BRANCH  20  22
ATOM     22  C   UNL     1      -4.887   4.459  25.738  0.00  0.00    +0.074 C 
BRANCH  22  27
ATOM      1  S   UNL     1      -3.549   5.453  23.506  0.00  0.00    -0.102 S 
ATOM     27  C   UNL     1      -3.624   5.061  25.172  0.00  0.00    -0.008 A 
ATOM     30  C   UNL     1      -2.450   5.363  25.826  0.00  0.00    +0.011 A 
ATOM     33  C   UNL     1      -1.476   5.924  24.950  0.00  0.00    +0.008 A 
ATOM     34  C   UNL     1      -1.943   6.028  23.658  0.00  0.00    +0.045 A 
ENDBRANCH  22  27
ENDBRANCH  20  22
ENDBRANCH   9  20
ENDBRANCH  14  17
TORSDOF 9
ENDMDL
