MODEL 1
REMARK VINA RESULT:      -5.3      0.000      0.000
REMARK  Name = 75367701
REMARK  3 active torsions:
REMARK  status: ('A' for Active; 'I' for Inactive)
REMARK    1  A    between atoms: O_2  and  C_7
REMARK    2  A    between atoms: O_2  and  C_14
REMARK    3  A    between atoms: C_12  and  C_13
REMARK                            x       y       z     vdW  Elec       q    Type
REMARK                         _______ _______ _______ _____ _____    ______ ____
ROOT
ATOM      1  O   UNL     1       1.142  -0.417  23.388  0.00  0.00    -0.375 OA
ATOM      3  O   UNL     1      -0.462   4.117  23.798  0.00  0.00    -0.270 OA
ATOM      4  N   UNL     1      -0.327   1.986  24.763  0.00  0.00    -0.292 N 
ATOM      7  C   UNL     1      -0.385  -0.511  25.290  0.00  0.00    +0.216 C 
ATOM      8  C   UNL     1      -0.996   0.882  25.461  0.00  0.00    +0.155 C 
ATOM      9  C   UNL     1       1.077   1.818  24.383  0.00  0.00    +0.136 C 
ATOM     10  C   UNL     1      -0.131  -0.882  23.830  0.00  0.00    +0.206 C 
ATOM     11  C   UNL     1       1.206   0.979  23.118  0.00  0.00    +0.179 C 
ATOM     12  C   UNL     1      -0.976   3.181  24.410  0.00  0.00    +0.247 C 
ENDROOT
BRANCH  12  13
ATOM      6  N   UNL     1      -5.065   3.664  25.524  0.00  0.00    -0.263 NA
ATOM     13  C   UNL     1      -2.386   3.349  24.794  0.00  0.00    +0.040 A 
ATOM     15  C   UNL     1      -2.714   3.999  25.978  0.00  0.00    +0.033 A 
ATOM     16  C   UNL     1      -3.395   2.856  23.974  0.00  0.00    +0.033 A 
ATOM     19  C   UNL     1      -4.057   4.129  26.295  0.00  0.00    +0.111 A 
ATOM     20  C   UNL     1      -4.707   3.038  24.380  0.00  0.00    +0.111 A 
ENDBRANCH  12  13
BRANCH   7   2
ATOM      2  O   UNL     1      -1.312  -1.441  25.851  0.00  0.00    -0.483 OA
BRANCH   2  14
ATOM      5  N   UNL     1      -3.840  -3.190  23.872  0.00  0.00    -0.260 NA
ATOM     14  C   UNL     1      -2.460  -1.664  25.141  0.00  0.00    +0.139 A 
ATOM     17  C   UNL     1      -3.396  -0.652  24.957  0.00  0.00    +0.049 A 
ATOM     18  C   UNL     1      -2.726  -2.904  24.584  0.00  0.00    +0.156 A 
ATOM     21  C   UNL     1      -4.554  -0.908  24.231  0.00  0.00    +0.023 A 
ATOM     22  C   UNL     1      -4.728  -2.182  23.715  0.00  0.00    +0.111 A 
ENDBRANCH   2  14
ENDBRANCH   7   2
TORSDOF 3
ENDMDL
MODEL 2
REMARK VINA RESULT:      -5.1      1.451      4.928
REMARK  Name = 75367701
REMARK  3 active torsions:
REMARK  status: ('A' for Active; 'I' for Inactive)
REMARK    1  A    between atoms: O_2  and  C_7
REMARK    2  A    between atoms: O_2  and  C_14
REMARK    3  A    between atoms: C_12  and  C_13
REMARK                            x       y       z     vdW  Elec       q    Type
REMARK                         _______ _______ _______ _____ _____    ______ ____
ROOT
ATOM      1  O   UNL     1      -0.353   3.646  25.597  0.00  0.00    -0.375 OA
ATOM      3  O   UNL     1       0.170  -1.108  24.941  0.00  0.00    -0.270 OA
ATOM      4  N   UNL     1      -0.842   0.876  24.214  0.00  0.00    -0.292 N 
ATOM      7  C   UNL     1      -2.101   3.086  23.989  0.00  0.00    +0.216 C 
ATOM      8  C   UNL     1      -2.052   1.572  23.762  0.00  0.00    +0.155 C 
ATOM      9  C   UNL     1       0.386   1.655  24.380  0.00  0.00    +0.136 C 
ATOM     10  C   UNL     1      -1.758   3.491  25.421  0.00  0.00    +0.206 C 
ATOM     11  C   UNL     1       0.374   2.425  25.694  0.00  0.00    +0.179 C 
ATOM     12  C   UNL     1      -0.813  -0.492  24.530  0.00  0.00    +0.247 C 
ENDROOT
BRANCH  12  13
ATOM      6  N   UNL     1      -4.393  -2.762  24.045  0.00  0.00    -0.263 NA
ATOM     13  C   UNL     1      -2.047  -1.274  24.361  0.00  0.00    +0.040 A 
ATOM     15  C   UNL     1      -3.240  -0.636  24.043  0.00  0.00    +0.033 A 
ATOM     16  C   UNL     1      -2.025  -2.656  24.521  0.00  0.00    +0.033 A 
ATOM     19  C   UNL     1      -4.375  -1.418  23.898  0.00  0.00    +0.111 A 
ATOM     20  C   UNL     1      -3.213  -3.347  24.354  0.00  0.00    +0.111 A 
ENDBRANCH  12  13
BRANCH   7   2
ATOM      2  O   UNL     1      -3.434   3.505  23.693  0.00  0.00    -0.483 OA
BRANCH   2  14
ATOM      5  N   UNL     1      -5.577   3.180  26.636  0.00  0.00    -0.260 NA
ATOM     14  C   UNL     1      -4.419   3.040  24.518  0.00  0.00    +0.139 A 
ATOM     17  C   UNL     1      -5.249   1.995  24.125  0.00  0.00    +0.049 A 
ATOM     18  C   UNL     1      -4.622   3.593  25.772  0.00  0.00    +0.156 A 
ATOM     21  C   UNL     1      -6.243   1.542  24.986  0.00  0.00    +0.023 A 
ATOM     22  C   UNL     1      -6.365   2.163  26.218  0.00  0.00    +0.111 A 
ENDBRANCH   2  14
ENDBRANCH   7   2
TORSDOF 3
ENDMDL
MODEL 3
REMARK VINA RESULT:      -5.1      1.861      5.181
REMARK  Name = 75367701
REMARK  3 active torsions:
REMARK  status: ('A' for Active; 'I' for Inactive)
REMARK    1  A    between atoms: O_2  and  C_7
REMARK    2  A    between atoms: O_2  and  C_14
REMARK    3  A    between atoms: C_12  and  C_13
REMARK                            x       y       z     vdW  Elec       q    Type
REMARK                         _______ _______ _______ _____ _____    ______ ____
ROOT
ATOM      1  O   UNL     1      -2.602   4.839  24.449  0.00  0.00    -0.375 OA
ATOM      3  O   UNL     1      -5.949   1.379  24.813  0.00  0.00    -0.270 OA
ATOM      4  N   UNL     1      -3.844   2.155  25.489  0.00  0.00    -0.292 N 
ATOM      7  C   UNL     1      -1.456   3.046  25.644  0.00  0.00    +0.216 C 
ATOM      8  C   UNL     1      -2.429   1.869  25.755  0.00  0.00    +0.155 C 
ATOM      9  C   UNL     1      -4.310   3.537  25.623  0.00  0.00    +0.136 C 
ATOM     10  C   UNL     1      -1.604   3.828  24.341  0.00  0.00    +0.206 C 
ATOM     11  C   UNL     1      -3.942   4.361  24.397  0.00  0.00    +0.179 C 
ATOM     12  C   UNL     1      -4.764   1.177  25.077  0.00  0.00    +0.247 C 
ENDROOT
BRANCH  12  13
ATOM      6  N   UNL     1      -3.406  -2.849  24.694  0.00  0.00    -0.263 NA
ATOM     13  C   UNL     1      -4.294  -0.211  24.944  0.00  0.00    +0.040 A 
ATOM     15  C   UNL     1      -4.440  -0.884  23.737  0.00  0.00    +0.033 A 
ATOM     16  C   UNL     1      -3.705  -0.854  26.027  0.00  0.00    +0.033 A 
ATOM     19  C   UNL     1      -3.984  -2.191  23.665  0.00  0.00    +0.111 A 
ATOM     20  C   UNL     1      -3.282  -2.162  25.853  0.00  0.00    +0.111 A 
ENDBRANCH  12  13
BRANCH   7   2
ATOM      2  O   UNL     1      -0.138   2.500  25.713  0.00  0.00    -0.483 OA
BRANCH   2  14
ATOM      5  N   UNL     1       1.406   0.612  22.990  0.00  0.00    -0.260 NA
ATOM     14  C   UNL     1       0.139   1.464  24.865  0.00  0.00    +0.139 A 
ATOM     17  C   UNL     1      -0.519   0.244  24.984  0.00  0.00    +0.049 A 
ATOM     18  C   UNL     1       1.085   1.596  23.860  0.00  0.00    +0.156 A 
ATOM     21  C   UNL     1      -0.215  -0.792  24.107  0.00  0.00    +0.023 A 
ATOM     22  C   UNL     1       0.746  -0.559  23.137  0.00  0.00    +0.111 A 
ENDBRANCH   2  14
ENDBRANCH   7   2
TORSDOF 3
ENDMDL
MODEL 4
REMARK VINA RESULT:      -4.7      1.820      4.837
REMARK  Name = 75367701
REMARK  3 active torsions:
REMARK  status: ('A' for Active; 'I' for Inactive)
REMARK    1  A    between atoms: O_2  and  C_7
REMARK    2  A    between atoms: O_2  and  C_14
REMARK    3  A    between atoms: C_12  and  C_13
REMARK                            x       y       z     vdW  Elec       q    Type
REMARK                         _______ _______ _______ _____ _____    ______ ____
ROOT
ATOM      1  O   UNL     1      -4.336  -2.826  23.854  0.00  0.00    -0.375 OA
ATOM      3  O   UNL     1       0.024  -1.344  25.304  0.00  0.00    -0.270 OA
ATOM      4  N   UNL     1      -2.289  -0.972  25.338  0.00  0.00    -0.292 N 
ATOM      7  C   UNL     1      -4.756  -0.611  24.788  0.00  0.00    +0.216 C 
ATOM      8  C   UNL     1      -3.408  -0.030  25.224  0.00  0.00    +0.155 C 
ATOM      9  C   UNL     1      -2.594  -2.393  25.518  0.00  0.00    +0.136 C 
ATOM     10  C   UNL     1      -4.661  -1.476  23.533  0.00  0.00    +0.206 C 
ATOM     11  C   UNL     1      -2.971  -3.045  24.194  0.00  0.00    +0.179 C 
ATOM     12  C   UNL     1      -0.943  -0.584  25.246  0.00  0.00    +0.247 C 
ENDROOT
BRANCH  12  13
ATOM      6  N   UNL     1      -0.063   3.557  24.723  0.00  0.00    -0.263 NA
ATOM     13  C   UNL     1      -0.638   0.844  25.066  0.00  0.00    +0.040 A 
ATOM     15  C   UNL     1      -0.581   1.689  26.168  0.00  0.00    +0.033 A 
ATOM     16  C   UNL     1      -0.407   1.353  23.793  0.00  0.00    +0.033 A 
ATOM     19  C   UNL     1      -0.294   3.027  25.944  0.00  0.00    +0.111 A 
ATOM     20  C   UNL     1      -0.126   2.704  23.675  0.00  0.00    +0.111 A 
ENDBRANCH  12  13
BRANCH   7   2
ATOM      2  O   UNL     1      -5.618   0.498  24.524  0.00  0.00    -0.483 OA
BRANCH   2  14
ATOM      5  N   UNL     1      -5.053   3.715  26.164  0.00  0.00    -0.260 NA
ATOM     14  C   UNL     1      -5.106   1.741  24.769  0.00  0.00    +0.139 A 
ATOM     17  C   UNL     1      -4.155   2.304  23.924  0.00  0.00    +0.049 A 
ATOM     18  C   UNL     1      -5.519   2.482  25.866  0.00  0.00    +0.156 A 
ATOM     21  C   UNL     1      -3.653   3.572  24.198  0.00  0.00    +0.023 A 
ATOM     22  C   UNL     1      -4.129   4.229  25.320  0.00  0.00    +0.111 A 
ENDBRANCH   2  14
ENDBRANCH   7   2
TORSDOF 3
ENDMDL
MODEL 5
REMARK VINA RESULT:      -4.6      2.030      4.569
REMARK  Name = 75367701
REMARK  3 active torsions:
REMARK  status: ('A' for Active; 'I' for Inactive)
REMARK    1  A    between atoms: O_2  and  C_7
REMARK    2  A    between atoms: O_2  and  C_14
REMARK    3  A    between atoms: C_12  and  C_13
REMARK                            x       y       z     vdW  Elec       q    Type
REMARK                         _______ _______ _______ _____ _____    ______ ____
ROOT
ATOM      1  O   UNL     1      -4.887   3.774  26.177  0.00  0.00    -0.375 OA
ATOM      3  O   UNL     1      -0.191   3.675  25.059  0.00  0.00    -0.270 OA
ATOM      4  N   UNL     1      -2.357   2.970  24.509  0.00  0.00    -0.292 N 
ATOM      7  C   UNL     1      -4.732   2.032  24.475  0.00  0.00    +0.216 C 
ATOM      8  C   UNL     1      -3.255   1.884  24.098  0.00  0.00    +0.155 C 
ATOM      9  C   UNL     1      -2.939   4.285  24.785  0.00  0.00    +0.136 C 
ATOM     10  C   UNL     1      -4.945   2.368  25.949  0.00  0.00    +0.206 C 
ATOM     11  C   UNL     1      -3.574   4.324  26.169  0.00  0.00    +0.179 C 
ATOM     12  C   UNL     1      -0.974   2.802  24.686  0.00  0.00    +0.247 C 
ENDROOT
BRANCH  12  13
ATOM      6  N   UNL     1       0.715  -1.031  23.874  0.00  0.00    -0.263 NA
ATOM     13  C   UNL     1      -0.391   1.480  24.407  0.00  0.00    +0.040 A 
ATOM     15  C   UNL     1       0.574   1.339  23.416  0.00  0.00    +0.033 A 
ATOM     16  C   UNL     1      -0.804   0.368  25.132  0.00  0.00    +0.033 A 
ATOM     19  C   UNL     1       1.090   0.072  23.190  0.00  0.00    +0.111 A 
ATOM     20  C   UNL     1      -0.226  -0.854  24.831  0.00  0.00    +0.111 A 
ENDBRANCH  12  13
BRANCH   7   2
ATOM      2  O   UNL     1      -5.358   0.781  24.187  0.00  0.00    -0.483 OA
BRANCH   2  14
ATOM      5  N   UNL     1      -3.425  -1.579  26.201  0.00  0.00    -0.260 NA
ATOM     14  C   UNL     1      -4.662  -0.345  24.531  0.00  0.00    +0.139 A 
ATOM     17  C   UNL     1      -4.474  -1.378  23.618  0.00  0.00    +0.049 A 
ATOM     18  C   UNL     1      -4.122  -0.493  25.799  0.00  0.00    +0.156 A 
ATOM     21  C   UNL     1      -3.762  -2.511  23.996  0.00  0.00    +0.023 A 
ATOM     22  C   UNL     1      -3.263  -2.563  25.287  0.00  0.00    +0.111 A 
ENDBRANCH   2  14
ENDBRANCH   7   2
TORSDOF 3
ENDMDL
MODEL 6
REMARK VINA RESULT:      -4.1      1.393      2.101
REMARK  Name = 75367701
REMARK  3 active torsions:
REMARK  status: ('A' for Active; 'I' for Inactive)
REMARK    1  A    between atoms: O_2  and  C_7
REMARK    2  A    between atoms: O_2  and  C_14
REMARK    3  A    between atoms: C_12  and  C_13
REMARK                            x       y       z     vdW  Elec       q    Type
REMARK                         _______ _______ _______ _____ _____    ______ ____
ROOT
ATOM      1  O   UNL     1       0.915   1.476  23.927  0.00  0.00    -0.375 OA
ATOM      3  O   UNL     1      -2.640   4.699  24.456  0.00  0.00    -0.270 OA
ATOM      4  N   UNL     1      -1.622   2.747  25.260  0.00  0.00    -0.292 N 
ATOM      7  C   UNL     1      -0.562   0.446  25.574  0.00  0.00    +0.216 C 
ATOM      8  C   UNL     1      -1.763   1.377  25.764  0.00  0.00    +0.155 C 
ATOM      9  C   UNL     1      -0.271   3.283  25.074  0.00  0.00    +0.136 C 
ATOM     10  C   UNL     1      -0.032   0.433  24.142  0.00  0.00    +0.206 C 
ATOM     11  C   UNL     1       0.348   2.774  23.780  0.00  0.00    +0.179 C 
ATOM     12  C   UNL     1      -2.715   3.557  24.911  0.00  0.00    +0.247 C 
ENDROOT
BRANCH  12  13
ATOM      6  N   UNL     1      -6.649   1.999  25.456  0.00  0.00    -0.263 NA
ATOM     13  C   UNL     1      -4.071   3.019  25.099  0.00  0.00    +0.040 A 
ATOM     15  C   UNL     1      -4.669   2.267  24.095  0.00  0.00    +0.033 A 
ATOM     16  C   UNL     1      -4.760   3.261  26.283  0.00  0.00    +0.033 A 
ATOM     19  C   UNL     1      -5.949   1.785  24.320  0.00  0.00    +0.111 A 
ATOM     20  C   UNL     1      -6.034   2.734  26.411  0.00  0.00    +0.111 A 
ENDBRANCH  12  13
BRANCH   7   2
ATOM      2  O   UNL     1      -1.000  -0.869  25.920  0.00  0.00    -0.483 OA
BRANCH   2  14
ATOM      5  N   UNL     1      -4.395  -1.107  24.584  0.00  0.00    -0.260 NA
ATOM     14  C   UNL     1      -2.079  -1.354  25.235  0.00  0.00    +0.139 A 
ATOM     17  C   UNL     1      -1.995  -2.539  24.510  0.00  0.00    +0.049 A 
ATOM     18  C   UNL     1      -3.291  -0.682  25.239  0.00  0.00    +0.156 A 
ATOM     21  C   UNL     1      -3.108  -3.008  23.823  0.00  0.00    +0.023 A 
ATOM     22  C   UNL     1      -4.274  -2.262  23.890  0.00  0.00    +0.111 A 
ENDBRANCH   2  14
ENDBRANCH   7   2
TORSDOF 3
ENDMDL
MODEL 7
REMARK VINA RESULT:      -3.6      2.193      4.566
REMARK  Name = 75367701
REMARK  3 active torsions:
REMARK  status: ('A' for Active; 'I' for Inactive)
REMARK    1  A    between atoms: O_2  and  C_7
REMARK    2  A    between atoms: O_2  and  C_14
REMARK    3  A    between atoms: C_12  and  C_13
REMARK                            x       y       z     vdW  Elec       q    Type
REMARK                         _______ _______ _______ _____ _____    ______ ____
ROOT
ATOM      1  O   UNL     1      -6.550   2.361  25.824  0.00  0.00    -0.375 OA
ATOM      3  O   UNL     1      -2.583   4.999  25.049  0.00  0.00    -0.270 OA
ATOM      4  N   UNL     1      -3.769   3.042  24.548  0.00  0.00    -0.292 N 
ATOM      7  C   UNL     1      -5.082   0.852  24.590  0.00  0.00    +0.216 C 
ATOM      8  C   UNL     1      -3.761   1.588  24.348  0.00  0.00    +0.155 C 
ATOM      9  C   UNL     1      -5.051   3.746  24.473  0.00  0.00    +0.136 C 
ATOM     10  C   UNL     1      -5.729   1.201  25.928  0.00  0.00    +0.206 C 
ATOM     11  C   UNL     1      -5.838   3.592  25.768  0.00  0.00    +0.179 C 
ATOM     12  C   UNL     1      -2.616   3.786  24.843  0.00  0.00    +0.247 C 
ENDROOT
BRANCH  12  13
ATOM      6  N   UNL     1       1.116   1.729  25.059  0.00  0.00    -0.263 NA
ATOM     13  C   UNL     1      -1.328   3.078  24.917  0.00  0.00    +0.040 A 
ATOM     15  C   UNL     1      -0.786   2.495  23.778  0.00  0.00    +0.033 A 
ATOM     16  C   UNL     1      -0.650   2.988  26.128  0.00  0.00    +0.033 A 
ATOM     19  C   UNL     1       0.428   1.838  23.901  0.00  0.00    +0.111 A 
ATOM     20  C   UNL     1       0.557   2.309  26.146  0.00  0.00    +0.111 A 
ENDBRANCH  12  13
BRANCH   7   2
ATOM      2  O   UNL     1      -4.787  -0.545  24.565  0.00  0.00    -0.483 OA
BRANCH   2  14
ATOM      5  N   UNL     1      -1.586  -2.277  24.225  0.00  0.00    -0.260 NA
ATOM     14  C   UNL     1      -3.488  -0.900  24.800  0.00  0.00    +0.139 A 
ATOM     17  C   UNL     1      -2.749  -0.288  25.808  0.00  0.00    +0.049 A 
ATOM     18  C   UNL     1      -2.866  -1.880  24.044  0.00  0.00    +0.156 A 
ATOM     21  C   UNL     1      -1.429  -0.669  26.024  0.00  0.00    +0.023 A 
ATOM     22  C   UNL     1      -0.899  -1.659  25.213  0.00  0.00    +0.111 A 
ENDBRANCH   2  14
ENDBRANCH   7   2
TORSDOF 3
ENDMDL
MODEL 8
REMARK VINA RESULT:      -3.5      1.931      3.664
REMARK  Name = 75367701
REMARK  3 active torsions:
REMARK  status: ('A' for Active; 'I' for Inactive)
REMARK    1  A    between atoms: O_2  and  C_7
REMARK    2  A    between atoms: O_2  and  C_14
REMARK    3  A    between atoms: C_12  and  C_13
REMARK                            x       y       z     vdW  Elec       q    Type
REMARK                         _______ _______ _______ _____ _____    ______ ____
ROOT
ATOM      1  O   UNL     1      -2.100  -2.305  23.928  0.00  0.00    -0.375 OA
ATOM      3  O   UNL     1       1.094   1.213  24.781  0.00  0.00    -0.270 OA
ATOM      4  N   UNL     1      -0.991   0.282  25.308  0.00  0.00    -0.292 N 
ATOM      7  C   UNL     1      -3.343  -0.712  25.297  0.00  0.00    +0.216 C 
ATOM      8  C   UNL     1      -2.421   0.480  25.571  0.00  0.00    +0.155 C 
ATOM      9  C   UNL     1      -0.471  -1.087  25.290  0.00  0.00    +0.136 C 
ATOM     10  C   UNL     1      -3.136  -1.327  23.914  0.00  0.00    +0.206 C 
ATOM     11  C   UNL     1      -0.780  -1.773  23.965  0.00  0.00    +0.179 C 
ATOM     12  C   UNL     1      -0.104   1.336  25.037  0.00  0.00    +0.247 C 
ENDROOT
BRANCH  12  13
ATOM      6  N   UNL     1      -1.622   5.323  25.092  0.00  0.00    -0.263 NA
ATOM     13  C   UNL     1      -0.627   2.711  25.058  0.00  0.00    +0.040 A 
ATOM     15  C   UNL     1      -1.562   3.088  26.014  0.00  0.00    +0.033 A 
ATOM     16  C   UNL     1      -0.187   3.638  24.118  0.00  0.00    +0.033 A 
ATOM     19  C   UNL     1      -2.025   4.395  25.987  0.00  0.00    +0.111 A 
ATOM     20  C   UNL     1      -0.711   4.919  24.177  0.00  0.00    +0.111 A 
ENDBRANCH  12  13
BRANCH   7   2
ATOM      2  O   UNL     1      -4.683  -0.229  25.396  0.00  0.00    -0.483 OA
BRANCH   2  14
ATOM      5  N   UNL     1      -4.432   3.084  23.872  0.00  0.00    -0.260 NA
ATOM     14  C   UNL     1      -4.866   1.112  25.201  0.00  0.00    +0.139 A 
ATOM     17  C   UNL     1      -5.636   1.866  26.082  0.00  0.00    +0.049 A 
ATOM     18  C   UNL     1      -4.291   1.763  24.122  0.00  0.00    +0.156 A 
ATOM     21  C   UNL     1      -5.804   3.228  25.858  0.00  0.00    +0.023 A 
ATOM     22  C   UNL     1      -5.188   3.784  24.749  0.00  0.00    +0.111 A 
ENDBRANCH   2  14
ENDBRANCH   7   2
TORSDOF 3
ENDMDL
MODEL 9
REMARK VINA RESULT:      -2.7      2.404      6.115
REMARK  Name = 75367701
REMARK  3 active torsions:
REMARK  status: ('A' for Active; 'I' for Inactive)
REMARK    1  A    between atoms: O_2  and  C_7
REMARK    2  A    between atoms: O_2  and  C_14
REMARK    3  A    between atoms: C_12  and  C_13
REMARK                            x       y       z     vdW  Elec       q    Type
REMARK                         _______ _______ _______ _____ _____    ______ ____
ROOT
ATOM      1  O   UNL     1      -6.294   3.368  25.148  0.00  0.00    -0.375 OA
ATOM      3  O   UNL     1      -4.685  -1.075  24.163  0.00  0.00    -0.270 OA
ATOM      4  N   UNL     1      -4.387   0.893  25.399  0.00  0.00    -0.292 N 
ATOM      7  C   UNL     1      -4.101   3.295  26.217  0.00  0.00    +0.216 C 
ATOM      8  C   UNL     1      -3.480   1.930  25.904  0.00  0.00    +0.155 C 
ATOM      9  C   UNL     1      -5.819   1.026  25.678  0.00  0.00    +0.136 C 
ATOM     10  C   UNL     1      -4.952   3.844  25.074  0.00  0.00    +0.206 C 
ATOM     11  C   UNL     1      -6.472   2.020  24.727  0.00  0.00    +0.179 C 
ATOM     12  C   UNL     1      -3.956  -0.201  24.632  0.00  0.00    +0.247 C 
ENDROOT
BRANCH  12  13
ATOM      6  N   UNL     1       0.216  -0.586  23.828  0.00  0.00    -0.263 NA
ATOM     13  C   UNL     1      -2.518  -0.336  24.354  0.00  0.00    +0.040 A 
ATOM     15  C   UNL     1      -1.783  -1.353  24.951  0.00  0.00    +0.033 A 
ATOM     16  C   UNL     1      -1.888   0.557  23.493  0.00  0.00    +0.033 A 
ATOM     19  C   UNL     1      -0.431  -1.434  24.659  0.00  0.00    +0.111 A 
ATOM     20  C   UNL     1      -0.532   0.390  23.265  0.00  0.00    +0.111 A 
ENDBRANCH  12  13
BRANCH   7   2
ATOM      2  O   UNL     1      -3.019   4.193  26.464  0.00  0.00    -0.483 OA
BRANCH   2  14
ATOM      5  N   UNL     1       0.189   2.621  25.688  0.00  0.00    -0.260 NA
ATOM     14  C   UNL     1      -1.842   3.926  25.821  0.00  0.00    +0.139 A 
ATOM     17  C   UNL     1      -1.466   4.640  24.688  0.00  0.00    +0.049 A 
ATOM     18  C   UNL     1      -0.987   2.935  26.277  0.00  0.00    +0.156 A 
ATOM     21  C   UNL     1      -0.264   4.345  24.054  0.00  0.00    +0.023 A 
ATOM     22  C   UNL     1       0.520   3.336  24.589  0.00  0.00    +0.111 A 
ENDBRANCH   2  14
ENDBRANCH   7   2
TORSDOF 3
ENDMDL
MODEL 10
REMARK VINA RESULT:      -2.6      1.895      5.590
REMARK  Name = 75367701
REMARK  3 active torsions:
REMARK  status: ('A' for Active; 'I' for Inactive)
REMARK    1  A    between atoms: O_2  and  C_7
REMARK    2  A    between atoms: O_2  and  C_14
REMARK    3  A    between atoms: C_12  and  C_13
REMARK                            x       y       z     vdW  Elec       q    Type
REMARK                         _______ _______ _______ _____ _____    ______ ____
ROOT
ATOM      1  O   UNL     1      -5.024  -1.994  24.211  0.00  0.00    -0.375 OA
ATOM      3  O   UNL     1      -0.305  -2.475  25.109  0.00  0.00    -0.270 OA
ATOM      4  N   UNL     1      -2.180  -1.070  25.151  0.00  0.00    -0.292 N 
ATOM      7  C   UNL     1      -4.278   0.290  24.634  0.00  0.00    +0.216 C 
ATOM      8  C   UNL     1      -2.766   0.246  24.871  0.00  0.00    +0.155 C 
ATOM      9  C   UNL     1      -3.057  -2.126  25.661  0.00  0.00    +0.136 C 
ATOM     10  C   UNL     1      -4.755  -0.733  23.606  0.00  0.00    +0.206 C 
ATOM     11  C   UNL     1      -3.867  -2.758  24.537  0.00  0.00    +0.179 C 
ATOM     12  C   UNL     1      -0.830  -1.378  24.919  0.00  0.00    +0.247 C 
ENDROOT
BRANCH  12  13
ATOM      6  N   UNL     1       1.721   1.701  23.431  0.00  0.00    -0.263 NA
ATOM     13  C   UNL     1       0.051  -0.316  24.407  0.00  0.00    +0.040 A 
ATOM     15  C   UNL     1      -0.099   0.991  24.856  0.00  0.00    +0.033 A 
ATOM     16  C   UNL     1       1.035  -0.617  23.472  0.00  0.00    +0.033 A 
ATOM     19  C   UNL     1       0.754   1.955  24.340  0.00  0.00    +0.111 A 
ATOM     20  C   UNL     1       1.837   0.418  23.019  0.00  0.00    +0.111 A 
ENDBRANCH  12  13
BRANCH   7   2
ATOM      2  O   UNL     1      -4.583   1.603  24.160  0.00  0.00    -0.483 OA
BRANCH   2  14
ATOM      5  N   UNL     1      -1.987   4.155  24.489  0.00  0.00    -0.260 NA
ATOM     14  C   UNL     1      -3.852   2.629  24.690  0.00  0.00    +0.139 A 
ATOM     17  C   UNL     1      -4.189   3.192  25.917  0.00  0.00    +0.049 A 
ATOM     18  C   UNL     1      -2.751   3.142  24.022  0.00  0.00    +0.156 A 
ATOM     21  C   UNL     1      -3.427   4.235  26.430  0.00  0.00    +0.023 A 
ATOM     22  C   UNL     1      -2.346   4.677  25.684  0.00  0.00    +0.111 A 
ENDBRANCH   2  14
ENDBRANCH   7   2
TORSDOF 3
ENDMDL
