MODEL 1
REMARK VINA RESULT:       4.1      0.000      0.000
REMARK  Name = 7144163
REMARK  6 active torsions:
REMARK  status: ('A' for Active; 'I' for Inactive)
REMARK    1  A    between atoms: S_2  and  C_22
REMARK    2  A    between atoms: S_2  and  C_28
REMARK    3  A    between atoms: O_5  and  C_31
REMARK    4  A    between atoms: C_16  and  C_21
REMARK    5  A    between atoms: C_18  and  C_22
REMARK    6  A    between atoms: C_28  and  C_31
REMARK                            x       y       z     vdW  Elec       q    Type
REMARK                         _______ _______ _______ _____ _____    ______ ____
ROOT
ATOM      3  O   UNL     1      -3.564   4.704  27.315  0.00  0.00    -0.268 OA
ATOM      4  O   UNL     1      -5.613  -0.012  26.178  0.00  0.00    -0.275 OA
ATOM      7  N   UNL     1      -4.372   0.759  24.372  0.00  0.00    -0.300 N 
ATOM      8  N   UNL     1      -3.099   3.503  25.360  0.00  0.00    -0.311 N 
ATOM      9  C   UNL     1      -4.905   3.064  23.594  0.00  0.00    +0.027 C 
ATOM     10  C   UNL     1      -2.638   2.170  23.278  0.00  0.00    +0.054 C 
ATOM     11  C   UNL     1      -3.737   3.004  22.623  0.00  0.00    +0.018 C 
ATOM     12  C   UNL     1      -5.431   1.653  23.905  0.00  0.00    +0.113 C 
ATOM     13  C   UNL     1      -4.449   3.793  24.858  0.00  0.00    +0.130 C 
ATOM     14  C   UNL     1      -3.162   0.742  23.539  0.00  0.00    +0.117 C 
ATOM     15  C   UNL     1      -2.153   2.803  24.585  0.00  0.00    +0.035 A 
ATOM     16  C   UNL     1      -0.871   2.688  25.023  0.00  0.00    +0.009 A 
ATOM     17  C   UNL     1      -2.781   4.072  26.605  0.00  0.00    +0.252 A 
ATOM     18  C   UNL     1      -4.588  -0.043  25.493  0.00  0.00    +0.225 C 
ATOM     19  C   UNL     1      -0.507   3.260  26.306  0.00  0.00    +0.016 A 
ATOM     20  C   UNL     1      -1.387   3.901  27.075  0.00  0.00    +0.071 A 
ENDROOT
BRANCH  16  21
ATOM      1  S   UNL     1      -0.288   0.651  23.267  0.00  0.00    -0.088 S 
ATOM     21  C   UNL     1       0.162   1.979  24.236  0.00  0.00    +0.022 A 
ATOM     23  C   UNL     1       1.508   2.242  24.160  0.00  0.00    +0.024 A 
ATOM     24  C   UNL     1       2.205   1.339  23.289  0.00  0.00    -0.010 A 
ATOM     25  C   UNL     1       1.331   0.404  22.726  0.00  0.00    +0.020 A 
ATOM     26  C   UNL     1       3.576   1.269  22.941  0.00  0.00    +0.009 A 
ATOM     27  C   UNL     1       1.787  -0.587  21.835  0.00  0.00    +0.015 A 
ATOM     29  C   UNL     1       4.031   0.286  22.057  0.00  0.00    +0.001 A 
ATOM     30  C   UNL     1       3.145  -0.631  21.511  0.00  0.00    +0.001 A 
ENDBRANCH  16  21
BRANCH  18  22
ATOM     22  C   UNL     1      -3.478  -0.991  25.870  0.00  0.00    +0.165 C 
BRANCH  22   2
ATOM      2  S   UNL     1      -3.493  -2.347  24.689  0.00  0.00    -0.140 S 
BRANCH   2  28
ATOM     28  C   UNL     1      -1.710  -2.495  24.410  0.00  0.00    +0.189 C 
BRANCH  28  31
ATOM      6  O   UNL     1      -1.489  -0.852  26.158  0.00  0.00    -0.250 OA
ATOM     31  C   UNL     1      -0.974  -1.717  25.462  0.00  0.00    +0.315 C 
BRANCH  31   5
ATOM      5  O   UNL     1       0.326  -2.087  25.573  0.00  0.00    -0.480 OA
ATOM     32  H   UNL     1       0.424  -3.059  25.660  0.00  0.00    +0.295 HD
ENDBRANCH  31   5
ENDBRANCH  28  31
ENDBRANCH   2  28
ENDBRANCH  22   2
ENDBRANCH  18  22
TORSDOF 6
ENDMDL
MODEL 2
REMARK VINA RESULT:       6.3      3.270      5.187
REMARK  Name = 7144163
REMARK  6 active torsions:
REMARK  status: ('A' for Active; 'I' for Inactive)
REMARK    1  A    between atoms: S_2  and  C_22
REMARK    2  A    between atoms: S_2  and  C_28
REMARK    3  A    between atoms: O_5  and  C_31
REMARK    4  A    between atoms: C_16  and  C_21
REMARK    5  A    between atoms: C_18  and  C_22
REMARK    6  A    between atoms: C_28  and  C_31
REMARK                            x       y       z     vdW  Elec       q    Type
REMARK                         _______ _______ _______ _____ _____    ______ ____
ROOT
ATOM      3  O   UNL     1      -2.861   1.908  20.955  0.00  0.00    -0.268 OA
ATOM      4  O   UNL     1      -6.522   1.359  24.701  0.00  0.00    -0.275 OA
ATOM      7  N   UNL     1      -4.544   0.350  25.384  0.00  0.00    -0.300 N 
ATOM      8  N   UNL     1      -2.458   0.970  23.062  0.00  0.00    -0.311 N 
ATOM      9  C   UNL     1      -3.529  -1.250  23.769  0.00  0.00    +0.027 C 
ATOM     10  C   UNL     1      -2.085  -0.029  25.339  0.00  0.00    +0.054 C 
ATOM     11  C   UNL     1      -2.311  -1.384  24.670  0.00  0.00    +0.018 C 
ATOM     12  C   UNL     1      -4.770  -0.852  24.584  0.00  0.00    +0.113 C 
ATOM     13  C   UNL     1      -3.213  -0.229  22.675  0.00  0.00    +0.130 C 
ATOM     14  C   UNL     1      -3.318   0.335  26.193  0.00  0.00    +0.117 C 
ATOM     15  C   UNL     1      -1.810   1.070  24.309  0.00  0.00    +0.035 A 
ATOM     16  C   UNL     1      -0.999   2.129  24.568  0.00  0.00    +0.009 A 
ATOM     17  C   UNL     1      -2.329   1.952  22.064  0.00  0.00    +0.252 A 
ATOM     18  C   UNL     1      -5.498   1.368  25.389  0.00  0.00    +0.225 C 
ATOM     19  C   UNL     1      -0.844   3.165  23.562  0.00  0.00    +0.016 A 
ATOM     20  C   UNL     1      -1.468   3.113  22.385  0.00  0.00    +0.071 A 
ENDROOT
BRANCH  16  21
ATOM      1  S   UNL     1       1.381   2.636  25.852  0.00  0.00    -0.088 S 
ATOM     21  C   UNL     1      -0.282   2.268  25.855  0.00  0.00    +0.022 A 
ATOM     23  C   UNL     1      -0.781   2.138  27.128  0.00  0.00    +0.024 A 
ATOM     24  C   UNL     1       0.215   2.343  28.141  0.00  0.00    -0.010 A 
ATOM     25  C   UNL     1       1.462   2.627  27.575  0.00  0.00    +0.020 A 
ATOM     26  C   UNL     1       0.116   2.300  29.553  0.00  0.00    +0.009 A 
ATOM     27  C   UNL     1       2.597   2.866  28.374  0.00  0.00    +0.015 A 
ATOM     29  C   UNL     1       1.241   2.536  30.348  0.00  0.00    +0.001 A 
ATOM     30  C   UNL     1       2.467   2.816  29.763  0.00  0.00    +0.001 A 
ENDBRANCH  16  21
BRANCH  18  22
ATOM     22  C   UNL     1      -5.229   2.543  26.295  0.00  0.00    +0.165 C 
BRANCH  22   2
ATOM      2  S   UNL     1      -5.550   4.043  25.355  0.00  0.00    -0.140 S 
BRANCH   2  28
ATOM     28  C   UNL     1      -3.891   4.310  24.680  0.00  0.00    +0.189 C 
BRANCH  28  31
ATOM      6  O   UNL     1      -3.151   4.484  26.967  0.00  0.00    -0.250 OA
ATOM     31  C   UNL     1      -2.966   4.736  25.783  0.00  0.00    +0.315 C 
BRANCH  31   5
ATOM      5  O   UNL     1      -1.888   5.421  25.328  0.00  0.00    -0.480 OA
ATOM     32  H   UNL     1      -1.045   4.992  25.586  0.00  0.00    +0.295 HD
ENDBRANCH  31   5
ENDBRANCH  28  31
ENDBRANCH   2  28
ENDBRANCH  22   2
ENDBRANCH  18  22
TORSDOF 6
ENDMDL
MODEL 3
REMARK VINA RESULT:       7.1      2.569      3.857
REMARK  Name = 7144163
REMARK  6 active torsions:
REMARK  status: ('A' for Active; 'I' for Inactive)
REMARK    1  A    between atoms: S_2  and  C_22
REMARK    2  A    between atoms: S_2  and  C_28
REMARK    3  A    between atoms: O_5  and  C_31
REMARK    4  A    between atoms: C_16  and  C_21
REMARK    5  A    between atoms: C_18  and  C_22
REMARK    6  A    between atoms: C_28  and  C_31
REMARK                            x       y       z     vdW  Elec       q    Type
REMARK                         _______ _______ _______ _____ _____    ______ ____
ROOT
ATOM      3  O   UNL     1      -5.862   4.136  24.549  0.00  0.00    -0.268 OA
ATOM      4  O   UNL     1      -4.753  -0.964  23.847  0.00  0.00    -0.275 OA
ATOM      7  N   UNL     1      -2.790   0.277  23.808  0.00  0.00    -0.300 N 
ATOM      8  N   UNL     1      -3.692   3.264  24.432  0.00  0.00    -0.311 N 
ATOM      9  C   UNL     1      -2.776   2.235  22.270  0.00  0.00    +0.027 C 
ATOM     10  C   UNL     1      -1.386   2.273  24.296  0.00  0.00    +0.054 C 
ATOM     11  C   UNL     1      -1.419   2.652  22.817  0.00  0.00    +0.018 C 
ATOM     12  C   UNL     1      -2.987   0.721  22.429  0.00  0.00    +0.113 C 
ATOM     13  C   UNL     1      -3.858   3.041  22.990  0.00  0.00    +0.130 C 
ATOM     14  C   UNL     1      -1.549   0.745  24.439  0.00  0.00    +0.117 C 
ATOM     15  C   UNL     1      -2.475   2.999  25.090  0.00  0.00    +0.035 A 
ATOM     16  C   UNL     1      -2.316   3.360  26.390  0.00  0.00    +0.009 A 
ATOM     17  C   UNL     1      -4.783   3.870  25.079  0.00  0.00    +0.252 A 
ATOM     18  C   UNL     1      -3.716  -0.584  24.396  0.00  0.00    +0.225 C 
ATOM     19  C   UNL     1      -3.422   3.984  27.093  0.00  0.00    +0.016 A 
ATOM     20  C   UNL     1      -4.595   4.221  26.506  0.00  0.00    +0.071 A 
ENDROOT
BRANCH  16  21
ATOM      1  S   UNL     1       0.433   3.263  26.291  0.00  0.00    -0.088 S 
ATOM     21  C   UNL     1      -1.050   3.119  27.118  0.00  0.00    +0.022 A 
ATOM     23  C   UNL     1      -0.876   2.777  28.437  0.00  0.00    +0.024 A 
ATOM     24  C   UNL     1       0.506   2.624  28.796  0.00  0.00    -0.010 A 
ATOM     25  C   UNL     1       1.342   2.865  27.701  0.00  0.00    +0.020 A 
ATOM     26  C   UNL     1       1.105   2.284  30.033  0.00  0.00    +0.009 A 
ATOM     27  C   UNL     1       2.744   2.775  27.810  0.00  0.00    +0.015 A 
ATOM     29  C   UNL     1       2.495   2.194  30.145  0.00  0.00    +0.001 A 
ATOM     30  C   UNL     1       3.304   2.437  29.044  0.00  0.00    +0.001 A 
ENDBRANCH  16  21
BRANCH  18  22
ATOM     22  C   UNL     1      -3.408  -1.055  25.795  0.00  0.00    +0.165 C 
BRANCH  22   2
ATOM      2  S   UNL     1      -2.899  -2.778  25.691  0.00  0.00    -0.140 S 
BRANCH   2  28
ATOM     28  C   UNL     1      -1.674  -2.628  24.366  0.00  0.00    +0.189 C 
BRANCH  28  31
ATOM      6  O   UNL     1       0.085  -2.482  26.006  0.00  0.00    -0.250 OA
ATOM     31  C   UNL     1      -0.383  -2.117  24.936  0.00  0.00    +0.315 C 
BRANCH  31   5
ATOM      5  O   UNL     1       0.224  -1.212  24.128  0.00  0.00    -0.480 OA
ATOM     32  H   UNL     1      -0.336  -0.420  23.978  0.00  0.00    +0.295 HD
ENDBRANCH  31   5
ENDBRANCH  28  31
ENDBRANCH   2  28
ENDBRANCH  22   2
ENDBRANCH  18  22
TORSDOF 6
ENDMDL
MODEL 4
REMARK VINA RESULT:       7.4      2.230      5.023
REMARK  Name = 7144163
REMARK  6 active torsions:
REMARK  status: ('A' for Active; 'I' for Inactive)
REMARK    1  A    between atoms: S_2  and  C_22
REMARK    2  A    between atoms: S_2  and  C_28
REMARK    3  A    between atoms: O_5  and  C_31
REMARK    4  A    between atoms: C_16  and  C_21
REMARK    5  A    between atoms: C_18  and  C_22
REMARK    6  A    between atoms: C_28  and  C_31
REMARK                            x       y       z     vdW  Elec       q    Type
REMARK                         _______ _______ _______ _____ _____    ______ ____
ROOT
ATOM      3  O   UNL     1      -4.150  -3.776  24.105  0.00  0.00    -0.268 OA
ATOM      4  O   UNL     1      -4.931   1.421  23.759  0.00  0.00    -0.275 OA
ATOM      7  N   UNL     1      -2.991   0.998  24.964  0.00  0.00    -0.300 N 
ATOM      8  N   UNL     1      -2.639  -2.163  24.877  0.00  0.00    -0.311 N 
ATOM      9  C   UNL     1      -3.212  -0.621  26.843  0.00  0.00    +0.027 C 
ATOM     10  C   UNL     1      -1.055  -0.387  25.690  0.00  0.00    +0.054 C 
ATOM     11  C   UNL     1      -1.708  -0.574  27.058  0.00  0.00    +0.018 C 
ATOM     12  C   UNL     1      -3.713   0.681  26.196  0.00  0.00    +0.113 C 
ATOM     13  C   UNL     1      -3.544  -1.846  25.990  0.00  0.00    +0.130 C 
ATOM     14  C   UNL     1      -1.527   0.946  25.073  0.00  0.00    +0.117 C 
ATOM     15  C   UNL     1      -1.377  -1.550  24.748  0.00  0.00    +0.035 A 
ATOM     16  C   UNL     1      -0.511  -1.981  23.793  0.00  0.00    +0.009 A 
ATOM     17  C   UNL     1      -3.066  -3.198  24.027  0.00  0.00    +0.252 A 
ATOM     18  C   UNL     1      -3.700   1.384  23.827  0.00  0.00    +0.225 C 
ATOM     19  C   UNL     1      -0.918  -3.045  22.894  0.00  0.00    +0.016 A 
ATOM     20  C   UNL     1      -2.117  -3.623  22.973  0.00  0.00    +0.071 A 
ENDROOT
BRANCH  16  21
ATOM      1  S   UNL     1       0.994   0.099  22.803  0.00  0.00    -0.088 S 
ATOM     21  C   UNL     1       0.832  -1.381  23.630  0.00  0.00    +0.022 A 
ATOM     23  C   UNL     1       2.041  -1.863  24.071  0.00  0.00    +0.024 A 
ATOM     24  C   UNL     1       3.142  -1.006  23.728  0.00  0.00    -0.010 A 
ATOM     25  C   UNL     1       2.705   0.119  23.023  0.00  0.00    +0.020 A 
ATOM     26  C   UNL     1       4.527  -1.136  23.990  0.00  0.00    +0.009 A 
ATOM     27  C   UNL     1       3.607   1.106  22.579  0.00  0.00    +0.015 A 
ATOM     29  C   UNL     1       5.424  -0.159  23.551  0.00  0.00    +0.001 A 
ATOM     30  C   UNL     1       4.968   0.949  22.853  0.00  0.00    +0.001 A 
ENDBRANCH  16  21
BRANCH  18  22
ATOM     22  C   UNL     1      -2.884   1.766  22.618  0.00  0.00    +0.165 C 
BRANCH  22   2
ATOM      2  S   UNL     1      -1.886   3.195  23.063  0.00  0.00    -0.140 S 
BRANCH   2  28
ATOM     28  C   UNL     1      -3.072   4.041  24.138  0.00  0.00    +0.189 C 
BRANCH  28  31
ATOM      6  O   UNL     1      -1.334   5.210  25.329  0.00  0.00    -0.250 OA
ATOM     31  C   UNL     1      -2.363   4.549  25.360  0.00  0.00    +0.315 C 
BRANCH  31   5
ATOM      5  O   UNL     1      -2.995   4.208  26.511  0.00  0.00    -0.480 OA
ATOM     32  H   UNL     1      -2.389   3.769  27.146  0.00  0.00    +0.295 HD
ENDBRANCH  31   5
ENDBRANCH  28  31
ENDBRANCH   2  28
ENDBRANCH  22   2
ENDBRANCH  18  22
TORSDOF 6
ENDMDL
MODEL 5
REMARK VINA RESULT:       7.5      2.780      5.165
REMARK  Name = 7144163
REMARK  6 active torsions:
REMARK  status: ('A' for Active; 'I' for Inactive)
REMARK    1  A    between atoms: S_2  and  C_22
REMARK    2  A    between atoms: S_2  and  C_28
REMARK    3  A    between atoms: O_5  and  C_31
REMARK    4  A    between atoms: C_16  and  C_21
REMARK    5  A    between atoms: C_18  and  C_22
REMARK    6  A    between atoms: C_28  and  C_31
REMARK                            x       y       z     vdW  Elec       q    Type
REMARK                         _______ _______ _______ _____ _____    ______ ____
ROOT
ATOM      3  O   UNL     1      -3.128   2.461  21.548  0.00  0.00    -0.268 OA
ATOM      4  O   UNL     1      -3.741  -2.234  23.855  0.00  0.00    -0.275 OA
ATOM      7  N   UNL     1      -1.595  -1.440  24.253  0.00  0.00    -0.300 N 
ATOM      8  N   UNL     1      -1.530   1.456  22.933  0.00  0.00    -0.311 N 
ATOM      9  C   UNL     1      -0.323  -0.699  22.244  0.00  0.00    +0.027 C 
ATOM     10  C   UNL     1       0.149   0.328  24.426  0.00  0.00    +0.054 C 
ATOM     11  C   UNL     1       0.794  -0.189  23.141  0.00  0.00    +0.018 C 
ATOM     12  C   UNL     1      -1.103  -1.830  22.932  0.00  0.00    +0.113 C 
ATOM     13  C   UNL     1      -1.228   0.479  21.879  0.00  0.00    +0.130 C 
ATOM     14  C   UNL     1      -0.588  -0.829  25.132  0.00  0.00    +0.117 C 
ATOM     15  C   UNL     1      -0.818   1.482  24.148  0.00  0.00    +0.035 A 
ATOM     16  C   UNL     1      -1.024   2.493  25.032  0.00  0.00    +0.009 A 
ATOM     17  C   UNL     1      -2.489   2.429  22.599  0.00  0.00    +0.252 A 
ATOM     18  C   UNL     1      -2.913  -1.720  24.611  0.00  0.00    +0.225 C 
ATOM     19  C   UNL     1      -2.009   3.514  24.724  0.00  0.00    +0.016 A 
ATOM     20  C   UNL     1      -2.720   3.499  23.596  0.00  0.00    +0.071 A 
ENDROOT
BRANCH  16  21
ATOM      1  S   UNL     1      -1.150   2.536  27.781  0.00  0.00    -0.088 S 
ATOM     21  C   UNL     1      -0.286   2.574  26.312  0.00  0.00    +0.022 A 
ATOM     23  C   UNL     1       1.069   2.680  26.511  0.00  0.00    +0.024 A 
ATOM     24  C   UNL     1       1.427   2.734  27.901  0.00  0.00    -0.010 A 
ATOM     25  C   UNL     1       0.293   2.664  28.717  0.00  0.00    +0.020 A 
ATOM     26  C   UNL     1       2.694   2.841  28.523  0.00  0.00    +0.009 A 
ATOM     27  C   UNL     1       0.394   2.698  30.122  0.00  0.00    +0.015 A 
ATOM     29  C   UNL     1       2.797   2.876  29.916  0.00  0.00    +0.001 A 
ATOM     30  C   UNL     1       1.659   2.805  30.705  0.00  0.00    +0.001 A 
ENDBRANCH  16  21
BRANCH  18  22
ATOM     22  C   UNL     1      -3.325  -1.353  26.014  0.00  0.00    +0.165 C 
BRANCH  22   2
ATOM      2  S   UNL     1      -3.571   0.429  26.063  0.00  0.00    -0.140 S 
BRANCH   2  28
ATOM     28  C   UNL     1      -4.949   0.553  24.896  0.00  0.00    +0.189 C 
BRANCH  28  31
ATOM      6  O   UNL     1      -5.330   2.739  25.836  0.00  0.00    -0.250 OA
ATOM     31  C   UNL     1      -5.757   1.779  25.207  0.00  0.00    +0.315 C 
BRANCH  31   5
ATOM      5  O   UNL     1      -7.015   1.719  24.702  0.00  0.00    -0.480 OA
ATOM     32  H   UNL     1      -7.335   0.794  24.625  0.00  0.00    +0.295 HD
ENDBRANCH  31   5
ENDBRANCH  28  31
ENDBRANCH   2  28
ENDBRANCH  22   2
ENDBRANCH  18  22
TORSDOF 6
ENDMDL
MODEL 6
REMARK VINA RESULT:       7.6      2.723      4.991
REMARK  Name = 7144163
REMARK  6 active torsions:
REMARK  status: ('A' for Active; 'I' for Inactive)
REMARK    1  A    between atoms: S_2  and  C_22
REMARK    2  A    between atoms: S_2  and  C_28
REMARK    3  A    between atoms: O_5  and  C_31
REMARK    4  A    between atoms: C_16  and  C_21
REMARK    5  A    between atoms: C_18  and  C_22
REMARK    6  A    between atoms: C_28  and  C_31
REMARK                            x       y       z     vdW  Elec       q    Type
REMARK                         _______ _______ _______ _____ _____    ______ ____
ROOT
ATOM      3  O   UNL     1      -4.474  -1.870  24.216  0.00  0.00    -0.268 OA
ATOM      4  O   UNL     1      -2.973   2.052  21.037  0.00  0.00    -0.275 OA
ATOM      7  N   UNL     1      -2.985   2.790  23.240  0.00  0.00    -0.300 N 
ATOM      8  N   UNL     1      -3.735   0.223  24.964  0.00  0.00    -0.311 N 
ATOM      9  C   UNL     1      -5.080   2.359  24.516  0.00  0.00    +0.027 C 
ATOM     10  C   UNL     1      -2.936   2.487  25.710  0.00  0.00    +0.054 C 
ATOM     11  C   UNL     1      -4.412   2.872  25.782  0.00  0.00    +0.018 C 
ATOM     12  C   UNL     1      -4.435   2.981  23.267  0.00  0.00    +0.113 C 
ATOM     13  C   UNL     1      -4.990   0.832  24.504  0.00  0.00    +0.130 C 
ATOM     14  C   UNL     1      -2.289   3.158  24.480  0.00  0.00    +0.117 C 
ATOM     15  C   UNL     1      -2.751   0.968  25.644  0.00  0.00    +0.035 A 
ATOM     16  C   UNL     1      -1.677   0.337  26.184  0.00  0.00    +0.009 A 
ATOM     17  C   UNL     1      -3.639  -1.169  24.788  0.00  0.00    +0.252 A 
ATOM     18  C   UNL     1      -2.367   2.355  22.068  0.00  0.00    +0.225 C 
ATOM     19  C   UNL     1      -1.541  -1.099  26.019  0.00  0.00    +0.016 A 
ATOM     20  C   UNL     1      -2.440  -1.827  25.356  0.00  0.00    +0.071 A 
ENDROOT
BRANCH  16  21
ATOM      1  S   UNL     1       0.228   2.322  26.138  0.00  0.00    -0.088 S 
ATOM     21  C   UNL     1      -0.628   1.075  26.923  0.00  0.00    +0.022 A 
ATOM     23  C   UNL     1      -0.213   0.899  28.221  0.00  0.00    +0.024 A 
ATOM     24  C   UNL     1       0.835   1.804  28.599  0.00  0.00    -0.010 A 
ATOM     25  C   UNL     1       1.179   2.651  27.540  0.00  0.00    +0.020 A 
ATOM     26  C   UNL     1       1.529   1.950  29.825  0.00  0.00    +0.009 A 
ATOM     27  C   UNL     1       2.186   3.627  27.674  0.00  0.00    +0.015 A 
ATOM     29  C   UNL     1       2.528   2.918  29.960  0.00  0.00    +0.001 A 
ATOM     30  C   UNL     1       2.852   3.746  28.895  0.00  0.00    +0.001 A 
ENDBRANCH  16  21
BRANCH  18  22
ATOM     22  C   UNL     1      -0.863   2.252  22.096  0.00  0.00    +0.165 C 
BRANCH  22   2
ATOM      2  S   UNL     1      -0.438   0.641  22.774  0.00  0.00    -0.140 S 
BRANCH   2  28
ATOM     28  C   UNL     1       1.271   0.985  23.262  0.00  0.00    +0.189 C 
BRANCH  28  31
ATOM      6  O   UNL     1       1.983  -0.278  21.336  0.00  0.00    -0.250 OA
ATOM     31  C   UNL     1       2.200   0.102  22.479  0.00  0.00    +0.315 C 
BRANCH  31   5
ATOM      5  O   UNL     1       3.322  -0.220  23.171  0.00  0.00    -0.480 OA
ATOM     32  H   UNL     1       3.149  -0.906  23.852  0.00  0.00    +0.295 HD
ENDBRANCH  31   5
ENDBRANCH  28  31
ENDBRANCH   2  28
ENDBRANCH  22   2
ENDBRANCH  18  22
TORSDOF 6
ENDMDL
MODEL 7
REMARK VINA RESULT:       7.8      2.793      5.302
REMARK  Name = 7144163
REMARK  6 active torsions:
REMARK  status: ('A' for Active; 'I' for Inactive)
REMARK    1  A    between atoms: S_2  and  C_22
REMARK    2  A    between atoms: S_2  and  C_28
REMARK    3  A    between atoms: O_5  and  C_31
REMARK    4  A    between atoms: C_16  and  C_21
REMARK    5  A    between atoms: C_18  and  C_22
REMARK    6  A    between atoms: C_28  and  C_31
REMARK                            x       y       z     vdW  Elec       q    Type
REMARK                         _______ _______ _______ _____ _____    ______ ____
ROOT
ATOM      3  O   UNL     1       1.363   3.383  27.970  0.00  0.00    -0.268 OA
ATOM      4  O   UNL     1      -3.137   5.679  26.480  0.00  0.00    -0.275 OA
ATOM      7  N   UNL     1      -2.463   4.153  24.863  0.00  0.00    -0.300 N 
ATOM      8  N   UNL     1       0.145   2.779  26.063  0.00  0.00    -0.311 N 
ATOM      9  C   UNL     1      -0.111   4.376  24.074  0.00  0.00    +0.027 C 
ATOM     10  C   UNL     1      -1.203   2.175  24.029  0.00  0.00    +0.054 C 
ATOM     11  C   UNL     1      -0.267   3.103  23.257  0.00  0.00    +0.018 C 
ATOM     12  C   UNL     1      -1.472   5.060  24.285  0.00  0.00    +0.113 C 
ATOM     13  C   UNL     1       0.561   4.023  25.402  0.00  0.00    +0.130 C 
ATOM     14  C   UNL     1      -2.580   2.853  24.189  0.00  0.00    +0.117 C 
ATOM     15  C   UNL     1      -0.630   1.807  25.400  0.00  0.00    +0.035 A 
ATOM     16  C   UNL     1      -0.865   0.608  25.994  0.00  0.00    +0.009 A 
ATOM     17  C   UNL     1       0.670   2.575  27.351  0.00  0.00    +0.252 A 
ATOM     18  C   UNL     1      -3.253   4.581  25.929  0.00  0.00    +0.225 C 
ATOM     19  C   UNL     1      -0.342   0.362  27.325  0.00  0.00    +0.016 A 
ATOM     20  C   UNL     1       0.369   1.273  27.990  0.00  0.00    +0.071 A 
ENDROOT
BRANCH  16  21
ATOM      1  S   UNL     1      -0.908  -1.928  24.926  0.00  0.00    -0.088 S 
ATOM     21  C   UNL     1      -1.656  -0.451  25.329  0.00  0.00    +0.022 A 
ATOM     23  C   UNL     1      -2.981  -0.425  24.964  0.00  0.00    +0.024 A 
ATOM     24  C   UNL     1      -3.410  -1.643  24.336  0.00  0.00    -0.010 A 
ATOM     25  C   UNL     1      -2.362  -2.564  24.250  0.00  0.00    +0.020 A 
ATOM     26  C   UNL     1      -4.675  -2.018  23.822  0.00  0.00    +0.009 A 
ATOM     27  C   UNL     1      -2.544  -3.835  23.670  0.00  0.00    +0.015 A 
ATOM     29  C   UNL     1      -4.859  -3.277  23.246  0.00  0.00    +0.001 A 
ATOM     30  C   UNL     1      -3.804  -4.175  23.171  0.00  0.00    +0.001 A 
ENDBRANCH  16  21
BRANCH  18  22
ATOM     22  C   UNL     1      -4.301   3.616  26.424  0.00  0.00    +0.165 C 
BRANCH  22   2
ATOM      2  S   UNL     1      -5.824   3.959  25.529  0.00  0.00    -0.140 S 
BRANCH   2  28
ATOM     28  C   UNL     1      -6.137   2.304  24.866  0.00  0.00    +0.189 C 
BRANCH  28  31
ATOM      6  O   UNL     1      -5.236   0.399  26.035  0.00  0.00    -0.250 OA
ATOM     31  C   UNL     1      -6.064   1.299  25.978  0.00  0.00    +0.315 C 
BRANCH  31   5
ATOM      5  O   UNL     1      -7.009   1.502  26.930  0.00  0.00    -0.480 OA
ATOM     32  H   UNL     1      -7.320   2.433  26.945  0.00  0.00    +0.295 HD
ENDBRANCH  31   5
ENDBRANCH  28  31
ENDBRANCH   2  28
ENDBRANCH  22   2
ENDBRANCH  18  22
TORSDOF 6
ENDMDL
