MODEL 1
REMARK VINA RESULT:       2.3      0.000      0.000
REMARK  Name = 45361204
REMARK  8 active torsions:
REMARK  status: ('A' for Active; 'I' for Inactive)
REMARK    1  A    between atoms: O_6  and  C_28
REMARK    2  A    between atoms: N_7  and  C_20
REMARK    3  A    between atoms: N_8  and  C_19
REMARK    4  A    between atoms: C_15  and  C_18
REMARK    5  A    between atoms: C_18  and  C_21
REMARK    6  A    between atoms: C_19  and  C_22
REMARK    7  A    between atoms: C_21  and  C_23
REMARK    8  A    between atoms: C_33  and  C_34
REMARK                            x       y       z     vdW  Elec       q    Type
REMARK                         _______ _______ _______ _____ _____    ______ ____
ROOT
ATOM      4  O   UNL     1      -1.231   2.094  23.577  0.00  0.00    -0.274 OA
ATOM      7  N   UNL     1      -3.165  -0.732  25.383  0.00  0.00    -0.296 NA
ATOM      8  N   UNL     1       0.095  -0.248  23.793  0.00  0.00    -0.286 NA
ATOM      9  N   UNL     1      -3.272   1.135  23.188  0.00  0.00    -0.312 N 
ATOM     11  C   UNL     1      -1.945  -1.207  24.694  0.00  0.00    +0.084 C 
ATOM     12  C   UNL     1      -1.357  -0.336  23.546  0.00  0.00    +0.161 C 
ATOM     13  C   UNL     1      -0.728  -1.377  25.622  0.00  0.00    +0.036 C 
ATOM     14  C   UNL     1       0.448  -1.359  24.669  0.00  0.00    +0.087 C 
ATOM     15  C   UNL     1      -4.371  -0.645  24.514  0.00  0.00    +0.074 C 
ATOM     16  C   UNL     1      -1.918   1.081  23.456  0.00  0.00    +0.232 C 
ATOM     17  C   UNL     1      -4.122  -0.037  23.119  0.00  0.00    +0.123 C 
ATOM     20  C   UNL     1      -3.451  -1.558  26.569  0.00  0.00    +0.105 C 
ATOM     35  H   UNL     1      -3.691   2.048  23.038  0.00  0.00    +0.149 HD
ENDROOT
BRANCH  15  18
ATOM     18  C   UNL     1      -5.470   0.194  25.196  0.00  0.00    +0.029 C 
BRANCH  18  21
ATOM     21  C   UNL     1      -4.891   1.355  25.983  0.00  0.00    +0.097 C 
BRANCH  21  23
ATOM      5  O   UNL     1      -5.802   2.763  24.309  0.00  0.00    -0.276 OA
ATOM     10  N   UNL     1      -3.997   3.607  25.503  0.00  0.00    -0.301 N 
ATOM     23  C   UNL     1      -4.944   2.635  25.187  0.00  0.00    +0.216 C 
ATOM     24  C   UNL     1      -4.014   4.895  24.805  0.00  0.00    +0.110 C 
ATOM     25  C   UNL     1      -2.965   3.482  26.542  0.00  0.00    +0.110 C 
ATOM     26  C   UNL     1      -2.649   5.203  24.198  0.00  0.00    +0.050 C 
ATOM     27  C   UNL     1      -1.581   3.767  25.967  0.00  0.00    +0.050 C 
ATOM     28  C   UNL     1      -1.543   5.117  25.252  0.00  0.00    +0.118 C 
BRANCH  28   6
ATOM      6  O   UNL     1      -0.273   5.273  24.631  0.00  0.00    -0.392 OA
ATOM     36  H   UNL     1      -0.427   5.542  23.710  0.00  0.00    +0.210 HD
ENDBRANCH  28   6
ENDBRANCH  21  23
ENDBRANCH  18  21
ENDBRANCH  15  18
BRANCH   8  19
ATOM     19  C   UNL     1       0.889  -0.240  22.572  0.00  0.00    +0.120 C 
BRANCH  19  22
ATOM     22  C   UNL     1       2.367  -0.212  22.864  0.00  0.00    -0.033 A 
ATOM     29  C   UNL     1       3.116   0.927  22.569  0.00  0.00    +0.005 A 
ATOM     30  C   UNL     1       2.986  -1.327  23.432  0.00  0.00    +0.005 A 
ATOM     31  C   UNL     1       4.483   0.952  22.841  0.00  0.00    +0.012 A 
ATOM     32  C   UNL     1       4.354  -1.301  23.703  0.00  0.00    +0.012 A 
ATOM     33  C   UNL     1       5.102  -0.161  23.408  0.00  0.00    +0.055 A 
BRANCH  33  34
ATOM      1  F   UNL     1       7.344  -0.466  22.632  0.00  0.00    -0.166 F 
ATOM      2  F   UNL     1       6.916  -1.002  24.695  0.00  0.00    -0.166 F 
ATOM      3  F   UNL     1       7.017   1.089  24.108  0.00  0.00    -0.166 F 
ATOM     34  C   UNL     1       6.564  -0.134  23.702  0.00  0.00    +0.417 C 
ENDBRANCH  33  34
ENDBRANCH  19  22
ENDBRANCH   8  19
TORSDOF 7
ENDMDL
MODEL 2
REMARK VINA RESULT:       4.2      1.752      2.814
REMARK  Name = 45361204
REMARK  8 active torsions:
REMARK  status: ('A' for Active; 'I' for Inactive)
REMARK    1  A    between atoms: O_6  and  C_28
REMARK    2  A    between atoms: N_7  and  C_20
REMARK    3  A    between atoms: N_8  and  C_19
REMARK    4  A    between atoms: C_15  and  C_18
REMARK    5  A    between atoms: C_18  and  C_21
REMARK    6  A    between atoms: C_19  and  C_22
REMARK    7  A    between atoms: C_21  and  C_23
REMARK    8  A    between atoms: C_33  and  C_34
REMARK                            x       y       z     vdW  Elec       q    Type
REMARK                         _______ _______ _______ _____ _____    ______ ____
ROOT
ATOM      4  O   UNL     1      -1.436   1.545  24.091  0.00  0.00    -0.274 OA
ATOM      7  N   UNL     1      -5.006   1.208  25.553  0.00  0.00    -0.296 NA
ATOM      8  N   UNL     1      -2.233  -0.983  24.604  0.00  0.00    -0.286 NA
ATOM      9  N   UNL     1      -3.479   2.252  23.339  0.00  0.00    -0.312 N 
ATOM     11  C   UNL     1      -4.428  -0.083  25.118  0.00  0.00    +0.084 C 
ATOM     12  C   UNL     1      -3.263  -0.063  24.086  0.00  0.00    +0.161 C 
ATOM     13  C   UNL     1      -3.825  -0.915  26.265  0.00  0.00    +0.036 C 
ATOM     14  C   UNL     1      -2.892  -1.872  25.554  0.00  0.00    +0.087 C 
ATOM     15  C   UNL     1      -5.667   1.984  24.467  0.00  0.00    +0.074 C 
ATOM     16  C   UNL     1      -2.620   1.303  23.862  0.00  0.00    +0.232 C 
ATOM     17  C   UNL     1      -4.895   2.022  23.133  0.00  0.00    +0.123 C 
ATOM     20  C   UNL     1      -5.935   1.013  26.679  0.00  0.00    +0.105 C 
ATOM     35  H   UNL     1      -3.093   3.159  23.094  0.00  0.00    +0.149 HD
ENDROOT
BRANCH  15  18
ATOM     18  C   UNL     1      -5.900   3.442  24.910  0.00  0.00    +0.029 C 
BRANCH  18  21
ATOM     21  C   UNL     1      -4.828   3.922  25.871  0.00  0.00    +0.097 C 
BRANCH  21  23
ATOM      5  O   UNL     1      -3.895   5.183  24.096  0.00  0.00    -0.276 OA
ATOM     10  N   UNL     1      -2.406   4.367  25.680  0.00  0.00    -0.301 N 
ATOM     23  C   UNL     1      -3.674   4.551  25.131  0.00  0.00    +0.216 C 
ATOM     24  C   UNL     1      -1.240   4.986  25.045  0.00  0.00    +0.110 C 
ATOM     25  C   UNL     1      -2.113   3.618  26.910  0.00  0.00    +0.110 C 
ATOM     26  C   UNL     1      -0.161   3.947  24.756  0.00  0.00    +0.050 C 
ATOM     27  C   UNL     1      -1.047   2.556  26.657  0.00  0.00    +0.050 C 
ATOM     28  C   UNL     1       0.202   3.162  26.019  0.00  0.00    +0.118 C 
BRANCH  28   6
ATOM      6  O   UNL     1       1.106   2.114  25.691  0.00  0.00    -0.392 OA
ATOM     36  H   UNL     1       1.548   1.840  26.512  0.00  0.00    +0.210 HD
ENDBRANCH  28   6
ENDBRANCH  21  23
ENDBRANCH  18  21
ENDBRANCH  15  18
BRANCH   8  19
ATOM     19  C   UNL     1      -1.537  -1.720  23.557  0.00  0.00    +0.120 C 
BRANCH  19  22
ATOM     22  C   UNL     1      -0.179  -1.135  23.268  0.00  0.00    -0.033 A 
ATOM     29  C   UNL     1       0.155  -0.756  21.968  0.00  0.00    +0.005 A 
ATOM     30  C   UNL     1       0.744  -0.973  24.302  0.00  0.00    +0.005 A 
ATOM     31  C   UNL     1       1.412  -0.214  21.701  0.00  0.00    +0.012 A 
ATOM     32  C   UNL     1       2.001  -0.431  24.034  0.00  0.00    +0.012 A 
ATOM     33  C   UNL     1       2.335  -0.051  22.734  0.00  0.00    +0.055 A 
BRANCH  33  34
ATOM      1  F   UNL     1       4.707  -0.163  23.017  0.00  0.00    -0.166 F 
ATOM      2  F   UNL     1       3.803   1.811  22.909  0.00  0.00    -0.166 F 
ATOM      3  F   UNL     1       3.978   0.590  21.119  0.00  0.00    -0.166 F 
ATOM     34  C   UNL     1       3.678   0.531  22.450  0.00  0.00    +0.417 C 
ENDBRANCH  33  34
ENDBRANCH  19  22
ENDBRANCH   8  19
TORSDOF 7
ENDMDL
MODEL 3
REMARK VINA RESULT:       4.6      4.707      7.752
REMARK  Name = 45361204
REMARK  8 active torsions:
REMARK  status: ('A' for Active; 'I' for Inactive)
REMARK    1  A    between atoms: O_6  and  C_28
REMARK    2  A    between atoms: N_7  and  C_20
REMARK    3  A    between atoms: N_8  and  C_19
REMARK    4  A    between atoms: C_15  and  C_18
REMARK    5  A    between atoms: C_18  and  C_21
REMARK    6  A    between atoms: C_19  and  C_22
REMARK    7  A    between atoms: C_21  and  C_23
REMARK    8  A    between atoms: C_33  and  C_34
REMARK                            x       y       z     vdW  Elec       q    Type
REMARK                         _______ _______ _______ _____ _____    ______ ____
ROOT
ATOM      4  O   UNL     1       0.596   2.806  27.009  0.00  0.00    -0.274 OA
ATOM      7  N   UNL     1       0.743   0.560  23.858  0.00  0.00    -0.296 NA
ATOM      8  N   UNL     1       0.161   4.080  24.669  0.00  0.00    -0.286 NA
ATOM      9  N   UNL     1      -0.538   0.908  26.419  0.00  0.00    -0.312 N 
ATOM     11  C   UNL     1       0.188   1.905  23.592  0.00  0.00    +0.084 C 
ATOM     12  C   UNL     1      -0.392   2.718  24.786  0.00  0.00    +0.161 C 
ATOM     13  C   UNL     1       1.206   2.895  22.996  0.00  0.00    +0.036 C 
ATOM     14  C   UNL     1       0.594   4.249  23.287  0.00  0.00    +0.087 C 
ATOM     15  C   UNL     1      -0.252  -0.430  24.356  0.00  0.00    +0.074 C 
ATOM     16  C   UNL     1      -0.042   2.173  26.169  0.00  0.00    +0.232 C 
ATOM     17  C   UNL     1      -1.224   0.107  25.425  0.00  0.00    +0.123 C 
ATOM     20  C   UNL     1       1.435   0.034  22.670  0.00  0.00    +0.105 C 
ATOM     35  H   UNL     1      -0.407   0.521  27.349  0.00  0.00    +0.149 HD
ENDROOT
BRANCH  15  18
ATOM     18  C   UNL     1       0.461  -1.660  24.952  0.00  0.00    +0.029 C 
BRANCH  18  21
ATOM     21  C   UNL     1      -0.524  -2.701  25.452  0.00  0.00    +0.097 C 
BRANCH  21  23
ATOM      5  O   UNL     1      -1.290  -3.585  23.391  0.00  0.00    -0.276 OA
ATOM     10  N   UNL     1      -2.875  -2.522  24.716  0.00  0.00    -0.301 N 
ATOM     23  C   UNL     1      -1.591  -2.980  24.424  0.00  0.00    +0.216 C 
ATOM     24  C   UNL     1      -3.975  -2.795  23.788  0.00  0.00    +0.110 C 
ATOM     25  C   UNL     1      -3.262  -1.799  25.935  0.00  0.00    +0.110 C 
ATOM     26  C   UNL     1      -4.694  -1.506  23.401  0.00  0.00    +0.050 C 
ATOM     27  C   UNL     1      -3.971  -0.493  25.589  0.00  0.00    +0.050 C 
ATOM     28  C   UNL     1      -5.147  -0.733  24.642  0.00  0.00    +0.118 C 
BRANCH  28   6
ATOM      6  O   UNL     1      -5.689   0.524  24.255  0.00  0.00    -0.392 OA
ATOM     36  H   UNL     1      -5.701   0.552  23.284  0.00  0.00    +0.210 HD
ENDBRANCH  28   6
ENDBRANCH  21  23
ENDBRANCH  18  21
ENDBRANCH  15  18
BRANCH   8  19
ATOM     19  C   UNL     1      -0.774   5.120  25.080  0.00  0.00    +0.120 C 
BRANCH  19  22
ATOM     22  C   UNL     1      -2.172   4.583  25.248  0.00  0.00    -0.033 A 
ATOM     29  C   UNL     1      -2.723   4.459  26.523  0.00  0.00    +0.005 A 
ATOM     30  C   UNL     1      -2.914   4.209  24.127  0.00  0.00    +0.005 A 
ATOM     31  C   UNL     1      -4.017   3.963  26.677  0.00  0.00    +0.012 A 
ATOM     32  C   UNL     1      -4.208   3.713  24.282  0.00  0.00    +0.012 A 
ATOM     33  C   UNL     1      -4.760   3.590  25.558  0.00  0.00    +0.055 A 
BRANCH  33  34
ATOM      1  F   UNL     1      -6.602   2.374  24.636  0.00  0.00    -0.166 F 
ATOM      2  F   UNL     1      -7.061   4.051  25.941  0.00  0.00    -0.166 F 
ATOM      3  F   UNL     1      -6.280   2.200  26.774  0.00  0.00    -0.166 F 
ATOM     34  C   UNL     1      -6.145   3.062  25.723  0.00  0.00    +0.417 C 
ENDBRANCH  33  34
ENDBRANCH  19  22
ENDBRANCH   8  19
TORSDOF 7
ENDMDL
