MODEL 1
REMARK VINA RESULT:       1.5      0.000      0.000
REMARK  Name = 44715929
REMARK  7 active torsions:
REMARK  status: ('A' for Active; 'I' for Inactive)
REMARK    1  A    between atoms: N_4  and  C_15
REMARK    2  A    between atoms: N_5  and  C_17
REMARK    3  A    between atoms: C_9  and  C_16
REMARK    4  A    between atoms: C_10  and  C_15
REMARK    5  A    between atoms: C_17  and  C_20
REMARK    6  A    between atoms: C_17  and  C_21
REMARK    7  A    between atoms: C_19  and  C_22
REMARK                            x       y       z     vdW  Elec       q    Type
REMARK                         _______ _______ _______ _____ _____    ______ ____
ROOT
ATOM      3  N   UNL     1       0.128  -1.774  25.124  0.00  0.00    -0.297 NA
ATOM      8  C   UNL     1       0.022   0.068  23.289  0.00  0.00    +0.005 C 
ATOM      9  C   UNL     1       1.374  -0.672  23.264  0.00  0.00    +0.092 C 
ATOM     10  C   UNL     1      -0.876  -2.140  24.087  0.00  0.00    +0.078 C 
ATOM     11  C   UNL     1      -1.081  -0.987  23.077  0.00  0.00    +0.025 C 
ATOM     12  C   UNL     1      -0.210   0.663  24.690  0.00  0.00    +0.020 C 
ATOM     13  C   UNL     1       1.451  -1.635  24.464  0.00  0.00    +0.097 C 
ATOM     14  C   UNL     1      -0.205  -0.466  25.733  0.00  0.00    +0.085 C 
ENDROOT
BRANCH   9  16
ATOM      2  O   UNL     1       2.358   1.503  23.227  0.00  0.00    -0.275 OA
ATOM      5  N   UNL     1       3.748  -0.364  23.266  0.00  0.00    -0.313 N 
ATOM     16  C   UNL     1       2.527   0.286  23.257  0.00  0.00    +0.218 C 
ATOM     28  H   UNL     1       3.769  -1.378  23.330  0.00  0.00    +0.149 HD
BRANCH   5  17
ATOM     17  C   UNL     1       5.015   0.333  23.240  0.00  0.00    +0.067 C 
ATOM     20  C   UNL     1       5.458   0.689  24.654  0.00  0.00    +0.027 C 
ATOM     21  C   UNL     1       6.067  -0.508  22.528  0.00  0.00    +0.027 C 
ENDBRANCH   5  17
ENDBRANCH   9  16
BRANCH  10  15
ATOM     15  C   UNL     1      -2.201  -2.596  24.702  0.00  0.00    +0.164 C 
BRANCH  15   4
ATOM      4  N   UNL     1      -3.255  -1.531  24.593  0.00  0.00    -0.250 N 
ATOM      6  N   UNL     1      -4.419  -1.780  23.972  0.00  0.00    -0.065 NA
ATOM      7  N   UNL     1      -5.143  -0.667  24.031  0.00  0.00    -0.130 NA
ATOM     18  C   UNL     1      -3.201  -0.257  25.067  0.00  0.00    +0.138 A 
ATOM     19  C   UNL     1      -4.412   0.275  24.699  0.00  0.00    +0.113 A 
BRANCH  19  22
ATOM      1  F   UNL     1      -6.124   5.458  25.739  0.00  0.00    -0.205 F 
ATOM     22  C   UNL     1      -4.852   1.606  24.966  0.00  0.00    +0.004 A 
ATOM     23  C   UNL     1      -4.040   2.690  24.628  0.00  0.00    +0.013 A 
ATOM     24  C   UNL     1      -6.093   1.825  25.564  0.00  0.00    +0.013 A 
ATOM     25  C   UNL     1      -4.470   3.991  24.889  0.00  0.00    +0.039 A 
ATOM     26  C   UNL     1      -6.523   3.125  25.826  0.00  0.00    +0.039 A 
ATOM     27  C   UNL     1      -5.711   4.209  25.488  0.00  0.00    +0.123 A 
ENDBRANCH  19  22
ENDBRANCH  15   4
ENDBRANCH  10  15
TORSDOF 5
ENDMDL
MODEL 2
REMARK VINA RESULT:       2.8      3.641      8.152
REMARK  Name = 44715929
REMARK  7 active torsions:
REMARK  status: ('A' for Active; 'I' for Inactive)
REMARK    1  A    between atoms: N_4  and  C_15
REMARK    2  A    between atoms: N_5  and  C_17
REMARK    3  A    between atoms: C_9  and  C_16
REMARK    4  A    between atoms: C_10  and  C_15
REMARK    5  A    between atoms: C_17  and  C_20
REMARK    6  A    between atoms: C_17  and  C_21
REMARK    7  A    between atoms: C_19  and  C_22
REMARK                            x       y       z     vdW  Elec       q    Type
REMARK                         _______ _______ _______ _____ _____    ______ ____
ROOT
ATOM      3  N   UNL     1      -3.671  -0.767  24.154  0.00  0.00    -0.297 NA
ATOM      8  C   UNL     1      -2.649   1.475  24.992  0.00  0.00    +0.005 C 
ATOM      9  C   UNL     1      -4.076   1.271  25.537  0.00  0.00    +0.092 C 
ATOM     10  C   UNL     1      -2.537  -1.035  25.080  0.00  0.00    +0.078 C 
ATOM     11  C   UNL     1      -1.805   0.273  25.460  0.00  0.00    +0.025 C 
ATOM     12  C   UNL     1      -2.675   1.415  23.454  0.00  0.00    +0.020 C 
ATOM     13  C   UNL     1      -4.697   0.020  24.887  0.00  0.00    +0.097 C 
ATOM     14  C   UNL     1      -3.223   0.051  23.003  0.00  0.00    +0.085 C 
ENDROOT
BRANCH   9  16
ATOM      2  O   UNL     1      -6.117   2.392  25.012  0.00  0.00    -0.275 OA
ATOM      5  N   UNL     1      -4.219   3.660  25.468  0.00  0.00    -0.313 N 
ATOM     16  C   UNL     1      -4.930   2.483  25.314  0.00  0.00    +0.218 C 
ATOM     28  H   UNL     1      -3.247   3.617  25.758  0.00  0.00    +0.149 HD
BRANCH   5  17
ATOM     17  C   UNL     1      -4.807   4.968  25.285  0.00  0.00    +0.067 C 
ATOM     20  C   UNL     1      -4.563   5.471  23.868  0.00  0.00    +0.027 C 
ATOM     21  C   UNL     1      -6.296   4.929  25.608  0.00  0.00    +0.027 C 
ENDBRANCH   5  17
ENDBRANCH   9  16
BRANCH  10  15
ATOM     15  C   UNL     1      -1.572  -2.082  24.522  0.00  0.00    +0.164 C 
BRANCH  15   4
ATOM      4  N   UNL     1      -0.371  -1.441  23.884  0.00  0.00    -0.250 N 
ATOM      6  N   UNL     1      -0.494  -0.734  22.750  0.00  0.00    -0.065 NA
ATOM      7  N   UNL     1       0.717  -0.294  22.426  0.00  0.00    -0.130 NA
ATOM     18  C   UNL     1       0.918  -1.473  24.318  0.00  0.00    +0.138 A 
ATOM     19  C   UNL     1       1.593  -0.737  23.377  0.00  0.00    +0.113 A 
BRANCH  19  22
ATOM      1  F   UNL     1       7.050   0.309  23.384  0.00  0.00    -0.205 F 
ATOM     22  C   UNL     1       2.995  -0.469  23.379  0.00  0.00    +0.004 A 
ATOM     23  C   UNL     1       3.473   0.745  22.884  0.00  0.00    +0.013 A 
ATOM     24  C   UNL     1       3.887  -1.418  23.876  0.00  0.00    +0.013 A 
ATOM     25  C   UNL     1       4.843   1.007  22.886  0.00  0.00    +0.039 A 
ATOM     26  C   UNL     1       5.257  -1.157  23.878  0.00  0.00    +0.039 A 
ATOM     27  C   UNL     1       5.735   0.057  23.382  0.00  0.00    +0.123 A 
ENDBRANCH  19  22
ENDBRANCH  15   4
ENDBRANCH  10  15
TORSDOF 5
ENDMDL
MODEL 3
REMARK VINA RESULT:       2.8      3.659      8.118
REMARK  Name = 44715929
REMARK  7 active torsions:
REMARK  status: ('A' for Active; 'I' for Inactive)
REMARK    1  A    between atoms: N_4  and  C_15
REMARK    2  A    between atoms: N_5  and  C_17
REMARK    3  A    between atoms: C_9  and  C_16
REMARK    4  A    between atoms: C_10  and  C_15
REMARK    5  A    between atoms: C_17  and  C_20
REMARK    6  A    between atoms: C_17  and  C_21
REMARK    7  A    between atoms: C_19  and  C_22
REMARK                            x       y       z     vdW  Elec       q    Type
REMARK                         _______ _______ _______ _____ _____    ______ ____
ROOT
ATOM      3  N   UNL     1      -2.152   0.060  24.004  0.00  0.00    -0.297 NA
ATOM      8  C   UNL     1      -4.017  -0.622  25.687  0.00  0.00    +0.005 C 
ATOM      9  C   UNL     1      -4.522   0.438  24.688  0.00  0.00    +0.092 C 
ATOM     10  C   UNL     1      -2.560  -1.353  23.773  0.00  0.00    +0.078 C 
ATOM     11  C   UNL     1      -3.544  -1.836  24.865  0.00  0.00    +0.025 C 
ATOM     12  C   UNL     1      -2.775  -0.082  26.419  0.00  0.00    +0.020 C 
ATOM     13  C   UNL     1      -3.346   0.926  23.822  0.00  0.00    +0.097 C 
ATOM     14  C   UNL     1      -1.677   0.245  25.394  0.00  0.00    +0.085 C 
ENDROOT
BRANCH   9  16
ATOM      2  O   UNL     1      -6.363   1.510  25.766  0.00  0.00    -0.275 OA
ATOM      5  N   UNL     1      -4.363   2.676  25.523  0.00  0.00    -0.313 N 
ATOM     16  C   UNL     1      -5.196   1.580  25.389  0.00  0.00    +0.218 C 
ATOM     28  H   UNL     1      -3.400   2.608  25.207  0.00  0.00    +0.149 HD
BRANCH   5  17
ATOM     17  C   UNL     1      -4.779   3.913  26.144  0.00  0.00    +0.067 C 
ATOM     20  C   UNL     1      -3.578   4.816  26.397  0.00  0.00    +0.027 C 
ATOM     21  C   UNL     1      -5.823   4.613  25.283  0.00  0.00    +0.027 C 
ENDBRANCH   5  17
ENDBRANCH   9  16
BRANCH  10  15
ATOM     15  C   UNL     1      -1.356  -2.288  23.643  0.00  0.00    +0.164 C 
BRANCH  15   4
ATOM      4  N   UNL     1      -0.117  -1.537  23.243  0.00  0.00    -0.250 N 
ATOM      6  N   UNL     1      -0.137  -0.685  22.206  0.00  0.00    -0.065 NA
ATOM      7  N   UNL     1       1.085  -0.176  22.090  0.00  0.00    -0.130 NA
ATOM     18  C   UNL     1       1.114  -1.597  23.820  0.00  0.00    +0.138 A 
ATOM     19  C   UNL     1       1.863  -0.724  23.072  0.00  0.00    +0.113 A 
BRANCH  19  22
ATOM      1  F   UNL     1       7.238   0.442  23.867  0.00  0.00    -0.205 F 
ATOM     22  C   UNL     1       3.244  -0.425  23.277  0.00  0.00    +0.004 A 
ATOM     23  C   UNL     1       3.745   0.829  22.924  0.00  0.00    +0.013 A 
ATOM     24  C   UNL     1       4.092  -1.384  23.829  0.00  0.00    +0.013 A 
ATOM     25  C   UNL     1       5.094   1.121  23.124  0.00  0.00    +0.039 A 
ATOM     26  C   UNL     1       5.441  -1.092  24.028  0.00  0.00    +0.039 A 
ATOM     27  C   UNL     1       5.943   0.161  23.676  0.00  0.00    +0.123 A 
ENDBRANCH  19  22
ENDBRANCH  15   4
ENDBRANCH  10  15
TORSDOF 5
ENDMDL
MODEL 4
REMARK VINA RESULT:       3.5      3.769      7.781
REMARK  Name = 44715929
REMARK  7 active torsions:
REMARK  status: ('A' for Active; 'I' for Inactive)
REMARK    1  A    between atoms: N_4  and  C_15
REMARK    2  A    between atoms: N_5  and  C_17
REMARK    3  A    between atoms: C_9  and  C_16
REMARK    4  A    between atoms: C_10  and  C_15
REMARK    5  A    between atoms: C_17  and  C_20
REMARK    6  A    between atoms: C_17  and  C_21
REMARK    7  A    between atoms: C_19  and  C_22
REMARK                            x       y       z     vdW  Elec       q    Type
REMARK                         _______ _______ _______ _____ _____    ______ ____
ROOT
ATOM      3  N   UNL     1      -3.261   0.170  23.870  0.00  0.00    -0.297 NA
ATOM      8  C   UNL     1      -1.916   1.823  25.364  0.00  0.00    +0.005 C 
ATOM      9  C   UNL     1      -3.433   1.959  25.602  0.00  0.00    +0.092 C 
ATOM     10  C   UNL     1      -2.470  -0.581  24.883  0.00  0.00    +0.078 C 
ATOM     11  C   UNL     1      -1.533   0.363  25.673  0.00  0.00    +0.025 C 
ATOM     12  C   UNL     1      -1.611   2.046  23.871  0.00  0.00    +0.020 C 
ATOM     13  C   UNL     1      -4.190   1.083  24.587  0.00  0.00    +0.097 C 
ATOM     14  C   UNL     1      -2.373   1.008  23.032  0.00  0.00    +0.085 C 
ENDROOT
BRANCH   9  16
ATOM      2  O   UNL     1      -4.999   3.737  25.887  0.00  0.00    -0.275 OA
ATOM      5  N   UNL     1      -2.899   4.216  25.005  0.00  0.00    -0.313 N 
ATOM     16  C   UNL     1      -3.877   3.389  25.529  0.00  0.00    +0.218 C 
ATOM     28  H   UNL     1      -1.990   3.824  24.777  0.00  0.00    +0.149 HD
BRANCH   5  17
ATOM     17  C   UNL     1      -3.086   5.636  24.810  0.00  0.00    +0.067 C 
ATOM     20  C   UNL     1      -1.754   6.369  24.908  0.00  0.00    +0.027 C 
ATOM     21  C   UNL     1      -3.764   5.901  23.472  0.00  0.00    +0.027 C 
ENDBRANCH   5  17
ENDBRANCH   9  16
BRANCH  10  15
ATOM     15  C   UNL     1      -1.704  -1.751  24.265  0.00  0.00    +0.164 C 
BRANCH  15   4
ATOM      4  N   UNL     1      -0.421  -1.296  23.629  0.00  0.00    -0.250 N 
ATOM      6  N   UNL     1      -0.392  -0.919  22.340  0.00  0.00    -0.065 NA
ATOM      7  N   UNL     1       0.860  -0.573  22.059  0.00  0.00    -0.130 NA
ATOM     18  C   UNL     1       0.807  -1.201  24.207  0.00  0.00    +0.138 A 
ATOM     19  C   UNL     1       1.606  -0.739  23.192  0.00  0.00    +0.113 A 
BRANCH  19  22
ATOM      1  F   UNL     1       7.050   0.311  23.575  0.00  0.00    -0.205 F 
ATOM     22  C   UNL     1       3.005  -0.470  23.291  0.00  0.00    +0.004 A 
ATOM     23  C   UNL     1       3.510   0.758  22.861  0.00  0.00    +0.013 A 
ATOM     24  C   UNL     1       3.866  -1.432  23.817  0.00  0.00    +0.013 A 
ATOM     25  C   UNL     1       4.877   1.021  22.957  0.00  0.00    +0.039 A 
ATOM     26  C   UNL     1       5.232  -1.169  23.913  0.00  0.00    +0.039 A 
ATOM     27  C   UNL     1       5.738   0.058  23.482  0.00  0.00    +0.123 A 
ENDBRANCH  19  22
ENDBRANCH  15   4
ENDBRANCH  10  15
TORSDOF 5
ENDMDL
MODEL 5
REMARK VINA RESULT:       3.8      3.458      7.423
REMARK  Name = 44715929
REMARK  7 active torsions:
REMARK  status: ('A' for Active; 'I' for Inactive)
REMARK    1  A    between atoms: N_4  and  C_15
REMARK    2  A    between atoms: N_5  and  C_17
REMARK    3  A    between atoms: C_9  and  C_16
REMARK    4  A    between atoms: C_10  and  C_15
REMARK    5  A    between atoms: C_17  and  C_20
REMARK    6  A    between atoms: C_17  and  C_21
REMARK    7  A    between atoms: C_19  and  C_22
REMARK                            x       y       z     vdW  Elec       q    Type
REMARK                         _______ _______ _______ _____ _____    ______ ____
ROOT
ATOM      3  N   UNL     1      -4.029   0.064  23.716  0.00  0.00    -0.297 NA
ATOM      8  C   UNL     1      -2.796   1.422  25.562  0.00  0.00    +0.005 C 
ATOM      9  C   UNL     1      -4.285   1.814  25.477  0.00  0.00    +0.092 C 
ATOM     10  C   UNL     1      -3.617  -0.837  24.828  0.00  0.00    +0.078 C 
ATOM     11  C   UNL     1      -2.737  -0.089  25.856  0.00  0.00    +0.025 C 
ATOM     12  C   UNL     1      -2.135   1.624  24.186  0.00  0.00    +0.020 C 
ATOM     13  C   UNL     1      -4.931   1.107  24.270  0.00  0.00    +0.097 C 
ATOM     14  C   UNL     1      -2.852   0.754  23.141  0.00  0.00    +0.085 C 
ENDROOT
BRANCH   9  16
ATOM      2  O   UNL     1      -5.548   3.836  25.599  0.00  0.00    -0.275 OA
ATOM      5  N   UNL     1      -3.286   3.950  25.058  0.00  0.00    -0.313 N 
ATOM     16  C   UNL     1      -4.461   3.301  25.397  0.00  0.00    +0.218 C 
ATOM     28  H   UNL     1      -2.434   3.407  24.951  0.00  0.00    +0.149 HD
BRANCH   5  17
ATOM     17  C   UNL     1      -3.194   5.383  24.895  0.00  0.00    +0.067 C 
ATOM     20  C   UNL     1      -1.759   5.853  25.095  0.00  0.00    +0.027 C 
ATOM     21  C   UNL     1      -3.724   5.796  23.528  0.00  0.00    +0.027 C 
ENDBRANCH   5  17
ENDBRANCH   9  16
BRANCH  10  15
ATOM     15  C   UNL     1      -2.936  -2.108  24.318  0.00  0.00    +0.164 C 
BRANCH  15   4
ATOM      4  N   UNL     1      -1.440  -2.016  24.433  0.00  0.00    -0.250 N 
ATOM      6  N   UNL     1      -0.778  -2.735  25.354  0.00  0.00    -0.065 NA
ATOM      7  N   UNL     1       0.513  -2.453  25.221  0.00  0.00    -0.130 NA
ATOM     18  C   UNL     1      -0.594  -1.256  23.687  0.00  0.00    +0.138 A 
ATOM     19  C   UNL     1       0.643  -1.549  24.204  0.00  0.00    +0.113 A 
BRANCH  19  22
ATOM      1  F   UNL     1       5.472   0.585  22.468  0.00  0.00    -0.205 F 
ATOM     22  C   UNL     1       1.883  -1.000  23.758  0.00  0.00    +0.004 A 
ATOM     23  C   UNL     1       3.083  -1.639  24.076  0.00  0.00    +0.013 A 
ATOM     24  C   UNL     1       1.897   0.172  23.003  0.00  0.00    +0.013 A 
ATOM     25  C   UNL     1       4.294  -1.103  23.640  0.00  0.00    +0.039 A 
ATOM     26  C   UNL     1       3.108   0.708  22.568  0.00  0.00    +0.039 A 
ATOM     27  C   UNL     1       4.308   0.071  22.886  0.00  0.00    +0.123 A 
ENDBRANCH  19  22
ENDBRANCH  15   4
ENDBRANCH  10  15
TORSDOF 5
ENDMDL
