MODEL 1
REMARK VINA RESULT:      -1.9      0.000      0.000
REMARK  Name = 45783686
REMARK  8 active torsions:
REMARK  status: ('A' for Active; 'I' for Inactive)
REMARK    1  A    between atoms: O_5  and  C_23
REMARK    2  A    between atoms: O_5  and  C_29
REMARK    3  A    between atoms: O_6  and  C_28
REMARK    4  A    between atoms: O_6  and  C_30
REMARK    5  A    between atoms: N_7  and  C_15
REMARK    6  A    between atoms: C_11  and  C_16
REMARK    7  A    between atoms: C_15  and  C_17
REMARK    8  A    between atoms: C_20  and  C_24
REMARK                            x       y       z     vdW  Elec       q    Type
REMARK                         _______ _______ _______ _____ _____    ______ ____
ROOT
ATOM      7  N   UNL     1      -5.179   2.537  25.223  0.00  0.00    -0.287 NA
ATOM     11  C   UNL     1      -4.210   3.142  24.288  0.00  0.00    +0.146 C 
ATOM     12  C   UNL     1      -4.302   4.656  24.554  0.00  0.00    +0.030 C 
ATOM     13  C   UNL     1      -5.390   4.809  25.607  0.00  0.00    +0.017 C 
ATOM     14  C   UNL     1      -6.214   3.545  25.456  0.00  0.00    +0.085 C 
ENDROOT
BRANCH  11  16
ATOM      4  O   UNL     1      -2.356   2.511  25.751  0.00  0.00    -0.336 OA
ATOM      8  N   UNL     1      -1.948   2.199  23.572  0.00  0.00    -0.190 NA
ATOM      9  N   UNL     1      -1.058   1.993  25.669  0.00  0.00    -0.056 NA
ATOM     16  C   UNL     1      -2.808   2.601  24.473  0.00  0.00    +0.245 A 
ATOM     20  C   UNL     1      -0.889   1.835  24.353  0.00  0.00    +0.204 A 
BRANCH  20  24
ATOM     10  N   UNL     1       2.703   1.546  23.437  0.00  0.00    -0.221 NA
ATOM     24  C   UNL     1       0.322   1.317  23.787  0.00  0.00    +0.041 A 
ATOM     25  C   UNL     1       0.322   0.130  23.061  0.00  0.00    +0.018 A 
ATOM     26  C   UNL     1       1.528   1.979  23.945  0.00  0.00    +0.126 A 
ATOM     27  C   UNL     1       1.511  -0.349  22.523  0.00  0.00    +0.068 A 
ATOM     28  C   UNL     1       2.664   0.389  22.738  0.00  0.00    +0.214 A 
BRANCH  28   6
ATOM      6  O   UNL     1       3.849  -0.062  22.217  0.00  0.00    -0.480 OA
ATOM     30  C   UNL     1       5.010   0.118  23.020  0.00  0.00    +0.279 C 
ENDBRANCH  28   6
ENDBRANCH  20  24
ENDBRANCH  11  16
BRANCH   7  15
ATOM     15  C   UNL     1      -5.738   1.281  24.738  0.00  0.00    +0.120 C 
BRANCH  15  17
ATOM     17  C   UNL     1      -4.762   0.143  24.875  0.00  0.00    -0.033 A 
ATOM     18  C   UNL     1      -4.426  -0.627  23.761  0.00  0.00    +0.008 A 
ATOM     19  C   UNL     1      -4.192  -0.140  26.116  0.00  0.00    +0.008 A 
ATOM     21  C   UNL     1      -3.522  -1.681  23.888  0.00  0.00    +0.046 A 
ATOM     22  C   UNL     1      -3.286  -1.194  26.243  0.00  0.00    +0.046 A 
ATOM     23  C   UNL     1      -2.952  -1.965  25.129  0.00  0.00    +0.130 A 
BRANCH  23   5
ATOM      5  O   UNL     1      -2.069  -2.992  25.253  0.00  0.00    -0.406 OA
BRANCH   5  29
ATOM      1  F   UNL     1      -0.467  -2.614  23.708  0.00  0.00    -0.133 F 
ATOM      2  F   UNL     1      -0.323  -1.559  25.616  0.00  0.00    -0.133 F 
ATOM      3  F   UNL     1       0.083  -3.729  25.505  0.00  0.00    -0.133 F 
ATOM     29  C   UNL     1      -0.687  -2.724  25.037  0.00  0.00    +0.575 C 
ENDBRANCH   5  29
ENDBRANCH  23   5
ENDBRANCH  15  17
ENDBRANCH   7  15
TORSDOF 7
ENDMDL
MODEL 2
REMARK VINA RESULT:      -1.6      2.733      4.733
REMARK  Name = 45783686
REMARK  8 active torsions:
REMARK  status: ('A' for Active; 'I' for Inactive)
REMARK    1  A    between atoms: O_5  and  C_23
REMARK    2  A    between atoms: O_5  and  C_29
REMARK    3  A    between atoms: O_6  and  C_28
REMARK    4  A    between atoms: O_6  and  C_30
REMARK    5  A    between atoms: N_7  and  C_15
REMARK    6  A    between atoms: C_11  and  C_16
REMARK    7  A    between atoms: C_15  and  C_17
REMARK    8  A    between atoms: C_20  and  C_24
REMARK                            x       y       z     vdW  Elec       q    Type
REMARK                         _______ _______ _______ _____ _____    ______ ____
ROOT
ATOM      7  N   UNL     1      -4.391  -1.326  23.984  0.00  0.00    -0.287 NA
ATOM     11  C   UNL     1      -3.421  -1.753  25.011  0.00  0.00    +0.146 C 
ATOM     12  C   UNL     1      -3.214  -3.257  24.754  0.00  0.00    +0.030 C 
ATOM     13  C   UNL     1      -4.153  -3.596  23.606  0.00  0.00    +0.017 C 
ATOM     14  C   UNL     1      -5.201  -2.503  23.666  0.00  0.00    +0.085 C 
ENDROOT
BRANCH  11  16
ATOM      4  O   UNL     1      -1.990   0.043  25.852  0.00  0.00    -0.336 OA
ATOM      8  N   UNL     1      -1.103  -1.112  24.152  0.00  0.00    -0.190 NA
ATOM      9  N   UNL     1      -0.736   0.614  25.607  0.00  0.00    -0.056 NA
ATOM     16  C   UNL     1      -2.128  -0.966  24.952  0.00  0.00    +0.245 A 
ATOM     20  C   UNL     1      -0.274  -0.120  24.590  0.00  0.00    +0.204 A 
BRANCH  20  24
ATOM     10  N   UNL     1       3.075  -0.794  23.123  0.00  0.00    -0.221 NA
ATOM     24  C   UNL     1       1.009   0.110  23.993  0.00  0.00    +0.041 A 
ATOM     25  C   UNL     1       1.444   1.400  23.707  0.00  0.00    +0.018 A 
ATOM     26  C   UNL     1       1.854  -0.942  23.684  0.00  0.00    +0.126 A 
ATOM     27  C   UNL     1       2.693   1.593  23.128  0.00  0.00    +0.068 A 
ATOM     28  C   UNL     1       3.463   0.474  22.859  0.00  0.00    +0.214 A 
BRANCH  28   6
ATOM      6  O   UNL     1       4.699   0.638  22.289  0.00  0.00    -0.480 OA
ATOM     30  C   UNL     1       5.809   0.105  23.002  0.00  0.00    +0.279 C 
ENDBRANCH  28   6
ENDBRANCH  20  24
ENDBRANCH  11  16
BRANCH   7  15
ATOM     15  C   UNL     1      -5.209  -0.194  24.401  0.00  0.00    +0.120 C 
BRANCH  15  17
ATOM     17  C   UNL     1      -4.429   1.093  24.401  0.00  0.00    -0.033 A 
ATOM     18  C   UNL     1      -4.605   2.017  25.432  0.00  0.00    +0.008 A 
ATOM     19  C   UNL     1      -3.527   1.361  23.370  0.00  0.00    +0.008 A 
ATOM     21  C   UNL     1      -3.881   3.209  25.432  0.00  0.00    +0.046 A 
ATOM     22  C   UNL     1      -2.803   2.554  23.371  0.00  0.00    +0.046 A 
ATOM     23  C   UNL     1      -2.980   3.477  24.401  0.00  0.00    +0.130 A 
BRANCH  23   5
ATOM      5  O   UNL     1      -2.273   4.640  24.402  0.00  0.00    -0.406 OA
BRANCH   5  29
ATOM      1  F   UNL     1      -0.492   5.844  25.088  0.00  0.00    -0.133 F 
ATOM      2  F   UNL     1      -0.716   3.811  25.859  0.00  0.00    -0.133 F 
ATOM      3  F   UNL     1      -0.134   4.151  23.754  0.00  0.00    -0.133 F 
ATOM     29  C   UNL     1      -0.899   4.594  24.773  0.00  0.00    +0.575 C 
ENDBRANCH   5  29
ENDBRANCH  23   5
ENDBRANCH  15  17
ENDBRANCH   7  15
TORSDOF 7
ENDMDL
MODEL 3
REMARK VINA RESULT:       0.2      1.261      1.495
REMARK  Name = 45783686
REMARK  8 active torsions:
REMARK  status: ('A' for Active; 'I' for Inactive)
REMARK    1  A    between atoms: O_5  and  C_23
REMARK    2  A    between atoms: O_5  and  C_29
REMARK    3  A    between atoms: O_6  and  C_28
REMARK    4  A    between atoms: O_6  and  C_30
REMARK    5  A    between atoms: N_7  and  C_15
REMARK    6  A    between atoms: C_11  and  C_16
REMARK    7  A    between atoms: C_15  and  C_17
REMARK    8  A    between atoms: C_20  and  C_24
REMARK                            x       y       z     vdW  Elec       q    Type
REMARK                         _______ _______ _______ _____ _____    ______ ____
ROOT
ATOM      7  N   UNL     1      -3.911   2.964  25.724  0.00  0.00    -0.287 NA
ATOM     11  C   UNL     1      -3.433   3.475  24.425  0.00  0.00    +0.146 C 
ATOM     12  C   UNL     1      -2.896   4.885  24.732  0.00  0.00    +0.030 C 
ATOM     13  C   UNL     1      -3.170   5.100  26.213  0.00  0.00    +0.017 C 
ATOM     14  C   UNL     1      -4.299   4.135  26.512  0.00  0.00    +0.085 C 
ENDROOT
BRANCH  11  16
ATOM      4  O   UNL     1      -2.822   1.745  22.810  0.00  0.00    -0.336 OA
ATOM      8  N   UNL     1      -1.112   2.477  24.057  0.00  0.00    -0.190 NA
ATOM      9  N   UNL     1      -1.697   1.025  22.389  0.00  0.00    -0.056 NA
ATOM     16  C   UNL     1      -2.390   2.577  23.794  0.00  0.00    +0.245 A 
ATOM     20  C   UNL     1      -0.729   1.513  23.170  0.00  0.00    +0.204 A 
BRANCH  20  24
ATOM     10  N   UNL     1       2.982   1.515  23.406  0.00  0.00    -0.221 NA
ATOM     24  C   UNL     1       0.629   1.059  23.089  0.00  0.00    +0.041 A 
ATOM     25  C   UNL     1       0.930  -0.221  22.635  0.00  0.00    +0.018 A 
ATOM     26  C   UNL     1       1.682   1.880  23.459  0.00  0.00    +0.126 A 
ATOM     27  C   UNL     1       2.256  -0.633  22.566  0.00  0.00    +0.068 A 
ATOM     28  C   UNL     1       3.236   0.264  22.959  0.00  0.00    +0.214 A 
BRANCH  28   6
ATOM      6  O   UNL     1       4.551  -0.119  22.900  0.00  0.00    -0.480 OA
ATOM     30  C   UNL     1       5.386   0.293  23.975  0.00  0.00    +0.279 C 
ENDBRANCH  28   6
ENDBRANCH  20  24
ENDBRANCH  11  16
BRANCH   7  15
ATOM     15  C   UNL     1      -4.999   2.003  25.599  0.00  0.00    +0.120 C 
BRANCH  15  17
ATOM     17  C   UNL     1      -4.494   0.624  25.268  0.00  0.00    -0.033 A 
ATOM     18  C   UNL     1      -5.011  -0.065  24.170  0.00  0.00    +0.008 A 
ATOM     19  C   UNL     1      -3.508   0.034  26.059  0.00  0.00    +0.008 A 
ATOM     21  C   UNL     1      -4.543  -1.342  23.863  0.00  0.00    +0.046 A 
ATOM     22  C   UNL     1      -3.039  -1.243  25.752  0.00  0.00    +0.046 A 
ATOM     23  C   UNL     1      -3.556  -1.931  24.654  0.00  0.00    +0.130 A 
BRANCH  23   5
ATOM      5  O   UNL     1      -3.099  -3.177  24.355  0.00  0.00    -0.406 OA
BRANCH   5  29
ATOM      1  F   UNL     1      -1.624  -4.330  23.094  0.00  0.00    -0.133 F 
ATOM      2  F   UNL     1      -1.260  -2.199  23.408  0.00  0.00    -0.133 F 
ATOM      3  F   UNL     1      -0.972  -3.637  25.061  0.00  0.00    -0.133 F 
ATOM     29  C   UNL     1      -1.730  -3.323  23.990  0.00  0.00    +0.575 C 
ENDBRANCH   5  29
ENDBRANCH  23   5
ENDBRANCH  15  17
ENDBRANCH   7  15
TORSDOF 7
ENDMDL
