MODEL 1
REMARK VINA RESULT:      -2.9      0.000      0.000
REMARK  Name = 7675197
REMARK  5 active torsions:
REMARK  status: ('A' for Active; 'I' for Inactive)
REMARK    1  A    between atoms: O_4  and  C_26
REMARK    2  A    between atoms: O_4  and  C_28
REMARK    3  A    between atoms: N_7  and  C_14
REMARK    4  A    between atoms: C_14  and  C_16
REMARK    5  A    between atoms: C_15  and  C_17
REMARK                            x       y       z     vdW  Elec       q    Type
REMARK                         _______ _______ _______ _____ _____    ______ ____
ROOT
ATOM      1  O   UNL     1      -4.190 -10.661  15.892  0.00  0.00    -0.273 OA
ATOM      2  O   UNL     1      -3.292 -10.767  11.373  0.00  0.00    -0.252 OA
ATOM      3  O   UNL     1      -9.908  -9.253  12.724  0.00  0.00    -0.270 OA
ATOM      5  N   UNL     1      -5.284 -10.764  12.602  0.00  0.00    -0.271 N 
ATOM      6  N   UNL     1      -7.645  -9.464  13.273  0.00  0.00    -0.294 N 
ATOM      7  N   UNL     1      -3.356 -10.769  13.711  0.00  0.00    -0.220 N 
ATOM      8  C   UNL     1      -5.692 -10.757  13.990  0.00  0.00    +0.181 C 
ATOM      9  C   UNL     1      -6.564  -9.544  14.276  0.00  0.00    +0.140 C 
ATOM     10  C   UNL     1      -6.296 -10.633  11.568  0.00  0.00    +0.129 C 
ATOM     11  C   UNL     1      -7.188  -9.430  11.876  0.00  0.00    +0.127 C 
ATOM     12  C   UNL     1      -4.340 -10.720  14.678  0.00  0.00    +0.245 C 
ATOM     13  C   UNL     1      -3.898 -10.775  12.436  0.00  0.00    +0.312 C 
ATOM     15  C   UNL     1      -9.009  -9.369  13.557  0.00  0.00    +0.247 C 
ENDROOT
BRANCH  15  17
ATOM     17  C   UNL     1      -9.429  -9.421  14.962  0.00  0.00    +0.037 A 
ATOM     20  C   UNL     1      -9.192  -8.332  15.798  0.00  0.00    +0.016 A 
ATOM     21  C   UNL     1     -10.061 -10.559  15.455  0.00  0.00    +0.016 A 
ATOM     24  C   UNL     1      -9.591  -8.381  17.134  0.00  0.00    +0.046 A 
ATOM     25  C   UNL     1     -10.460 -10.610  16.791  0.00  0.00    +0.046 A 
ATOM     26  C   UNL     1     -10.224  -9.521  17.630  0.00  0.00    +0.120 A 
BRANCH  26   4
ATOM      4  O   UNL     1     -10.612  -9.569  18.934  0.00  0.00    -0.495 OA
ATOM     28  C   UNL     1      -9.795 -10.325  19.826  0.00  0.00    +0.277 C 
ENDBRANCH  26   4
ENDBRANCH  15  17
BRANCH   7  14
ATOM     14  C   UNL     1      -1.937 -10.759  14.004  0.00  0.00    +0.153 C 
BRANCH  14  16
ATOM     16  C   UNL     1      -1.206  -9.716  13.210  0.00  0.00    -0.030 A 
ATOM     18  C   UNL     1      -0.696  -8.595  13.853  0.00  0.00    +0.005 A 
ATOM     19  C   UNL     1      -1.047  -9.881  11.838  0.00  0.00    +0.005 A 
ATOM     22  C   UNL     1      -0.016  -7.625  13.116  0.00  0.00    +0.000 A 
ATOM     23  C   UNL     1      -0.367  -8.911  11.101  0.00  0.00    +0.000 A 
ATOM     27  C   UNL     1       0.148  -7.783  11.740  0.00  0.00    +0.000 A 
ENDBRANCH  14  16
ENDBRANCH   7  14
TORSDOF 4
ENDMDL
MODEL 2
REMARK VINA RESULT:      -1.5      1.788      2.411
REMARK  Name = 7675197
REMARK  5 active torsions:
REMARK  status: ('A' for Active; 'I' for Inactive)
REMARK    1  A    between atoms: O_4  and  C_26
REMARK    2  A    between atoms: O_4  and  C_28
REMARK    3  A    between atoms: N_7  and  C_14
REMARK    4  A    between atoms: C_14  and  C_16
REMARK    5  A    between atoms: C_15  and  C_17
REMARK                            x       y       z     vdW  Elec       q    Type
REMARK                         _______ _______ _______ _____ _____    ______ ____
ROOT
ATOM      1  O   UNL     1      -4.210 -10.780  12.758  0.00  0.00    -0.273 OA
ATOM      2  O   UNL     1      -5.732 -10.557   8.414  0.00  0.00    -0.252 OA
ATOM      3  O   UNL     1     -10.719  -9.276  13.037  0.00  0.00    -0.270 OA
ATOM      5  N   UNL     1      -6.824 -10.679  10.481  0.00  0.00    -0.271 N 
ATOM      6  N   UNL     1      -8.496  -9.478  12.346  0.00  0.00    -0.294 N 
ATOM      7  N   UNL     1      -4.600 -10.720  10.454  0.00  0.00    -0.220 N 
ATOM      8  C   UNL     1      -6.471 -10.776  11.881  0.00  0.00    +0.181 C 
ATOM      9  C   UNL     1      -7.057  -9.603  12.653  0.00  0.00    +0.140 C 
ATOM     10  C   UNL     1      -8.218 -10.498  10.115  0.00  0.00    +0.129 C 
ATOM     11  C   UNL     1      -8.810  -9.338  10.917  0.00  0.00    +0.127 C 
ATOM     12  C   UNL     1      -4.956 -10.758  11.788  0.00  0.00    +0.245 C 
ATOM     13  C   UNL     1      -5.716 -10.651   9.634  0.00  0.00    +0.312 C 
ATOM     15  C   UNL     1      -9.525  -9.430  13.288  0.00  0.00    +0.247 C 
ENDROOT
BRANCH  15  17
ATOM     17  C   UNL     1      -9.174  -9.587  14.705  0.00  0.00    +0.037 A 
ATOM     20  C   UNL     1      -9.761  -8.762  15.661  0.00  0.00    +0.016 A 
ATOM     21  C   UNL     1      -8.254 -10.561  15.087  0.00  0.00    +0.016 A 
ATOM     24  C   UNL     1      -9.428  -8.911  17.007  0.00  0.00    +0.046 A 
ATOM     25  C   UNL     1      -7.920 -10.710  16.433  0.00  0.00    +0.046 A 
ATOM     26  C   UNL     1      -8.506  -9.885  17.393  0.00  0.00    +0.120 A 
BRANCH  26   4
ATOM      4  O   UNL     1      -8.180 -10.030  18.706  0.00  0.00    -0.495 OA
ATOM     28  C   UNL     1      -6.969 -10.724  19.001  0.00  0.00    +0.277 C 
ENDBRANCH  26   4
ENDBRANCH  15  17
BRANCH   7  14
ATOM     14  C   UNL     1      -3.230 -10.702   9.986  0.00  0.00    +0.153 C 
BRANCH  14  16
ATOM     16  C   UNL     1      -2.297 -10.109  11.002  0.00  0.00    -0.030 A 
ATOM     18  C   UNL     1      -1.651  -8.910  10.724  0.00  0.00    +0.005 A 
ATOM     19  C   UNL     1      -2.089 -10.764  12.211  0.00  0.00    +0.005 A 
ATOM     22  C   UNL     1      -0.784  -8.358  11.668  0.00  0.00    +0.000 A 
ATOM     23  C   UNL     1      -1.223 -10.212  13.155  0.00  0.00    +0.000 A 
ATOM     27  C   UNL     1      -0.570  -9.009  12.883  0.00  0.00    +0.000 A 
ENDBRANCH  14  16
ENDBRANCH   7  14
TORSDOF 4
ENDMDL
MODEL 3
REMARK VINA RESULT:      -0.6      1.845      2.235
REMARK  Name = 7675197
REMARK  5 active torsions:
REMARK  status: ('A' for Active; 'I' for Inactive)
REMARK    1  A    between atoms: O_4  and  C_26
REMARK    2  A    between atoms: O_4  and  C_28
REMARK    3  A    between atoms: N_7  and  C_14
REMARK    4  A    between atoms: C_14  and  C_16
REMARK    5  A    between atoms: C_15  and  C_17
REMARK                            x       y       z     vdW  Elec       q    Type
REMARK                         _______ _______ _______ _____ _____    ______ ____
ROOT
ATOM      1  O   UNL     1      -2.694 -10.781  13.610  0.00  0.00    -0.273 OA
ATOM      2  O   UNL     1      -3.994 -10.134   9.236  0.00  0.00    -0.252 OA
ATOM      3  O   UNL     1      -9.241  -9.425  13.692  0.00  0.00    -0.270 OA
ATOM      5  N   UNL     1      -5.188 -10.489  11.218  0.00  0.00    -0.271 N 
ATOM      6  N   UNL     1      -6.980  -9.516  13.104  0.00  0.00    -0.294 N 
ATOM      7  N   UNL     1      -2.966 -10.489  11.307  0.00  0.00    -0.220 N 
ATOM      8  C   UNL     1      -4.906 -10.725  12.617  0.00  0.00    +0.181 C 
ATOM      9  C   UNL     1      -5.557  -9.648  13.473  0.00  0.00    +0.140 C 
ATOM     10  C   UNL     1      -6.565 -10.295  10.798  0.00  0.00    +0.129 C 
ATOM     11  C   UNL     1      -7.224  -9.234  11.682  0.00  0.00    +0.127 C 
ATOM     12  C   UNL     1      -3.389 -10.672  12.609  0.00  0.00    +0.245 C 
ATOM     13  C   UNL     1      -4.038 -10.353  10.439  0.00  0.00    +0.312 C 
ATOM     15  C   UNL     1      -8.058  -9.584  13.990  0.00  0.00    +0.247 C 
ENDROOT
BRANCH  15  17
ATOM     17  C   UNL     1      -7.777  -9.882  15.399  0.00  0.00    +0.037 A 
ATOM     20  C   UNL     1      -6.460 -10.034  15.827  0.00  0.00    +0.016 A 
ATOM     21  C   UNL     1      -8.828 -10.011  16.304  0.00  0.00    +0.016 A 
ATOM     24  C   UNL     1      -6.192 -10.317  17.166  0.00  0.00    +0.046 A 
ATOM     25  C   UNL     1      -8.561 -10.294  17.644  0.00  0.00    +0.046 A 
ATOM     26  C   UNL     1      -7.244 -10.447  18.075  0.00  0.00    +0.120 A 
BRANCH  26   4
ATOM      4  O   UNL     1      -6.983 -10.724  19.382  0.00  0.00    -0.495 OA
ATOM     28  C   UNL     1      -5.656 -10.478  19.844  0.00  0.00    +0.277 C 
ENDBRANCH  26   4
ENDBRANCH  15  17
BRANCH   7  14
ATOM     14  C   UNL     1      -1.573 -10.399  10.918  0.00  0.00    +0.153 C 
BRANCH  14  16
ATOM     16  C   UNL     1      -0.841  -9.343  11.693  0.00  0.00    -0.030 A 
ATOM     18  C   UNL     1      -1.164  -9.120  13.026  0.00  0.00    +0.005 A 
ATOM     19  C   UNL     1       0.155  -8.598  11.070  0.00  0.00    +0.005 A 
ATOM     22  C   UNL     1      -0.483  -8.138  13.747  0.00  0.00    +0.000 A 
ATOM     23  C   UNL     1       0.836  -7.617  11.790  0.00  0.00    +0.000 A 
ATOM     27  C   UNL     1       0.517  -7.387  13.129  0.00  0.00    +0.000 A 
ENDBRANCH  14  16
ENDBRANCH   7  14
TORSDOF 4
ENDMDL
