MODEL 1
REMARK VINA RESULT:      -1.4      0.000      0.000
REMARK  Name = 38030656
REMARK  14 active torsions:
REMARK  status: ('A' for Active; 'I' for Inactive)
REMARK    1  A    between atoms: O_2  and  C_20
REMARK    2  A    between atoms: O_2  and  C_23
REMARK    3  A    between atoms: N_3  and  C_13
REMARK    4  A    between atoms: N_3  and  C_19
REMARK    5  A    between atoms: C_6  and  C_10
REMARK    6  A    between atoms: C_7  and  C_13
REMARK    7  A    between atoms: C_9  and  C_14
REMARK    8  A    between atoms: C_10  and  C_15
REMARK    9  A    between atoms: C_10  and  C_16
REMARK   10  A    between atoms: C_11  and  C_17
REMARK   11  A    between atoms: C_14  and  C_18
REMARK   12  A    between atoms: C_19  and  C_20
REMARK   13  A    between atoms: C_21  and  C_22
REMARK   14  A    between atoms: C_28  and  C_29
REMARK                            x       y       z     vdW  Elec       q    Type
REMARK                         _______ _______ _______ _____ _____    ______ ____
ROOT
ATOM      6  C   UNL     1      -3.592   2.398  23.949  0.00  0.00    +0.000 C 
ATOM      7  C   UNL     1      -4.581   3.488  24.430  0.00  0.00    +0.029 C 
ATOM      8  C   UNL     1      -4.308   1.045  23.818  0.00  0.00    +0.012 C 
ATOM      9  C   UNL     1      -4.931   0.584  25.149  0.00  0.00    +0.024 C 
ATOM     11  C   UNL     1      -5.708   1.698  25.822  0.00  0.00    -0.073 C 
ATOM     12  C   UNL     1      -5.548   2.988  25.479  0.00  0.00    -0.023 C 
ATOM     17  C   UNL     1      -6.706   1.289  26.869  0.00  0.00    +0.039 C 
ENDROOT
BRANCH   6  10
ATOM     10  C   UNL     1      -2.940   2.771  22.614  0.00  0.00    -0.013 C 
ATOM     15  C   UNL     1      -2.370   1.531  21.934  0.00  0.00    +0.007 C 
ATOM     16  C   UNL     1      -3.947   3.470  21.706  0.00  0.00    +0.007 C 
ENDBRANCH   6  10
BRANCH   7  13
ATOM     13  C   UNL     1      -3.835   4.714  24.969  0.00  0.00    +0.088 C 
BRANCH  13   3
ATOM      3  N   UNL     1      -2.707   4.309  25.790  0.00  0.00    -0.313 NA
ATOM     30  H   UNL     1      -2.838   4.608  26.755  0.00  0.00    +0.122 HD
BRANCH   3  19
ATOM     19  C   UNL     1      -1.459   4.864  25.279  0.00  0.00    +0.109 C 
BRANCH  19  20
ATOM     20  C   UNL     1      -0.357   3.818  25.302  0.00  0.00    +0.174 C 
BRANCH  20   2
ATOM      2  O   UNL     1      -0.697   2.817  26.253  0.00  0.00    -0.382 OA
ATOM     23  C   UNL     1       0.428   2.433  27.032  0.00  0.00    +0.194 C 
ENDBRANCH  20   2
ENDBRANCH  19  20
ENDBRANCH   3  19
ENDBRANCH  13   3
ENDBRANCH   7  13
BRANCH   9  14
ATOM     14  C   UNL     1      -3.865   0.012  26.089  0.00  0.00    +0.105 C 
BRANCH  14  18
ATOM      1  O   UNL     1      -1.674   0.094  25.015  0.00  0.00    -0.420 OA
ATOM      4  N   UNL     1      -2.681  -1.901  24.894  0.00  0.00    -0.112 NA
ATOM      5  N   UNL     1      -1.461  -1.998  24.251  0.00  0.00    -0.107 NA
ATOM     18  C   UNL     1      -2.763  -0.664  25.324  0.00  0.00    +0.218 A 
ATOM     21  C   UNL     1      -0.909  -0.812  24.346  0.00  0.00    +0.248 A 
BRANCH  21  22
ATOM     22  C   UNL     1       0.354  -0.331  23.864  0.00  0.00    +0.038 A 
ATOM     24  C   UNL     1       0.610   1.039  23.826  0.00  0.00    +0.013 A 
ATOM     25  C   UNL     1       1.326  -1.234  23.434  0.00  0.00    +0.013 A 
ATOM     26  C   UNL     1       1.837   1.507  23.358  0.00  0.00    +0.004 A 
ATOM     27  C   UNL     1       2.554  -0.766  22.966  0.00  0.00    +0.004 A 
ATOM     28  C   UNL     1       2.809   0.604  22.928  0.00  0.00    -0.050 A 
ATOM     29  C   UNL     1       4.122   1.105  22.427  0.00  0.00    +0.044 C 
ENDBRANCH  21  22
ENDBRANCH  14  18
ENDBRANCH   9  14
TORSDOF 9
ENDMDL
MODEL 2
REMARK VINA RESULT:      -1.0      2.314      5.400
REMARK  Name = 38030656
REMARK  14 active torsions:
REMARK  status: ('A' for Active; 'I' for Inactive)
REMARK    1  A    between atoms: O_2  and  C_20
REMARK    2  A    between atoms: O_2  and  C_23
REMARK    3  A    between atoms: N_3  and  C_13
REMARK    4  A    between atoms: N_3  and  C_19
REMARK    5  A    between atoms: C_6  and  C_10
REMARK    6  A    between atoms: C_7  and  C_13
REMARK    7  A    between atoms: C_9  and  C_14
REMARK    8  A    between atoms: C_10  and  C_15
REMARK    9  A    between atoms: C_10  and  C_16
REMARK   10  A    between atoms: C_11  and  C_17
REMARK   11  A    between atoms: C_14  and  C_18
REMARK   12  A    between atoms: C_19  and  C_20
REMARK   13  A    between atoms: C_21  and  C_22
REMARK   14  A    between atoms: C_28  and  C_29
REMARK                            x       y       z     vdW  Elec       q    Type
REMARK                         _______ _______ _______ _____ _____    ______ ____
ROOT
ATOM      6  C   UNL     1      -2.123   2.389  23.894  0.00  0.00    +0.000 C 
ATOM      7  C   UNL     1      -0.652   2.869  23.829  0.00  0.00    +0.029 C 
ATOM      8  C   UNL     1      -3.080   3.550  23.588  0.00  0.00    +0.012 C 
ATOM      9  C   UNL     1      -2.906   4.723  24.570  0.00  0.00    +0.024 C 
ATOM     11  C   UNL     1      -1.446   5.083  24.766  0.00  0.00    -0.073 C 
ATOM     12  C   UNL     1      -0.453   4.246  24.416  0.00  0.00    -0.023 C 
ATOM     17  C   UNL     1      -1.154   6.444  25.331  0.00  0.00    +0.039 C 
ENDROOT
BRANCH   6  10
ATOM     10  C   UNL     1      -2.386   1.231  22.927  0.00  0.00    -0.013 C 
ATOM     15  C   UNL     1      -2.266   1.705  21.482  0.00  0.00    +0.007 C 
ATOM     16  C   UNL     1      -1.424   0.079  23.199  0.00  0.00    +0.007 C 
ENDBRANCH   6  10
BRANCH   7  13
ATOM     13  C   UNL     1       0.286   1.876  24.528  0.00  0.00    +0.088 C 
BRANCH  13   3
ATOM      3  N   UNL     1       1.535   1.750  23.798  0.00  0.00    -0.313 NA
ATOM     30  H   UNL     1       1.590   2.444  23.054  0.00  0.00    +0.122 HD
BRANCH   3  19
ATOM     19  C   UNL     1       1.675   0.417  23.223  0.00  0.00    +0.109 C 
BRANCH  19  20
ATOM     20  C   UNL     1       2.966   0.308  22.428  0.00  0.00    +0.174 C 
BRANCH  20   2
ATOM      2  O   UNL     1       3.958   1.108  23.056  0.00  0.00    -0.382 OA
ATOM     23  C   UNL     1       5.084   0.334  23.447  0.00  0.00    +0.194 C 
ENDBRANCH  20   2
ENDBRANCH  19  20
ENDBRANCH   3  19
ENDBRANCH  13   3
ENDBRANCH   7  13
BRANCH   9  14
ATOM     14  C   UNL     1      -3.582   4.425  25.912  0.00  0.00    +0.105 C 
BRANCH  14  18
ATOM      1  O   UNL     1      -3.735   2.029  25.470  0.00  0.00    -0.420 OA
ATOM      4  N   UNL     1      -5.662   2.967  26.112  0.00  0.00    -0.112 NA
ATOM      5  N   UNL     1      -5.893   1.622  25.898  0.00  0.00    -0.107 NA
ATOM     18  C   UNL     1      -4.390   3.160  25.851  0.00  0.00    +0.218 A 
ATOM     21  C   UNL     1      -4.742   1.114  25.525  0.00  0.00    +0.248 A 
BRANCH  21  22
ATOM     22  C   UNL     1      -4.387  -0.231  25.173  0.00  0.00    +0.038 A 
ATOM     24  C   UNL     1      -4.848  -0.783  23.979  0.00  0.00    +0.013 A 
ATOM     25  C   UNL     1      -3.579  -0.985  26.024  0.00  0.00    +0.013 A 
ATOM     26  C   UNL     1      -4.503  -2.090  23.636  0.00  0.00    +0.004 A 
ATOM     27  C   UNL     1      -3.234  -2.292  25.681  0.00  0.00    +0.004 A 
ATOM     28  C   UNL     1      -3.696  -2.844  24.487  0.00  0.00    -0.050 A 
ATOM     29  C   UNL     1      -3.327  -4.242  24.120  0.00  0.00    +0.044 C 
ENDBRANCH  21  22
ENDBRANCH  14  18
ENDBRANCH   9  14
TORSDOF 9
ENDMDL
MODEL 3
REMARK VINA RESULT:      -0.3      2.422      5.081
REMARK  Name = 38030656
REMARK  14 active torsions:
REMARK  status: ('A' for Active; 'I' for Inactive)
REMARK    1  A    between atoms: O_2  and  C_20
REMARK    2  A    between atoms: O_2  and  C_23
REMARK    3  A    between atoms: N_3  and  C_13
REMARK    4  A    between atoms: N_3  and  C_19
REMARK    5  A    between atoms: C_6  and  C_10
REMARK    6  A    between atoms: C_7  and  C_13
REMARK    7  A    between atoms: C_9  and  C_14
REMARK    8  A    between atoms: C_10  and  C_15
REMARK    9  A    between atoms: C_10  and  C_16
REMARK   10  A    between atoms: C_11  and  C_17
REMARK   11  A    between atoms: C_14  and  C_18
REMARK   12  A    between atoms: C_19  and  C_20
REMARK   13  A    between atoms: C_21  and  C_22
REMARK   14  A    between atoms: C_28  and  C_29
REMARK                            x       y       z     vdW  Elec       q    Type
REMARK                         _______ _______ _______ _____ _____    ______ ____
ROOT
ATOM      6  C   UNL     1      -1.869   2.393  24.264  0.00  0.00    +0.000 C 
ATOM      7  C   UNL     1      -0.473   3.060  24.304  0.00  0.00    +0.029 C 
ATOM      8  C   UNL     1      -2.915   3.371  23.707  0.00  0.00    +0.012 C 
ATOM      9  C   UNL     1      -3.014   4.658  24.546  0.00  0.00    +0.024 C 
ATOM     11  C   UNL     1      -1.646   5.234  24.857  0.00  0.00    -0.073 C 
ATOM     12  C   UNL     1      -0.521   4.509  24.730  0.00  0.00    -0.023 C 
ATOM     17  C   UNL     1      -1.599   6.677  25.275  0.00  0.00    +0.039 C 
ENDROOT
BRANCH   6  10
ATOM     10  C   UNL     1      -1.863   1.110  23.427  0.00  0.00    -0.013 C 
ATOM     15  C   UNL     1      -2.337   1.397  22.007  0.00  0.00    +0.007 C 
ATOM     16  C   UNL     1      -0.470   0.488  23.416  0.00  0.00    +0.007 C 
ENDBRANCH   6  10
BRANCH   7  13
ATOM     13  C   UNL     1       0.483   2.290  25.223  0.00  0.00    +0.088 C 
BRANCH  13   3
ATOM      3  N   UNL     1      -0.009   2.291  26.590  0.00  0.00    -0.313 NA
ATOM     30  H   UNL     1      -0.812   2.910  26.684  0.00  0.00    +0.122 HD
BRANCH   3  19
ATOM     19  C   UNL     1       1.032   2.708  27.522  0.00  0.00    +0.109 C 
BRANCH  19  20
ATOM     20  C   UNL     1       0.662   2.326  28.946  0.00  0.00    +0.174 C 
BRANCH  20   2
ATOM      2  O   UNL     1       1.839   2.342  29.743  0.00  0.00    -0.382 OA
ATOM     23  C   UNL     1       2.922   2.963  29.064  0.00  0.00    +0.194 C 
ENDBRANCH  20   2
ENDBRANCH  19  20
ENDBRANCH   3  19
ENDBRANCH  13   3
ENDBRANCH   7  13
BRANCH   9  14
ATOM     14  C   UNL     1      -3.814   4.421  25.831  0.00  0.00    +0.105 C 
BRANCH  14  18
ATOM      1  O   UNL     1      -3.859   2.018  25.400  0.00  0.00    -0.420 OA
ATOM      4  N   UNL     1      -5.825   2.871  26.044  0.00  0.00    -0.112 NA
ATOM      5  N   UNL     1      -5.995   1.515  25.837  0.00  0.00    -0.107 NA
ATOM     18  C   UNL     1      -4.564   3.119  25.778  0.00  0.00    +0.218 A 
ATOM     21  C   UNL     1      -4.823   1.059  25.463  0.00  0.00    +0.248 A 
BRANCH  21  22
ATOM     22  C   UNL     1      -4.408  -0.270  25.115  0.00  0.00    +0.038 A 
ATOM     24  C   UNL     1      -4.813  -0.833  23.906  0.00  0.00    +0.013 A 
ATOM     25  C   UNL     1      -3.599  -0.998  25.987  0.00  0.00    +0.013 A 
ATOM     26  C   UNL     1      -4.409  -2.125  23.567  0.00  0.00    +0.004 A 
ATOM     27  C   UNL     1      -3.195  -2.290  25.649  0.00  0.00    +0.004 A 
ATOM     28  C   UNL     1      -3.600  -2.853  24.439  0.00  0.00    -0.050 A 
ATOM     29  C   UNL     1      -3.169  -4.234  24.077  0.00  0.00    +0.044 C 
ENDBRANCH  21  22
ENDBRANCH  14  18
ENDBRANCH   9  14
TORSDOF 9
ENDMDL
MODEL 4
REMARK VINA RESULT:      -0.1      1.750      2.676
REMARK  Name = 38030656
REMARK  14 active torsions:
REMARK  status: ('A' for Active; 'I' for Inactive)
REMARK    1  A    between atoms: O_2  and  C_20
REMARK    2  A    between atoms: O_2  and  C_23
REMARK    3  A    between atoms: N_3  and  C_13
REMARK    4  A    between atoms: N_3  and  C_19
REMARK    5  A    between atoms: C_6  and  C_10
REMARK    6  A    between atoms: C_7  and  C_13
REMARK    7  A    between atoms: C_9  and  C_14
REMARK    8  A    between atoms: C_10  and  C_15
REMARK    9  A    between atoms: C_10  and  C_16
REMARK   10  A    between atoms: C_11  and  C_17
REMARK   11  A    between atoms: C_14  and  C_18
REMARK   12  A    between atoms: C_19  and  C_20
REMARK   13  A    between atoms: C_21  and  C_22
REMARK   14  A    between atoms: C_28  and  C_29
REMARK                            x       y       z     vdW  Elec       q    Type
REMARK                         _______ _______ _______ _____ _____    ______ ____
ROOT
ATOM      6  C   UNL     1      -3.632   2.016  23.733  0.00  0.00    +0.000 C 
ATOM      7  C   UNL     1      -4.872   1.850  24.646  0.00  0.00    +0.029 C 
ATOM      8  C   UNL     1      -3.171   0.650  23.201  0.00  0.00    +0.012 C 
ATOM      9  C   UNL     1      -2.814  -0.327  24.336  0.00  0.00    +0.024 C 
ATOM     11  C   UNL     1      -3.875  -0.346  25.418  0.00  0.00    -0.073 C 
ATOM     12  C   UNL     1      -4.794   0.629  25.533  0.00  0.00    -0.023 C 
ATOM     17  C   UNL     1      -3.882  -1.534  26.339  0.00  0.00    +0.039 C 
ENDROOT
BRANCH   6  10
ATOM     10  C   UNL     1      -3.911   2.962  22.561  0.00  0.00    -0.013 C 
ATOM     15  C   UNL     1      -3.842   4.414  23.021  0.00  0.00    +0.007 C 
ATOM     16  C   UNL     1      -2.925   2.708  21.425  0.00  0.00    +0.007 C 
ENDBRANCH   6  10
BRANCH   7  13
ATOM     13  C   UNL     1      -5.092   3.096  25.512  0.00  0.00    +0.088 C 
BRANCH  13   3
ATOM      3  N   UNL     1      -4.106   3.163  26.576  0.00  0.00    -0.313 NA
ATOM     30  H   UNL     1      -4.550   3.383  27.466  0.00  0.00    +0.122 HD
BRANCH   3  19
ATOM     19  C   UNL     1      -3.088   4.165  26.285  0.00  0.00    +0.109 C 
BRANCH  19  20
ATOM     20  C   UNL     1      -1.743   3.505  26.025  0.00  0.00    +0.174 C 
BRANCH  20   2
ATOM      2  O   UNL     1      -1.000   4.320  25.128  0.00  0.00    -0.382 OA
ATOM     23  C   UNL     1      -0.246   3.537  24.213  0.00  0.00    +0.194 C 
ENDBRANCH  20   2
ENDBRANCH  19  20
ENDBRANCH   3  19
ENDBRANCH  13   3
ENDBRANCH   7  13
BRANCH   9  14
ATOM     14  C   UNL     1      -1.435  -0.010  24.925  0.00  0.00    +0.105 C 
BRANCH  14  18
ATOM      1  O   UNL     1       0.928  -0.090  24.315  0.00  0.00    -0.420 OA
ATOM      4  N   UNL     1      -0.471  -0.134  22.570  0.00  0.00    -0.112 NA
ATOM      5  N   UNL     1       0.821  -0.185  22.083  0.00  0.00    -0.107 NA
ATOM     18  C   UNL     1      -0.361  -0.080  23.876  0.00  0.00    +0.218 A 
ATOM     21  C   UNL     1       1.604  -0.157  23.136  0.00  0.00    +0.248 A 
BRANCH  21  22
ATOM     22  C   UNL     1       3.035  -0.185  23.235  0.00  0.00    +0.038 A 
ATOM     24  C   UNL     1       3.782   0.928  22.852  0.00  0.00    +0.013 A 
ATOM     25  C   UNL     1       3.678  -1.325  23.715  0.00  0.00    +0.013 A 
ATOM     26  C   UNL     1       5.173   0.901  22.948  0.00  0.00    +0.004 A 
ATOM     27  C   UNL     1       5.070  -1.352  23.812  0.00  0.00    +0.004 A 
ATOM     28  C   UNL     1       5.817  -0.239  23.428  0.00  0.00    -0.050 A 
ATOM     29  C   UNL     1       7.305  -0.268  23.531  0.00  0.00    +0.044 C 
ENDBRANCH  21  22
ENDBRANCH  14  18
ENDBRANCH   9  14
TORSDOF 9
ENDMDL
MODEL 5
REMARK VINA RESULT:       0.2     15.596     17.426
REMARK  Name = 38030656
REMARK  14 active torsions:
REMARK  status: ('A' for Active; 'I' for Inactive)
REMARK    1  A    between atoms: O_2  and  C_20
REMARK    2  A    between atoms: O_2  and  C_23
REMARK    3  A    between atoms: N_3  and  C_13
REMARK    4  A    between atoms: N_3  and  C_19
REMARK    5  A    between atoms: C_6  and  C_10
REMARK    6  A    between atoms: C_7  and  C_13
REMARK    7  A    between atoms: C_9  and  C_14
REMARK    8  A    between atoms: C_10  and  C_15
REMARK    9  A    between atoms: C_10  and  C_16
REMARK   10  A    between atoms: C_11  and  C_17
REMARK   11  A    between atoms: C_14  and  C_18
REMARK   12  A    between atoms: C_19  and  C_20
REMARK   13  A    between atoms: C_21  and  C_22
REMARK   14  A    between atoms: C_28  and  C_29
REMARK                            x       y       z     vdW  Elec       q    Type
REMARK                         _______ _______ _______ _____ _____    ______ ____
ROOT
ATOM      6  C   UNL     1      -7.480  -9.793  12.817  0.00  0.00    +0.000 C 
ATOM      7  C   UNL     1      -8.994  -9.611  13.083  0.00  0.00    +0.029 C 
ATOM      8  C   UNL     1      -7.022  -8.877  11.672  0.00  0.00    +0.012 C 
ATOM      9  C   UNL     1      -7.784  -9.156  10.363  0.00  0.00    +0.024 C 
ATOM     11  C   UNL     1      -9.279  -9.258  10.592  0.00  0.00    -0.073 C 
ATOM     12  C   UNL     1      -9.802  -9.449  11.816  0.00  0.00    -0.023 C 
ATOM     17  C   UNL     1     -10.161  -9.092   9.386  0.00  0.00    +0.039 C 
ENDROOT
BRANCH   6  10
ATOM     10  C   UNL     1      -6.645  -9.513  14.070  0.00  0.00    -0.013 C 
ATOM     15  C   UNL     1      -7.527  -8.966  15.188  0.00  0.00    +0.007 C 
ATOM     16  C   UNL     1      -5.922 -10.777  14.523  0.00  0.00    +0.007 C 
ENDBRANCH   6  10
BRANCH   7  13
ATOM     13  C   UNL     1      -9.558 -10.781  13.900  0.00  0.00    +0.088 C 
BRANCH  13   3
ATOM      3  N   UNL     1     -10.720 -10.361  14.663  0.00  0.00    -0.313 NA
ATOM     30  H   UNL     1     -10.835  -9.350  14.616  0.00  0.00    +0.122 HD
BRANCH   3  19
ATOM     19  C   UNL     1     -10.606 -10.768  16.058  0.00  0.00    +0.109 C 
BRANCH  19  20
ATOM     20  C   UNL     1     -10.270  -9.576  16.940  0.00  0.00    +0.174 C 
BRANCH  20   2
ATOM      2  O   UNL     1      -9.482 -10.024  18.034  0.00  0.00    -0.382 OA
ATOM     23  C   UNL     1     -10.226 -10.031  19.246  0.00  0.00    +0.194 C 
ENDBRANCH  20   2
ENDBRANCH  19  20
ENDBRANCH   3  19
ENDBRANCH  13   3
ENDBRANCH   7  13
BRANCH   9  14
ATOM     14  C   UNL     1      -7.248 -10.412   9.669  0.00  0.00    +0.105 C 
BRANCH  14  18
ATOM      1  O   UNL     1      -5.271 -10.459  11.100  0.00  0.00    -0.420 OA
ATOM      4  N   UNL     1      -4.831 -10.714   8.922  0.00  0.00    -0.112 NA
ATOM      5  N   UNL     1      -3.632 -10.760   9.607  0.00  0.00    -0.107 NA
ATOM     18  C   UNL     1      -5.759 -10.537   9.832  0.00  0.00    +0.218 A 
ATOM     21  C   UNL     1      -3.937 -10.607  10.875  0.00  0.00    +0.248 A 
BRANCH  21  22
ATOM     22  C   UNL     1      -3.097 -10.572  12.037  0.00  0.00    +0.038 A 
ATOM     24  C   UNL     1      -3.658 -10.697  13.307  0.00  0.00    +0.013 A 
ATOM     25  C   UNL     1      -1.718 -10.416  11.897  0.00  0.00    +0.013 A 
ATOM     26  C   UNL     1      -2.842 -10.664  14.437  0.00  0.00    +0.004 A 
ATOM     27  C   UNL     1      -0.901 -10.383  13.027  0.00  0.00    +0.004 A 
ATOM     28  C   UNL     1      -1.463 -10.507  14.297  0.00  0.00    -0.050 A 
ATOM     29  C   UNL     1      -0.590 -10.472  15.506  0.00  0.00    +0.044 C 
ENDBRANCH  21  22
ENDBRANCH  14  18
ENDBRANCH   9  14
TORSDOF 9
ENDMDL
MODEL 6
REMARK VINA RESULT:       0.6      1.568      3.665
REMARK  Name = 38030656
REMARK  14 active torsions:
REMARK  status: ('A' for Active; 'I' for Inactive)
REMARK    1  A    between atoms: O_2  and  C_20
REMARK    2  A    between atoms: O_2  and  C_23
REMARK    3  A    between atoms: N_3  and  C_13
REMARK    4  A    between atoms: N_3  and  C_19
REMARK    5  A    between atoms: C_6  and  C_10
REMARK    6  A    between atoms: C_7  and  C_13
REMARK    7  A    between atoms: C_9  and  C_14
REMARK    8  A    between atoms: C_10  and  C_15
REMARK    9  A    between atoms: C_10  and  C_16
REMARK   10  A    between atoms: C_11  and  C_17
REMARK   11  A    between atoms: C_14  and  C_18
REMARK   12  A    between atoms: C_19  and  C_20
REMARK   13  A    between atoms: C_21  and  C_22
REMARK   14  A    between atoms: C_28  and  C_29
REMARK                            x       y       z     vdW  Elec       q    Type
REMARK                         _______ _______ _______ _____ _____    ______ ____
ROOT
ATOM      6  C   UNL     1      -2.031   2.877  24.980  0.00  0.00    +0.000 C 
ATOM      7  C   UNL     1      -3.250   3.831  24.938  0.00  0.00    +0.029 C 
ATOM      8  C   UNL     1      -1.285   2.900  23.637  0.00  0.00    +0.012 C 
ATOM      9  C   UNL     1      -2.189   2.483  22.462  0.00  0.00    +0.024 C 
ATOM     11  C   UNL     1      -3.529   3.190  22.504  0.00  0.00    -0.073 C 
ATOM     12  C   UNL     1      -3.981   3.798  23.616  0.00  0.00    -0.023 C 
ATOM     17  C   UNL     1      -4.319   3.221  21.226  0.00  0.00    +0.039 C 
ENDROOT
BRANCH   6  10
ATOM     10  C   UNL     1      -1.066   3.237  26.115  0.00  0.00    -0.013 C 
ATOM     15  C   UNL     1      -0.182   2.044  26.462  0.00  0.00    +0.007 C 
ATOM     16  C   UNL     1      -0.218   4.445  25.729  0.00  0.00    +0.007 C 
ENDBRANCH   6  10
BRANCH   7  13
ATOM     13  C   UNL     1      -4.235   3.521  26.072  0.00  0.00    +0.088 C 
BRANCH  13   3
ATOM      3  N   UNL     1      -5.520   3.105  25.537  0.00  0.00    -0.313 NA
ATOM     30  H   UNL     1      -6.271   3.677  25.919  0.00  0.00    +0.122 HD
BRANCH   3  19
ATOM     19  C   UNL     1      -5.783   1.703  25.835  0.00  0.00    +0.109 C 
BRANCH  19  20
ATOM     20  C   UNL     1      -5.148   0.802  24.789  0.00  0.00    +0.174 C 
BRANCH  20   2
ATOM      2  O   UNL     1      -4.337  -0.162  25.447  0.00  0.00    -0.382 OA
ATOM     23  C   UNL     1      -4.245  -1.366  24.698  0.00  0.00    +0.194 C 
ENDBRANCH  20   2
ENDBRANCH  19  20
ENDBRANCH   3  19
ENDBRANCH  13   3
ENDBRANCH   7  13
BRANCH   9  14
ATOM     14  C   UNL     1      -2.372   0.963  22.418  0.00  0.00    +0.105 C 
BRANCH  14  18
ATOM      1  O   UNL     1       0.006   0.525  22.757  0.00  0.00    -0.420 OA
ATOM      4  N   UNL     1      -1.341  -0.606  24.140  0.00  0.00    -0.112 NA
ATOM      5  N   UNL     1      -0.036  -0.946  24.441  0.00  0.00    -0.107 NA
ATOM     18  C   UNL     1      -1.269   0.255  23.152  0.00  0.00    +0.218 A 
ATOM     21  C   UNL     1       0.715  -0.263  23.610  0.00  0.00    +0.248 A 
BRANCH  21  22
ATOM     22  C   UNL     1       2.142  -0.220  23.464  0.00  0.00    +0.038 A 
ATOM     24  C   UNL     1       2.757   0.927  22.963  0.00  0.00    +0.013 A 
ATOM     25  C   UNL     1       2.914  -1.323  23.826  0.00  0.00    +0.013 A 
ATOM     26  C   UNL     1       4.144   0.970  22.821  0.00  0.00    +0.004 A 
ATOM     27  C   UNL     1       4.301  -1.281  23.684  0.00  0.00    +0.004 A 
ATOM     28  C   UNL     1       4.915  -0.134  23.182  0.00  0.00    -0.050 A 
ATOM     29  C   UNL     1       6.399  -0.088  23.031  0.00  0.00    +0.044 C 
ENDBRANCH  21  22
ENDBRANCH  14  18
ENDBRANCH   9  14
TORSDOF 9
ENDMDL
MODEL 7
REMARK VINA RESULT:       0.6      1.777      4.238
REMARK  Name = 38030656
REMARK  14 active torsions:
REMARK  status: ('A' for Active; 'I' for Inactive)
REMARK    1  A    between atoms: O_2  and  C_20
REMARK    2  A    between atoms: O_2  and  C_23
REMARK    3  A    between atoms: N_3  and  C_13
REMARK    4  A    between atoms: N_3  and  C_19
REMARK    5  A    between atoms: C_6  and  C_10
REMARK    6  A    between atoms: C_7  and  C_13
REMARK    7  A    between atoms: C_9  and  C_14
REMARK    8  A    between atoms: C_10  and  C_15
REMARK    9  A    between atoms: C_10  and  C_16
REMARK   10  A    between atoms: C_11  and  C_17
REMARK   11  A    between atoms: C_14  and  C_18
REMARK   12  A    between atoms: C_19  and  C_20
REMARK   13  A    between atoms: C_21  and  C_22
REMARK   14  A    between atoms: C_28  and  C_29
REMARK                            x       y       z     vdW  Elec       q    Type
REMARK                         _______ _______ _______ _____ _____    ______ ____
ROOT
ATOM      6  C   UNL     1      -4.215   2.606  25.277  0.00  0.00    +0.000 C 
ATOM      7  C   UNL     1      -4.691   1.413  24.412  0.00  0.00    +0.029 C 
ATOM      8  C   UNL     1      -3.726   3.755  24.382  0.00  0.00    +0.012 C 
ATOM      9  C   UNL     1      -2.567   3.326  23.465  0.00  0.00    +0.024 C 
ATOM     11  C   UNL     1      -2.853   2.007  22.775  0.00  0.00    -0.073 C 
ATOM     12  C   UNL     1      -3.815   1.171  23.205  0.00  0.00    -0.023 C 
ATOM     17  C   UNL     1      -2.037   1.691  21.553  0.00  0.00    +0.039 C 
ENDROOT
BRANCH   6  10
ATOM     10  C   UNL     1      -5.321   3.110  26.209  0.00  0.00    -0.013 C 
ATOM     15  C   UNL     1      -5.922   4.405  25.673  0.00  0.00    +0.007 C 
ATOM     16  C   UNL     1      -6.400   2.045  26.380  0.00  0.00    +0.007 C 
ENDBRANCH   6  10
BRANCH   7  13
ATOM     13  C   UNL     1      -4.779   0.128  25.244  0.00  0.00    +0.088 C 
BRANCH  13   3
ATOM      3  N   UNL     1      -3.460  -0.444  25.447  0.00  0.00    -0.313 NA
ATOM     30  H   UNL     1      -2.819  -0.141  24.714  0.00  0.00    +0.122 HD
BRANCH   3  19
ATOM     19  C   UNL     1      -3.516  -1.901  25.465  0.00  0.00    +0.109 C 
BRANCH  19  20
ATOM     20  C   UNL     1      -3.199  -2.468  24.091  0.00  0.00    +0.174 C 
BRANCH  20   2
ATOM      2  O   UNL     1      -1.860  -2.945  24.092  0.00  0.00    -0.382 OA
ATOM     23  C   UNL     1      -1.155  -2.525  25.252  0.00  0.00    +0.194 C 
ENDBRANCH  20   2
ENDBRANCH  19  20
ENDBRANCH   3  19
ENDBRANCH  13   3
ENDBRANCH   7  13
BRANCH   9  14
ATOM     14  C   UNL     1      -1.244   3.266  24.235  0.00  0.00    +0.105 C 
BRANCH  14  18
ATOM      1  O   UNL     1       0.814   2.009  23.856  0.00  0.00    -0.420 OA
ATOM      4  N   UNL     1      -1.029   0.745  23.942  0.00  0.00    -0.112 NA
ATOM      5  N   UNL     1       0.051  -0.090  23.725  0.00  0.00    -0.107 NA
ATOM     18  C   UNL     1      -0.537   1.959  24.013  0.00  0.00    +0.218 A 
ATOM     21  C   UNL     1       1.105   0.691  23.682  0.00  0.00    +0.248 A 
BRANCH  21  22
ATOM     22  C   UNL     1       2.490   0.375  23.484  0.00  0.00    +0.038 A 
ATOM     24  C   UNL     1       3.361   1.343  22.985  0.00  0.00    +0.013 A 
ATOM     25  C   UNL     1       2.966  -0.899  23.791  0.00  0.00    +0.013 A 
ATOM     26  C   UNL     1       4.708   1.037  22.793  0.00  0.00    +0.004 A 
ATOM     27  C   UNL     1       4.313  -1.206  23.599  0.00  0.00    +0.004 A 
ATOM     28  C   UNL     1       5.184  -0.238  23.099  0.00  0.00    -0.050 A 
ATOM     29  C   UNL     1       6.625  -0.565  22.893  0.00  0.00    +0.044 C 
ENDBRANCH  21  22
ENDBRANCH  14  18
ENDBRANCH   9  14
TORSDOF 9
ENDMDL
MODEL 8
REMARK VINA RESULT:       0.6      2.030      4.811
REMARK  Name = 38030656
REMARK  14 active torsions:
REMARK  status: ('A' for Active; 'I' for Inactive)
REMARK    1  A    between atoms: O_2  and  C_20
REMARK    2  A    between atoms: O_2  and  C_23
REMARK    3  A    between atoms: N_3  and  C_13
REMARK    4  A    between atoms: N_3  and  C_19
REMARK    5  A    between atoms: C_6  and  C_10
REMARK    6  A    between atoms: C_7  and  C_13
REMARK    7  A    between atoms: C_9  and  C_14
REMARK    8  A    between atoms: C_10  and  C_15
REMARK    9  A    between atoms: C_10  and  C_16
REMARK   10  A    between atoms: C_11  and  C_17
REMARK   11  A    between atoms: C_14  and  C_18
REMARK   12  A    between atoms: C_19  and  C_20
REMARK   13  A    between atoms: C_21  and  C_22
REMARK   14  A    between atoms: C_28  and  C_29
REMARK                            x       y       z     vdW  Elec       q    Type
REMARK                         _______ _______ _______ _____ _____    ______ ____
ROOT
ATOM      6  C   UNL     1      -4.086   3.073  25.030  0.00  0.00    +0.000 C 
ATOM      7  C   UNL     1      -3.480   3.255  23.617  0.00  0.00    +0.029 C 
ATOM      8  C   UNL     1      -3.898   4.350  25.863  0.00  0.00    +0.012 C 
ATOM      9  C   UNL     1      -2.414   4.733  26.015  0.00  0.00    +0.024 C 
ATOM     11  C   UNL     1      -1.679   4.675  24.690  0.00  0.00    -0.073 C 
ATOM     12  C   UNL     1      -2.177   4.020  23.626  0.00  0.00    -0.023 C 
ATOM     17  C   UNL     1      -0.379   5.424  24.605  0.00  0.00    +0.039 C 
ENDROOT
BRANCH   6  10
ATOM     10  C   UNL     1      -5.572   2.708  24.969  0.00  0.00    -0.013 C 
ATOM     15  C   UNL     1      -5.832   1.402  25.711  0.00  0.00    +0.007 C 
ATOM     16  C   UNL     1      -6.422   3.836  25.546  0.00  0.00    +0.007 C 
ENDBRANCH   6  10
BRANCH   7  13
ATOM     13  C   UNL     1      -3.271   1.902  22.925  0.00  0.00    +0.088 C 
BRANCH  13   3
ATOM      3  N   UNL     1      -2.064   1.920  22.118  0.00  0.00    -0.313 NA
ATOM     30  H   UNL     1      -2.291   2.049  21.133  0.00  0.00    +0.122 HD
BRANCH   3  19
ATOM     19  C   UNL     1      -1.306   0.685  22.279  0.00  0.00    +0.109 C 
BRANCH  19  20
ATOM     20  C   UNL     1       0.106   0.980  22.756  0.00  0.00    +0.174 C 
BRANCH  20   2
ATOM      2  O   UNL     1       0.867  -0.220  22.700  0.00  0.00    -0.382 OA
ATOM     23  C   UNL     1       2.252   0.048  22.519  0.00  0.00    +0.194 C 
ENDBRANCH  20   2
ENDBRANCH  19  20
ENDBRANCH   3  19
ENDBRANCH  13   3
ENDBRANCH   7  13
BRANCH   9  14
ATOM     14  C   UNL     1      -1.722   3.859  27.065  0.00  0.00    +0.105 C 
BRANCH  14  18
ATOM      1  O   UNL     1      -2.127   1.633  26.148  0.00  0.00    -0.420 OA
ATOM      4  N   UNL     1       0.029   2.230  26.188  0.00  0.00    -0.112 NA
ATOM      5  N   UNL     1      -0.052   0.960  25.649  0.00  0.00    -0.107 NA
ATOM     18  C   UNL     1      -1.204   2.583  26.464  0.00  0.00    +0.218 A 
ATOM     21  C   UNL     1      -1.328   0.652  25.645  0.00  0.00    +0.248 A 
BRANCH  21  22
ATOM     22  C   UNL     1      -1.998  -0.536  25.201  0.00  0.00    +0.038 A 
ATOM     24  C   UNL     1      -3.383  -0.536  25.039  0.00  0.00    +0.013 A 
ATOM     25  C   UNL     1      -1.264  -1.690  24.928  0.00  0.00    +0.013 A 
ATOM     26  C   UNL     1      -4.035  -1.691  24.607  0.00  0.00    +0.004 A 
ATOM     27  C   UNL     1      -1.916  -2.845  24.495  0.00  0.00    +0.004 A 
ATOM     28  C   UNL     1      -3.301  -2.845  24.335  0.00  0.00    -0.050 A 
ATOM     29  C   UNL     1      -3.999  -4.080  23.872  0.00  0.00    +0.044 C 
ENDBRANCH  21  22
ENDBRANCH  14  18
ENDBRANCH   9  14
TORSDOF 9
ENDMDL
MODEL 9
REMARK VINA RESULT:       0.7     14.325     16.090
REMARK  Name = 38030656
REMARK  14 active torsions:
REMARK  status: ('A' for Active; 'I' for Inactive)
REMARK    1  A    between atoms: O_2  and  C_20
REMARK    2  A    between atoms: O_2  and  C_23
REMARK    3  A    between atoms: N_3  and  C_13
REMARK    4  A    between atoms: N_3  and  C_19
REMARK    5  A    between atoms: C_6  and  C_10
REMARK    6  A    between atoms: C_7  and  C_13
REMARK    7  A    between atoms: C_9  and  C_14
REMARK    8  A    between atoms: C_10  and  C_15
REMARK    9  A    between atoms: C_10  and  C_16
REMARK   10  A    between atoms: C_11  and  C_17
REMARK   11  A    between atoms: C_14  and  C_18
REMARK   12  A    between atoms: C_19  and  C_20
REMARK   13  A    between atoms: C_21  and  C_22
REMARK   14  A    between atoms: C_28  and  C_29
REMARK                            x       y       z     vdW  Elec       q    Type
REMARK                         _______ _______ _______ _____ _____    ______ ____
ROOT
ATOM      6  C   UNL     1      -5.927 -10.475  15.668  0.00  0.00    +0.000 C 
ATOM      7  C   UNL     1      -7.312  -9.788  15.584  0.00  0.00    +0.029 C 
ATOM      8  C   UNL     1      -4.860  -9.620  14.969  0.00  0.00    +0.012 C 
ATOM      9  C   UNL     1      -5.192  -9.373  13.486  0.00  0.00    +0.024 C 
ATOM     11  C   UNL     1      -6.634  -8.945  13.295  0.00  0.00    -0.073 C 
ATOM     12  C   UNL     1      -7.564  -9.127  14.249  0.00  0.00    -0.023 C 
ATOM     17  C   UNL     1      -6.972  -8.264  11.998  0.00  0.00    +0.039 C 
ENDROOT
BRANCH   6  10
ATOM     10  C   UNL     1      -5.511 -10.740  17.119  0.00  0.00    -0.013 C 
ATOM     15  C   UNL     1      -4.013 -10.509  17.294  0.00  0.00    +0.007 C 
ATOM     16  C   UNL     1      -6.309  -9.856  18.072  0.00  0.00    +0.007 C 
ENDBRANCH   6  10
BRANCH   7  13
ATOM     13  C   UNL     1      -8.442 -10.780  15.883  0.00  0.00    +0.088 C 
BRANCH  13   3
ATOM      3  N   UNL     1      -9.724 -10.237  15.471  0.00  0.00    -0.313 NA
ATOM     30  H   UNL     1      -9.595  -9.410  14.889  0.00  0.00    +0.122 HD
BRANCH   3  19
ATOM     19  C   UNL     1     -10.542  -9.889  16.627  0.00  0.00    +0.109 C 
BRANCH  19  20
ATOM     20  C   UNL     1     -10.577  -8.382  16.826  0.00  0.00    +0.174 C 
BRANCH  20   2
ATOM      2  O   UNL     1     -10.582  -7.752  15.552  0.00  0.00    -0.382 OA
ATOM     23  C   UNL     1     -10.653  -6.338  15.669  0.00  0.00    +0.194 C 
ENDBRANCH  20   2
ENDBRANCH  19  20
ENDBRANCH   3  19
ENDBRANCH  13   3
ENDBRANCH   7  13
BRANCH   9  14
ATOM     14  C   UNL     1      -4.867 -10.604  12.634  0.00  0.00    +0.105 C 
BRANCH  14  18
ATOM      1  O   UNL     1      -2.672  -9.599  12.268  0.00  0.00    -0.420 OA
ATOM      4  N   UNL     1      -3.441 -10.780  10.530  0.00  0.00    -0.112 NA
ATOM      5  N   UNL     1      -2.202 -10.274  10.187  0.00  0.00    -0.107 NA
ATOM     18  C   UNL     1      -3.675 -10.362  11.752  0.00  0.00    +0.218 A 
ATOM     21  C   UNL     1      -1.791  -9.592  11.230  0.00  0.00    +0.248 A 
BRANCH  21  22
ATOM     22  C   UNL     1      -0.579  -8.854  11.442  0.00  0.00    +0.038 A 
ATOM     24  C   UNL     1       0.575  -9.191  10.737  0.00  0.00    +0.013 A 
ATOM     25  C   UNL     1      -0.557  -7.797  12.352  0.00  0.00    +0.013 A 
ATOM     26  C   UNL     1       1.753  -8.473  10.942  0.00  0.00    +0.004 A 
ATOM     27  C   UNL     1       0.621  -7.079  12.557  0.00  0.00    +0.004 A 
ATOM     28  C   UNL     1       1.776  -7.417  11.853  0.00  0.00    -0.050 A 
ATOM     29  C   UNL     1       3.036  -6.649  12.072  0.00  0.00    +0.044 C 
ENDBRANCH  21  22
ENDBRANCH  14  18
ENDBRANCH   9  14
TORSDOF 9
ENDMDL
MODEL 10
REMARK VINA RESULT:       0.8      1.695      2.831
REMARK  Name = 38030656
REMARK  14 active torsions:
REMARK  status: ('A' for Active; 'I' for Inactive)
REMARK    1  A    between atoms: O_2  and  C_20
REMARK    2  A    between atoms: O_2  and  C_23
REMARK    3  A    between atoms: N_3  and  C_13
REMARK    4  A    between atoms: N_3  and  C_19
REMARK    5  A    between atoms: C_6  and  C_10
REMARK    6  A    between atoms: C_7  and  C_13
REMARK    7  A    between atoms: C_9  and  C_14
REMARK    8  A    between atoms: C_10  and  C_15
REMARK    9  A    between atoms: C_10  and  C_16
REMARK   10  A    between atoms: C_11  and  C_17
REMARK   11  A    between atoms: C_14  and  C_18
REMARK   12  A    between atoms: C_19  and  C_20
REMARK   13  A    between atoms: C_21  and  C_22
REMARK   14  A    between atoms: C_28  and  C_29
REMARK                            x       y       z     vdW  Elec       q    Type
REMARK                         _______ _______ _______ _____ _____    ______ ____
ROOT
ATOM      6  C   UNL     1      -2.105   3.893  24.886  0.00  0.00    +0.000 C 
ATOM      7  C   UNL     1      -2.594   3.785  26.351  0.00  0.00    +0.029 C 
ATOM      8  C   UNL     1      -3.261   4.311  23.964  0.00  0.00    +0.012 C 
ATOM      9  C   UNL     1      -4.434   3.315  24.015  0.00  0.00    +0.024 C 
ATOM     11  C   UNL     1      -4.803   2.950  25.439  0.00  0.00    -0.073 C 
ATOM     12  C   UNL     1      -3.972   3.180  26.472  0.00  0.00    -0.023 C 
ATOM     17  C   UNL     1      -6.166   2.355  25.654  0.00  0.00    +0.039 C 
ENDROOT
BRANCH   6  10
ATOM     10  C   UNL     1      -0.945   4.884  24.745  0.00  0.00    -0.013 C 
ATOM     15  C   UNL     1      -0.208   4.658  23.429  0.00  0.00    +0.007 C 
ATOM     16  C   UNL     1      -1.455   6.318  24.838  0.00  0.00    +0.007 C 
ENDBRANCH   6  10
BRANCH   7  13
ATOM     13  C   UNL     1      -1.607   2.981  27.206  0.00  0.00    +0.088 C 
BRANCH  13   3
ATOM      3  N   UNL     1      -0.454   2.580  26.419  0.00  0.00    -0.313 NA
ATOM     30  H   UNL     1      -0.557   1.620  26.092  0.00  0.00    +0.122 HD
BRANCH   3  19
ATOM     19  C   UNL     1       0.776   2.695  27.193  0.00  0.00    +0.109 C 
BRANCH  19  20
ATOM     20  C   UNL     1       0.604   2.077  28.571  0.00  0.00    +0.174 C 
BRANCH  20   2
ATOM      2  O   UNL     1       1.512   2.701  29.469  0.00  0.00    -0.382 OA
ATOM     23  C   UNL     1       2.787   2.896  28.871  0.00  0.00    +0.194 C 
ENDBRANCH  20   2
ENDBRANCH  19  20
ENDBRANCH   3  19
ENDBRANCH  13   3
ENDBRANCH   7  13
BRANCH   9  14
ATOM     14  C   UNL     1      -4.132   2.061  23.188  0.00  0.00    +0.105 C 
BRANCH  14  18
ATOM      1  O   UNL     1      -1.764   1.469  23.136  0.00  0.00    -0.420 OA
ATOM      4  N   UNL     1      -2.922   0.473  24.771  0.00  0.00    -0.112 NA
ATOM      5  N   UNL     1      -1.609   0.051  24.860  0.00  0.00    -0.107 NA
ATOM     18  C   UNL     1      -2.966   1.299  23.752  0.00  0.00    +0.218 A 
ATOM     21  C   UNL     1      -0.970   0.657  23.887  0.00  0.00    +0.248 A 
BRANCH  21  22
ATOM     22  C   UNL     1       0.410   0.597  23.499  0.00  0.00    +0.038 A 
ATOM     24  C   UNL     1       0.888  -0.503  22.790  0.00  0.00    +0.013 A 
ATOM     25  C   UNL     1       1.273   1.642  23.831  0.00  0.00    +0.013 A 
ATOM     26  C   UNL     1       2.229  -0.562  22.412  0.00  0.00    +0.004 A 
ATOM     27  C   UNL     1       2.615   1.583  23.453  0.00  0.00    +0.004 A 
ATOM     28  C   UNL     1       3.093   0.482  22.744  0.00  0.00    -0.050 A 
ATOM     29  C   UNL     1       4.527   0.419  22.341  0.00  0.00    +0.044 C 
ENDBRANCH  21  22
ENDBRANCH  14  18
ENDBRANCH   9  14
TORSDOF 9
ENDMDL
