MODEL 1
REMARK VINA RESULT:      -0.7      0.000      0.000
REMARK  Name = 11866332
REMARK  6 active torsions:
REMARK  status: ('A' for Active; 'I' for Inactive)
REMARK    1  A    between atoms: O_1  and  C_10
REMARK    2  A    between atoms: O_2  and  C_11
REMARK    3  A    between atoms: N_6  and  C_16
REMARK    4  A    between atoms: N_7  and  C_12
REMARK    5  A    between atoms: C_14  and  C_19
REMARK    6  A    between atoms: C_22  and  C_23
REMARK                            x       y       z     vdW  Elec       q    Type
REMARK                         _______ _______ _______ _____ _____    ______ ____
ROOT
ATOM     10  C   UNL     1      -0.987  -2.310  24.774  0.00  0.00    +0.167 C 
ATOM     11  C   UNL     1      -2.512  -2.458  24.859  0.00  0.00    +0.149 C 
ATOM     12  C   UNL     1      -0.580  -1.234  23.751  0.00  0.00    +0.128 C 
ATOM     13  C   UNL     1      -3.205  -1.124  25.184  0.00  0.00    +0.074 C 
ATOM     14  C   UNL     1      -2.579   0.057  24.496  0.00  0.00    +0.015 C 
ATOM     15  C   UNL     1      -1.409   0.020  23.843  0.00  0.00    +0.006 C 
ENDROOT
BRANCH  14  19
ATOM      3  O   UNL     1      -3.783   1.806  23.491  0.00  0.00    -0.271 OA
ATOM      6  N   UNL     1      -3.365   1.894  25.782  0.00  0.00    -0.300 N 
ATOM     19  C   UNL     1      -3.302   1.331  24.520  0.00  0.00    +0.241 C 
ATOM     28  H   UNL     1      -2.929   1.438  26.575  0.00  0.00    +0.150 HD
BRANCH   6  16
ATOM      4  O   UNL     1      -6.003   1.842  26.494  0.00  0.00    -0.274 OA
ATOM      8  N   UNL     1      -6.323   3.958  25.694  0.00  0.00    -0.314 N 
ATOM     16  C   UNL     1      -4.021   3.147  26.054  0.00  0.00    +0.159 C 
ATOM     17  C   UNL     1      -3.574   4.217  25.067  0.00  0.00    +0.033 C 
ATOM     18  C   UNL     1      -4.408   5.473  25.266  0.00  0.00    +0.021 C 
ATOM     20  C   UNL     1      -5.866   5.147  24.999  0.00  0.00    +0.104 C 
ATOM     21  C   UNL     1      -5.525   2.896  26.070  0.00  0.00    +0.233 C 
ATOM     30  H   UNL     1      -7.326   3.822  25.756  0.00  0.00    +0.149 HD
ENDBRANCH   6  16
ENDBRANCH  14  19
BRANCH  12   7
ATOM      5  O   UNL     1       1.186  -0.459  21.625  0.00  0.00    -0.270 OA
ATOM      7  N   UNL     1       0.813  -0.881  23.874  0.00  0.00    -0.302 N 
ATOM     22  C   UNL     1       1.590  -0.519  22.783  0.00  0.00    +0.246 C 
ATOM     29  H   UNL     1       1.241  -1.004  24.787  0.00  0.00    +0.150 HD
BRANCH  22  23
ATOM      9  N   UNL     1       4.796   1.381  23.036  0.00  0.00    -0.263 NA
ATOM     23  C   UNL     1       3.014  -0.210  23.073  0.00  0.00    +0.055 A 
ATOM     24  C   UNL     1       3.826  -1.176  23.616  0.00  0.00    +0.016 A 
ATOM     25  C   UNL     1       3.511   1.034  22.798  0.00  0.00    +0.123 A 
ATOM     26  C   UNL     1       5.155  -0.858  23.876  0.00  0.00    +0.020 A 
ATOM     27  C   UNL     1       5.587   0.423  23.571  0.00  0.00    +0.111 A 
ENDBRANCH  22  23
ENDBRANCH  12   7
BRANCH  10   1
ATOM      1  O   UNL     1      -0.487  -1.957  26.066  0.00  0.00    -0.387 OA
ATOM     31  H   UNL     1      -0.455  -0.986  26.111  0.00  0.00    +0.210 HD
ENDBRANCH  10   1
BRANCH  11   2
ATOM      2  O   UNL     1      -3.022  -2.991  23.638  0.00  0.00    -0.389 OA
ATOM     32  H   UNL     1      -2.363  -2.817  22.945  0.00  0.00    +0.210 HD
ENDBRANCH  11   2
TORSDOF 6
ENDMDL
MODEL 2
REMARK VINA RESULT:      -0.6      1.106      1.522
REMARK  Name = 11866332
REMARK  6 active torsions:
REMARK  status: ('A' for Active; 'I' for Inactive)
REMARK    1  A    between atoms: O_1  and  C_10
REMARK    2  A    between atoms: O_2  and  C_11
REMARK    3  A    between atoms: N_6  and  C_16
REMARK    4  A    between atoms: N_7  and  C_12
REMARK    5  A    between atoms: C_14  and  C_19
REMARK    6  A    between atoms: C_22  and  C_23
REMARK                            x       y       z     vdW  Elec       q    Type
REMARK                         _______ _______ _______ _____ _____    ______ ____
ROOT
ATOM     10  C   UNL     1      -0.808  -2.468  24.859  0.00  0.00    +0.167 C 
ATOM     11  C   UNL     1      -2.329  -2.592  25.020  0.00  0.00    +0.149 C 
ATOM     12  C   UNL     1      -0.433  -1.317  23.907  0.00  0.00    +0.128 C 
ATOM     13  C   UNL     1      -2.969  -1.277  25.495  0.00  0.00    +0.074 C 
ATOM     14  C   UNL     1      -2.354  -0.055  24.873  0.00  0.00    +0.015 C 
ATOM     15  C   UNL     1      -1.224  -0.059  24.152  0.00  0.00    +0.006 C 
ENDROOT
BRANCH  14  19
ATOM      3  O   UNL     1      -2.515   2.151  25.663  0.00  0.00    -0.271 OA
ATOM      6  N   UNL     1      -4.294   1.253  24.454  0.00  0.00    -0.300 N 
ATOM     19  C   UNL     1      -3.043   1.227  25.045  0.00  0.00    +0.241 C 
ATOM     28  H   UNL     1      -4.656   0.438  23.973  0.00  0.00    +0.150 HD
BRANCH   6  16
ATOM      4  O   UNL     1      -3.670   3.393  22.872  0.00  0.00    -0.274 OA
ATOM      8  N   UNL     1      -4.754   4.827  24.282  0.00  0.00    -0.314 N 
ATOM     16  C   UNL     1      -5.160   2.403  24.493  0.00  0.00    +0.159 C 
ATOM     17  C   UNL     1      -5.622   2.685  25.916  0.00  0.00    +0.033 C 
ATOM     18  C   UNL     1      -6.386   3.998  25.952  0.00  0.00    +0.021 C 
ATOM     20  C   UNL     1      -5.465   5.121  25.512  0.00  0.00    +0.104 C 
ATOM     21  C   UNL     1      -4.428   3.564  23.828  0.00  0.00    +0.233 C 
ATOM     30  H   UNL     1      -4.316   5.611  23.808  0.00  0.00    +0.149 HD
ENDBRANCH   6  16
ENDBRANCH  14  19
BRANCH  12   7
ATOM      5  O   UNL     1       1.216  -0.343  21.769  0.00  0.00    -0.270 OA
ATOM      7  N   UNL     1       0.973  -1.004  23.978  0.00  0.00    -0.302 N 
ATOM     22  C   UNL     1       1.689  -0.536  22.885  0.00  0.00    +0.246 C 
ATOM     29  H   UNL     1       1.454  -1.235  24.843  0.00  0.00    +0.150 HD
BRANCH  22  23
ATOM      9  N   UNL     1       5.000   1.192  22.902  0.00  0.00    -0.263 NA
ATOM     23  C   UNL     1       3.135  -0.286  23.114  0.00  0.00    +0.055 A 
ATOM     24  C   UNL     1       3.909  -1.248  23.718  0.00  0.00    +0.016 A 
ATOM     25  C   UNL     1       3.692   0.901  22.724  0.00  0.00    +0.123 A 
ATOM     26  C   UNL     1       5.260  -0.985  23.919  0.00  0.00    +0.020 A 
ATOM     27  C   UNL     1       5.752   0.239  23.497  0.00  0.00    +0.111 A 
ENDBRANCH  22  23
ENDBRANCH  12   7
BRANCH  10   1
ATOM      1  O   UNL     1      -0.228  -2.236  26.144  0.00  0.00    -0.387 OA
ATOM     31  H   UNL     1       0.076  -3.094  26.487  0.00  0.00    +0.210 HD
ENDBRANCH  10   1
BRANCH  11   2
ATOM      2  O   UNL     1      -2.920  -3.009  23.790  0.00  0.00    -0.389 OA
ATOM     32  H   UNL     1      -3.553  -3.718  23.995  0.00  0.00    +0.210 HD
ENDBRANCH  11   2
TORSDOF 6
ENDMDL
MODEL 3
REMARK VINA RESULT:       1.0      1.570      7.429
REMARK  Name = 11866332
REMARK  6 active torsions:
REMARK  status: ('A' for Active; 'I' for Inactive)
REMARK    1  A    between atoms: O_1  and  C_10
REMARK    2  A    between atoms: O_2  and  C_11
REMARK    3  A    between atoms: N_6  and  C_16
REMARK    4  A    between atoms: N_7  and  C_12
REMARK    5  A    between atoms: C_14  and  C_19
REMARK    6  A    between atoms: C_22  and  C_23
REMARK                            x       y       z     vdW  Elec       q    Type
REMARK                         _______ _______ _______ _____ _____    ______ ____
ROOT
ATOM     10  C   UNL     1      -4.332  -1.818  24.226  0.00  0.00    +0.167 C 
ATOM     11  C   UNL     1      -3.521  -3.100  23.998  0.00  0.00    +0.149 C 
ATOM     12  C   UNL     1      -3.812  -1.030  25.443  0.00  0.00    +0.128 C 
ATOM     13  C   UNL     1      -2.017  -2.814  23.845  0.00  0.00    +0.074 C 
ATOM     14  C   UNL     1      -1.518  -1.736  24.766  0.00  0.00    +0.015 C 
ATOM     15  C   UNL     1      -2.310  -0.936  25.494  0.00  0.00    +0.006 C 
ENDROOT
BRANCH  14  19
ATOM      3  O   UNL     1       0.583  -2.238  25.688  0.00  0.00    -0.271 OA
ATOM      6  N   UNL     1       0.432  -0.576  24.060  0.00  0.00    -0.300 N 
ATOM     19  C   UNL     1      -0.070  -1.558  24.897  0.00  0.00    +0.241 C 
ATOM     28  H   UNL     1      -0.183  -0.055  23.447  0.00  0.00    +0.150 HD
BRANCH   6  16
ATOM      4  O   UNL     1       1.088   2.077  24.103  0.00  0.00    -0.274 OA
ATOM      8  N   UNL     1       3.051   1.671  23.007  0.00  0.00    -0.314 N 
ATOM     16  C   UNL     1       1.827  -0.219  24.013  0.00  0.00    +0.159 C 
ATOM     17  C   UNL     1       2.584  -1.121  23.048  0.00  0.00    +0.033 C 
ATOM     18  C   UNL     1       4.008  -0.612  22.887  0.00  0.00    +0.021 C 
ATOM     20  C   UNL     1       3.971   0.791  22.311  0.00  0.00    +0.104 C 
ATOM     21  C   UNL     1       1.920   1.267  23.689  0.00  0.00    +0.233 C 
ATOM     30  H   UNL     1       3.152   2.666  22.836  0.00  0.00    +0.149 HD
ENDBRANCH   6  16
ENDBRANCH  14  19
BRANCH  12   7
ATOM      5  O   UNL     1      -2.779   1.301  24.124  0.00  0.00    -0.270 OA
ATOM      7  N   UNL     1      -4.363   0.302  25.490  0.00  0.00    -0.302 N 
ATOM     22  C   UNL     1      -3.790   1.371  24.816  0.00  0.00    +0.246 C 
ATOM     29  H   UNL     1      -5.143   0.457  26.123  0.00  0.00    +0.150 HD
BRANCH  22  23
ATOM      9  N   UNL     1      -6.274   3.932  25.921  0.00  0.00    -0.263 NA
ATOM     23  C   UNL     1      -4.464   2.684  24.987  0.00  0.00    +0.055 A 
ATOM     24  C   UNL     1      -3.932   3.807  24.401  0.00  0.00    +0.016 A 
ATOM     25  C   UNL     1      -5.612   2.770  25.726  0.00  0.00    +0.123 A 
ATOM     26  C   UNL     1      -4.585   5.022  24.578  0.00  0.00    +0.020 A 
ATOM     27  C   UNL     1      -5.742   5.031  25.340  0.00  0.00    +0.111 A 
ENDBRANCH  22  23
ENDBRANCH  12   7
BRANCH  10   1
ATOM      1  O   UNL     1      -4.244  -1.004  23.054  0.00  0.00    -0.387 OA
ATOM     31  H   UNL     1      -4.919  -0.309  23.130  0.00  0.00    +0.210 HD
ENDBRANCH  10   1
BRANCH  11   2
ATOM      2  O   UNL     1      -3.739  -4.016  25.070  0.00  0.00    -0.389 OA
ATOM     32  H   UNL     1      -4.378  -4.680  24.762  0.00  0.00    +0.210 HD
ENDBRANCH  11   2
TORSDOF 6
ENDMDL
MODEL 4
REMARK VINA RESULT:       1.2      1.432      7.967
REMARK  Name = 11866332
REMARK  6 active torsions:
REMARK  status: ('A' for Active; 'I' for Inactive)
REMARK    1  A    between atoms: O_1  and  C_10
REMARK    2  A    between atoms: O_2  and  C_11
REMARK    3  A    between atoms: N_6  and  C_16
REMARK    4  A    between atoms: N_7  and  C_12
REMARK    5  A    between atoms: C_14  and  C_19
REMARK    6  A    between atoms: C_22  and  C_23
REMARK                            x       y       z     vdW  Elec       q    Type
REMARK                         _______ _______ _______ _____ _____    ______ ____
ROOT
ATOM     10  C   UNL     1      -3.114  -1.586  24.664  0.00  0.00    +0.167 C 
ATOM     11  C   UNL     1      -2.041  -2.601  24.250  0.00  0.00    +0.149 C 
ATOM     12  C   UNL     1      -2.523  -0.467  25.542  0.00  0.00    +0.128 C 
ATOM     13  C   UNL     1      -0.856  -1.931  23.534  0.00  0.00    +0.074 C 
ATOM     14  C   UNL     1      -0.477  -0.602  24.124  0.00  0.00    +0.015 C 
ATOM     15  C   UNL     1      -1.209   0.061  25.031  0.00  0.00    +0.006 C 
ENDROOT
BRANCH  14  19
ATOM      3  O   UNL     1       0.926   1.228  23.675  0.00  0.00    -0.271 OA
ATOM      6  N   UNL     1       1.746  -0.929  23.350  0.00  0.00    -0.300 N 
ATOM     19  C   UNL     1       0.788   0.005  23.700  0.00  0.00    +0.241 C 
ATOM     28  H   UNL     1       1.541  -1.921  23.389  0.00  0.00    +0.150 HD
BRANCH   6  16
ATOM      4  O   UNL     1       3.861  -2.419  24.233  0.00  0.00    -0.274 OA
ATOM      8  N   UNL     1       5.293  -0.661  23.956  0.00  0.00    -0.314 N 
ATOM     16  C   UNL     1       3.067  -0.572  22.898  0.00  0.00    +0.159 C 
ATOM     17  C   UNL     1       3.234   0.941  22.857  0.00  0.00    +0.033 C 
ATOM     18  C   UNL     1       4.682   1.284  22.547  0.00  0.00    +0.021 C 
ATOM     20  C   UNL     1       5.569   0.730  23.646  0.00  0.00    +0.104 C 
ATOM     21  C   UNL     1       4.077  -1.292  23.784  0.00  0.00    +0.233 C 
ATOM     30  H   UNL     1       5.994  -1.157  24.496  0.00  0.00    +0.149 HD
ENDBRANCH   6  16
ENDBRANCH  14  19
BRANCH  12   7
ATOM      5  O   UNL     1      -2.814   1.771  23.768  0.00  0.00    -0.270 OA
ATOM      7  N   UNL     1      -3.442   0.635  25.690  0.00  0.00    -0.302 N 
ATOM     22  C   UNL     1      -3.510   1.677  24.775  0.00  0.00    +0.246 C 
ATOM     29  H   UNL     1      -3.979   0.676  26.551  0.00  0.00    +0.150 HD
BRANCH  22  23
ATOM      9  N   UNL     1      -6.580   3.372  26.060  0.00  0.00    -0.263 NA
ATOM     23  C   UNL     1      -4.490   2.749  25.084  0.00  0.00    +0.055 A 
ATOM     24  C   UNL     1      -4.232   4.043  24.699  0.00  0.00    +0.016 A 
ATOM     25  C   UNL     1      -5.647   2.446  25.749  0.00  0.00    +0.123 A 
ATOM     26  C   UNL     1      -5.170   5.026  25.001  0.00  0.00    +0.020 A 
ATOM     27  C   UNL     1      -6.316   4.642  25.677  0.00  0.00    +0.111 A 
ENDBRANCH  22  23
ENDBRANCH  12   7
BRANCH  10   1
ATOM      1  O   UNL     1      -3.688  -1.018  23.485  0.00  0.00    -0.387 OA
ATOM     31  H   UNL     1      -4.099  -1.742  22.983  0.00  0.00    +0.210 HD
ENDBRANCH  10   1
BRANCH  11   2
ATOM      2  O   UNL     1      -1.579  -3.321  25.392  0.00  0.00    -0.389 OA
ATOM     32  H   UNL     1      -2.308  -3.348  26.035  0.00  0.00    +0.210 HD
ENDBRANCH  11   2
TORSDOF 6
ENDMDL
MODEL 5
REMARK VINA RESULT:       1.9      2.521      4.996
REMARK  Name = 11866332
REMARK  6 active torsions:
REMARK  status: ('A' for Active; 'I' for Inactive)
REMARK    1  A    between atoms: O_1  and  C_10
REMARK    2  A    between atoms: O_2  and  C_11
REMARK    3  A    between atoms: N_6  and  C_16
REMARK    4  A    between atoms: N_7  and  C_12
REMARK    5  A    between atoms: C_14  and  C_19
REMARK    6  A    between atoms: C_22  and  C_23
REMARK                            x       y       z     vdW  Elec       q    Type
REMARK                         _______ _______ _______ _____ _____    ______ ____
ROOT
ATOM     10  C   UNL     1      -0.609   4.447  24.592  0.00  0.00    +0.167 C 
ATOM     11  C   UNL     1      -2.022   4.957  24.906  0.00  0.00    +0.149 C 
ATOM     12  C   UNL     1      -0.311   3.125  25.323  0.00  0.00    +0.128 C 
ATOM     13  C   UNL     1      -3.101   3.911  24.579  0.00  0.00    +0.074 C 
ATOM     14  C   UNL     1      -2.692   2.506  24.920  0.00  0.00    +0.015 C 
ATOM     15  C   UNL     1      -1.449   2.141  25.263  0.00  0.00    +0.006 C 
ENDROOT
BRANCH  14  19
ATOM      3  O   UNL     1      -4.913   1.748  25.020  0.00  0.00    -0.271 OA
ATOM      6  N   UNL     1      -3.202   0.192  24.730  0.00  0.00    -0.300 N 
ATOM     19  C   UNL     1      -3.722   1.464  24.897  0.00  0.00    +0.241 C 
ATOM     28  H   UNL     1      -2.202   0.049  24.648  0.00  0.00    +0.150 HD
BRANCH   6  16
ATOM      4  O   UNL     1      -2.955  -1.633  26.750  0.00  0.00    -0.274 OA
ATOM      8  N   UNL     1      -3.649  -3.328  25.384  0.00  0.00    -0.314 N 
ATOM     16  C   UNL     1      -4.019  -0.993  24.679  0.00  0.00    +0.159 C 
ATOM     17  C   UNL     1      -4.119  -1.522  23.255  0.00  0.00    +0.033 C 
ATOM     18  C   UNL     1      -4.836  -2.862  23.259  0.00  0.00    +0.021 C 
ATOM     20  C   UNL     1      -4.037  -3.850  24.087  0.00  0.00    +0.104 C 
ATOM     21  C   UNL     1      -3.457  -1.993  25.683  0.00  0.00    +0.233 C 
ATOM     30  H   UNL     1      -3.330  -4.002  26.072  0.00  0.00    +0.149 HD
ENDBRANCH   6  16
ENDBRANCH  14  19
BRANCH  12   7
ATOM      5  O   UNL     1      -0.192   0.964  23.437  0.00  0.00    -0.270 OA
ATOM      7  N   UNL     1       0.880   2.492  24.812  0.00  0.00    -0.302 N 
ATOM     22  C   UNL     1       0.837   1.449  23.899  0.00  0.00    +0.246 C 
ATOM     29  H   UNL     1       1.765   2.773  25.225  0.00  0.00    +0.150 HD
BRANCH  22  23
ATOM      9  N   UNL     1       3.539  -1.037  23.213  0.00  0.00    -0.263 NA
ATOM     23  C   UNL     1       2.150   0.887  23.491  0.00  0.00    +0.055 A 
ATOM     24  C   UNL     1       3.142   1.724  23.039  0.00  0.00    +0.016 A 
ATOM     25  C   UNL     1       2.369  -0.461  23.567  0.00  0.00    +0.123 A 
ATOM     26  C   UNL     1       4.361   1.169  22.665  0.00  0.00    +0.020 A 
ATOM     27  C   UNL     1       4.508  -0.205  22.769  0.00  0.00    +0.111 A 
ENDBRANCH  22  23
ENDBRANCH  12   7
BRANCH  10   1
ATOM      1  O   UNL     1      -0.496   4.251  23.180  0.00  0.00    -0.387 OA
ATOM     31  H   UNL     1       0.387   3.882  23.007  0.00  0.00    +0.210 HD
ENDBRANCH  10   1
BRANCH  11   2
ATOM      2  O   UNL     1      -2.111   5.341  26.277  0.00  0.00    -0.389 OA
ATOM     32  H   UNL     1      -3.007   5.121  26.586  0.00  0.00    +0.210 HD
ENDBRANCH  11   2
TORSDOF 6
ENDMDL
