MODEL 1
REMARK VINA RESULT:      -3.2      0.000      0.000
REMARK  Name = 40779319
REMARK  8 active torsions:
REMARK  status: ('A' for Active; 'I' for Inactive)
REMARK    1  A    between atoms: O_3  and  C_22
REMARK    2  A    between atoms: O_3  and  C_26
REMARK    3  A    between atoms: N_5  and  C_19
REMARK    4  A    between atoms: N_6  and  C_16
REMARK    5  A    between atoms: C_9  and  C_15
REMARK    6  A    between atoms: C_10  and  C_16
REMARK    7  A    between atoms: C_18  and  C_21
REMARK    8  A    between atoms: C_20  and  C_22
REMARK                            x       y       z     vdW  Elec       q    Type
REMARK                         _______ _______ _______ _____ _____    ______ ____
ROOT
ATOM      4  N   UNL     1      -5.007  -8.509  10.180  0.00  0.00    -0.297 NA
ATOM      8  C   UNL     1      -7.248  -9.834  10.149  0.00  0.00    +0.002 C 
ATOM      9  C   UNL     1      -7.186  -8.900  11.390  0.00  0.00    +0.055 C 
ATOM     10  C   UNL     1      -4.739  -9.958   9.977  0.00  0.00    +0.074 C 
ATOM     11  C   UNL     1      -6.031 -10.781  10.162  0.00  0.00    +0.024 C 
ATOM     12  C   UNL     1      -7.108  -8.931   8.905  0.00  0.00    +0.019 C 
ATOM     13  C   UNL     1      -5.751  -8.303  11.448  0.00  0.00    +0.094 C 
ATOM     14  C   UNL     1      -5.860  -8.043   9.061  0.00  0.00    +0.085 C 
ENDROOT
BRANCH   9  15
ATOM      5  N   UNL     1      -8.833 -10.080  12.917  0.00  0.00    -0.270 N 
ATOM      7  N   UNL     1      -9.040 -10.501  14.177  0.00  0.00    -0.168 NA
ATOM     15  C   UNL     1      -7.633  -9.459  12.733  0.00  0.00    +0.044 A 
ATOM     17  C   UNL     1      -7.012  -9.473  13.957  0.00  0.00    +0.056 A 
ATOM     18  C   UNL     1      -7.923 -10.128  14.808  0.00  0.00    +0.128 A 
ATOM     19  C   UNL     1      -9.852 -10.314  11.920  0.00  0.00    +0.172 C 
BRANCH  18  21
ATOM      1  O   UNL     1      -6.497 -10.540  16.826  0.00  0.00    -0.461 OA
ATOM     21  C   UNL     1      -7.716 -10.396  16.242  0.00  0.00    +0.155 A 
ATOM     23  C   UNL     1      -8.718 -10.536  17.173  0.00  0.00    +0.051 A 
ATOM     24  C   UNL     1      -8.074 -10.781  18.410  0.00  0.00    +0.042 A 
ATOM     25  C   UNL     1      -6.724 -10.774  18.145  0.00  0.00    +0.196 A 
ENDBRANCH  18  21
ENDBRANCH   9  15
BRANCH  10  16
ATOM     16  C   UNL     1      -3.604 -10.471  10.865  0.00  0.00    +0.123 C 
BRANCH  16   6
ATOM      2  O   UNL     1      -1.473 -10.187  12.801  0.00  0.00    -0.273 OA
ATOM      6  N   UNL     1      -2.457  -9.621  10.769  0.00  0.00    -0.312 N 
ATOM     20  C   UNL     1      -1.473  -9.546  11.754  0.00  0.00    +0.239 C 
ATOM     27  H   UNL     1      -2.382  -9.017   9.955  0.00  0.00    +0.149 HD
BRANCH  20  22
ATOM     22  C   UNL     1      -0.376  -8.568  11.391  0.00  0.00    +0.255 C 
BRANCH  22   3
ATOM      3  O   UNL     1       0.204  -8.016  12.555  0.00  0.00    -0.374 OA
ATOM     26  C   UNL     1       1.135  -6.984  12.245  0.00  0.00    +0.194 C 
ENDBRANCH  22   3
ENDBRANCH  20  22
ENDBRANCH  16   6
ENDBRANCH  10  16
TORSDOF 6
ENDMDL
MODEL 2
REMARK VINA RESULT:      -2.6     15.371     17.779
REMARK  Name = 40779319
REMARK  8 active torsions:
REMARK  status: ('A' for Active; 'I' for Inactive)
REMARK    1  A    between atoms: O_3  and  C_22
REMARK    2  A    between atoms: O_3  and  C_26
REMARK    3  A    between atoms: N_5  and  C_19
REMARK    4  A    between atoms: N_6  and  C_16
REMARK    5  A    between atoms: C_9  and  C_15
REMARK    6  A    between atoms: C_10  and  C_16
REMARK    7  A    between atoms: C_18  and  C_21
REMARK    8  A    between atoms: C_20  and  C_22
REMARK                            x       y       z     vdW  Elec       q    Type
REMARK                         _______ _______ _______ _____ _____    ______ ____
ROOT
ATOM      4  N   UNL     1      -4.758   2.669  26.095  0.00  0.00    -0.297 NA
ATOM      8  C   UNL     1      -4.497   1.695  23.694  0.00  0.00    +0.002 C 
ATOM      9  C   UNL     1      -3.729   0.819  24.723  0.00  0.00    +0.055 C 
ATOM     10  C   UNL     1      -4.341   3.741  25.153  0.00  0.00    +0.074 C 
ATOM     11  C   UNL     1      -3.982   3.147  23.775  0.00  0.00    +0.024 C 
ATOM     12  C   UNL     1      -5.975   1.712  24.140  0.00  0.00    +0.019 C 
ATOM     13  C   UNL     1      -3.762   1.569  26.085  0.00  0.00    +0.094 C 
ATOM     14  C   UNL     1      -6.053   2.126  25.620  0.00  0.00    +0.085 C 
ENDROOT
BRANCH   9  15
ATOM      5  N   UNL     1      -1.896  -0.931  24.581  0.00  0.00    -0.270 N 
ATOM      7  N   UNL     1      -0.628  -1.148  24.190  0.00  0.00    -0.168 NA
ATOM     15  C   UNL     1      -2.330   0.344  24.359  0.00  0.00    +0.044 A 
ATOM     17  C   UNL     1      -1.272   1.005  23.785  0.00  0.00    +0.056 A 
ATOM     18  C   UNL     1      -0.252   0.038  23.705  0.00  0.00    +0.128 A 
ATOM     19  C   UNL     1      -2.648  -2.014  25.169  0.00  0.00    +0.172 C 
BRANCH  18  21
ATOM      1  O   UNL     1       1.985   1.164  23.643  0.00  0.00    -0.461 OA
ATOM     21  C   UNL     1       1.097   0.258  23.154  0.00  0.00    +0.155 A 
ATOM     23  C   UNL     1       1.633  -0.416  22.083  0.00  0.00    +0.051 A 
ATOM     24  C   UNL     1       2.935   0.108  21.900  0.00  0.00    +0.042 A 
ATOM     25  C   UNL     1       3.101   1.066  22.873  0.00  0.00    +0.196 A 
ENDBRANCH  18  21
ENDBRANCH   9  15
BRANCH  10  16
ATOM     16  C   UNL     1      -3.208   4.603  25.715  0.00  0.00    +0.123 C 
BRANCH  16   6
ATOM      2  O   UNL     1      -0.597   5.055  24.556  0.00  0.00    -0.273 OA
ATOM      6  N   UNL     1      -2.026   3.823  25.918  0.00  0.00    -0.312 N 
ATOM     20  C   UNL     1      -0.803   4.113  25.317  0.00  0.00    +0.239 C 
ATOM     27  H   UNL     1      -2.100   2.995  26.503  0.00  0.00    +0.149 HD
BRANCH  20  22
ATOM     22  C   UNL     1       0.275   3.125  25.708  0.00  0.00    +0.255 C 
BRANCH  22   3
ATOM      3  O   UNL     1      -0.126   2.371  26.834  0.00  0.00    -0.374 OA
ATOM     26  C   UNL     1       0.822   2.452  27.892  0.00  0.00    +0.194 C 
ENDBRANCH  22   3
ENDBRANCH  20  22
ENDBRANCH  16   6
ENDBRANCH  10  16
TORSDOF 6
ENDMDL
MODEL 3
REMARK VINA RESULT:      -2.4     14.649     17.365
REMARK  Name = 40779319
REMARK  8 active torsions:
REMARK  status: ('A' for Active; 'I' for Inactive)
REMARK    1  A    between atoms: O_3  and  C_22
REMARK    2  A    between atoms: O_3  and  C_26
REMARK    3  A    between atoms: N_5  and  C_19
REMARK    4  A    between atoms: N_6  and  C_16
REMARK    5  A    between atoms: C_9  and  C_15
REMARK    6  A    between atoms: C_10  and  C_16
REMARK    7  A    between atoms: C_18  and  C_21
REMARK    8  A    between atoms: C_20  and  C_22
REMARK                            x       y       z     vdW  Elec       q    Type
REMARK                         _______ _______ _______ _____ _____    ______ ____
ROOT
ATOM      4  N   UNL     1      -5.328   1.765  23.995  0.00  0.00    -0.297 NA
ATOM      8  C   UNL     1      -3.719   2.434  25.930  0.00  0.00    +0.002 C 
ATOM      9  C   UNL     1      -3.159   2.922  24.565  0.00  0.00    +0.055 C 
ATOM     10  C   UNL     1      -5.045   0.584  24.852  0.00  0.00    +0.074 C 
ATOM     11  C   UNL     1      -3.937   0.908  25.877  0.00  0.00    +0.024 C 
ATOM     12  C   UNL     1      -5.109   3.086  26.099  0.00  0.00    +0.019 C 
ATOM     13  C   UNL     1      -4.060   2.314  23.452  0.00  0.00    +0.094 C 
ATOM     14  C   UNL     1      -5.956   2.805  24.845  0.00  0.00    +0.085 C 
ENDROOT
BRANCH   9  15
ATOM      5  N   UNL     1      -0.737   3.678  24.520  0.00  0.00    -0.270 N 
ATOM      7  N   UNL     1       0.514   3.302  24.202  0.00  0.00    -0.168 NA
ATOM     15  C   UNL     1      -1.677   2.718  24.283  0.00  0.00    +0.044 A 
ATOM     17  C   UNL     1      -0.994   1.641  23.774  0.00  0.00    +0.056 A 
ATOM     18  C   UNL     1       0.351   2.057  23.747  0.00  0.00    +0.128 A 
ATOM     19  C   UNL     1      -0.961   4.999  25.059  0.00  0.00    +0.172 C 
BRANCH  18  21
ATOM      1  O   UNL     1       2.785   1.652  23.318  0.00  0.00    -0.461 OA
ATOM     21  C   UNL     1       1.489   1.246  23.279  0.00  0.00    +0.155 A 
ATOM     23  C   UNL     1       1.394  -0.018  22.747  0.00  0.00    +0.051 A 
ATOM     24  C   UNL     1       2.716  -0.415  22.438  0.00  0.00    +0.042 A 
ATOM     25  C   UNL     1       3.526   0.635  22.803  0.00  0.00    +0.196 A 
ENDBRANCH  18  21
ENDBRANCH   9  15
BRANCH  10  16
ATOM     16  C   UNL     1      -4.716  -0.666  24.033  0.00  0.00    +0.123 C 
BRANCH  16   6
ATOM      2  O   UNL     1      -3.642  -3.260  24.728  0.00  0.00    -0.273 OA
ATOM      6  N   UNL     1      -3.338  -1.020  24.173  0.00  0.00    -0.312 N 
ATOM     20  C   UNL     1      -2.905  -2.301  24.513  0.00  0.00    +0.239 C 
ATOM     27  H   UNL     1      -2.645  -0.286  24.053  0.00  0.00    +0.149 HD
BRANCH  20  22
ATOM     22  C   UNL     1      -1.396  -2.393  24.590  0.00  0.00    +0.255 C 
BRANCH  22   3
ATOM      3  O   UNL     1      -0.843  -1.158  24.997  0.00  0.00    -0.374 OA
ATOM     26  C   UNL     1      -1.035  -0.923  26.388  0.00  0.00    +0.194 C 
ENDBRANCH  22   3
ENDBRANCH  20  22
ENDBRANCH  16   6
ENDBRANCH  10  16
TORSDOF 6
ENDMDL
MODEL 4
REMARK VINA RESULT:      -2.2     14.811     17.382
REMARK  Name = 40779319
REMARK  8 active torsions:
REMARK  status: ('A' for Active; 'I' for Inactive)
REMARK    1  A    between atoms: O_3  and  C_22
REMARK    2  A    between atoms: O_3  and  C_26
REMARK    3  A    between atoms: N_5  and  C_19
REMARK    4  A    between atoms: N_6  and  C_16
REMARK    5  A    between atoms: C_9  and  C_15
REMARK    6  A    between atoms: C_10  and  C_16
REMARK    7  A    between atoms: C_18  and  C_21
REMARK    8  A    between atoms: C_20  and  C_22
REMARK                            x       y       z     vdW  Elec       q    Type
REMARK                         _______ _______ _______ _____ _____    ______ ____
ROOT
ATOM      4  N   UNL     1      -3.916   3.121  24.081  0.00  0.00    -0.297 NA
ATOM      8  C   UNL     1      -1.804   3.076  25.604  0.00  0.00    +0.002 C 
ATOM      9  C   UNL     1      -1.397   2.978  24.108  0.00  0.00    +0.055 C 
ATOM     10  C   UNL     1      -4.089   2.114  25.161  0.00  0.00    +0.074 C 
ATOM     11  C   UNL     1      -2.774   1.925  25.946  0.00  0.00    +0.024 C 
ATOM     12  C   UNL     1      -2.590   4.395  25.766  0.00  0.00    +0.019 C 
ATOM     13  C   UNL     1      -2.705   2.807  23.283  0.00  0.00    +0.094 C 
ATOM     14  C   UNL     1      -3.718   4.445  24.721  0.00  0.00    +0.085 C 
ENDROOT
BRANCH   9  15
ATOM      5  N   UNL     1      -0.612   0.825  23.019  0.00  0.00    -0.270 N 
ATOM      7  N   UNL     1       0.466   0.059  22.776  0.00  0.00    -0.168 NA
ATOM     15  C   UNL     1      -0.333   1.963  23.718  0.00  0.00    +0.044 A 
ATOM     17  C   UNL     1       1.021   1.939  23.949  0.00  0.00    +0.056 A 
ATOM     18  C   UNL     1       1.461   0.745  23.346  0.00  0.00    +0.128 A 
ATOM     19  C   UNL     1      -1.905   0.395  22.539  0.00  0.00    +0.172 C 
BRANCH  18  21
ATOM      1  O   UNL     1       3.232  -0.999  23.659  0.00  0.00    -0.461 OA
ATOM     21  C   UNL     1       2.852   0.260  23.319  0.00  0.00    +0.155 A 
ATOM     23  C   UNL     1       3.943   1.011  22.947  0.00  0.00    +0.051 A 
ATOM     24  C   UNL     1       5.066   0.158  23.068  0.00  0.00    +0.042 A 
ATOM     25  C   UNL     1       4.581  -1.053  23.504  0.00  0.00    +0.196 A 
ENDBRANCH  18  21
ENDBRANCH   9  15
BRANCH  10  16
ATOM     16  C   UNL     1      -4.636   0.785  24.636  0.00  0.00    +0.123 C 
BRANCH  16   6
ATOM      2  O   UNL     1      -4.384  -1.865  23.504  0.00  0.00    -0.273 OA
ATOM      6  N   UNL     1      -3.899  -0.318  25.174  0.00  0.00    -0.312 N 
ATOM     20  C   UNL     1      -3.831  -1.567  24.559  0.00  0.00    +0.239 C 
ATOM     27  H   UNL     1      -3.434  -0.186  26.068  0.00  0.00    +0.149 HD
BRANCH  20  22
ATOM     22  C   UNL     1      -2.983  -2.544  25.345  0.00  0.00    +0.255 C 
BRANCH  22   3
ATOM      3  O   UNL     1      -1.690  -2.642  24.785  0.00  0.00    -0.374 OA
ATOM     26  C   UNL     1      -0.777  -1.737  25.397  0.00  0.00    +0.194 C 
ENDBRANCH  22   3
ENDBRANCH  20  22
ENDBRANCH  16   6
ENDBRANCH  10  16
TORSDOF 6
ENDMDL
MODEL 5
REMARK VINA RESULT:      -2.2      1.540      2.143
REMARK  Name = 40779319
REMARK  8 active torsions:
REMARK  status: ('A' for Active; 'I' for Inactive)
REMARK    1  A    between atoms: O_3  and  C_22
REMARK    2  A    between atoms: O_3  and  C_26
REMARK    3  A    between atoms: N_5  and  C_19
REMARK    4  A    between atoms: N_6  and  C_16
REMARK    5  A    between atoms: C_9  and  C_15
REMARK    6  A    between atoms: C_10  and  C_16
REMARK    7  A    between atoms: C_18  and  C_21
REMARK    8  A    between atoms: C_20  and  C_22
REMARK                            x       y       z     vdW  Elec       q    Type
REMARK                         _______ _______ _______ _____ _____    ______ ____
ROOT
ATOM      4  N   UNL     1      -3.626  -8.489  10.116  0.00  0.00    -0.297 NA
ATOM      8  C   UNL     1      -4.893 -10.722  10.553  0.00  0.00    +0.002 C 
ATOM      9  C   UNL     1      -5.638  -9.534  11.224  0.00  0.00    +0.055 C 
ATOM     10  C   UNL     1      -2.681  -9.520  10.622  0.00  0.00    +0.074 C 
ATOM     11  C   UNL     1      -3.445 -10.780  11.081  0.00  0.00    +0.024 C 
ATOM     12  C   UNL     1      -4.814 -10.403   9.045  0.00  0.00    +0.019 C 
ATOM     13  C   UNL     1      -4.724  -8.283  11.094  0.00  0.00    +0.094 C 
ATOM     14  C   UNL     1      -4.219  -8.996   8.855  0.00  0.00    +0.085 C 
ENDROOT
BRANCH   9  15
ATOM      5  N   UNL     1      -7.490  -9.743  12.946  0.00  0.00    -0.270 N 
ATOM      7  N   UNL     1      -7.744  -9.918  14.255  0.00  0.00    -0.168 NA
ATOM     15  C   UNL     1      -6.160  -9.722  12.641  0.00  0.00    +0.044 A 
ATOM     17  C   UNL     1      -5.499  -9.895  13.832  0.00  0.00    +0.056 A 
ATOM     18  C   UNL     1      -6.524 -10.011  14.791  0.00  0.00    +0.128 A 
ATOM     19  C   UNL     1      -8.595  -9.601  12.026  0.00  0.00    +0.172 C 
BRANCH  18  21
ATOM      1  O   UNL     1      -7.334 -10.325  17.140  0.00  0.00    -0.461 OA
ATOM     21  C   UNL     1      -6.325 -10.214  16.237  0.00  0.00    +0.155 A 
ATOM     23  C   UNL     1      -5.104 -10.317  16.860  0.00  0.00    +0.051 A 
ATOM     24  C   UNL     1      -5.380 -10.504  18.236  0.00  0.00    +0.042 A 
ATOM     25  C   UNL     1      -6.750 -10.502  18.355  0.00  0.00    +0.196 A 
ENDBRANCH  18  21
ENDBRANCH   9  15
BRANCH  10  16
ATOM     16  C   UNL     1      -1.762  -8.979  11.719  0.00  0.00    +0.123 C 
BRANCH  16   6
ATOM      2  O   UNL     1       0.329  -7.469  13.029  0.00  0.00    -0.273 OA
ATOM      6  N   UNL     1      -0.477  -8.643  11.188  0.00  0.00    -0.312 N 
ATOM     20  C   UNL     1       0.475  -7.907  11.891  0.00  0.00    +0.239 C 
ATOM     27  H   UNL     1      -0.269  -8.927  10.234  0.00  0.00    +0.149 HD
BRANCH  20  22
ATOM     22  C   UNL     1       1.743  -7.700  11.090  0.00  0.00    +0.255 C 
BRANCH  22   3
ATOM      3  O   UNL     1       2.873  -7.699  11.937  0.00  0.00    -0.374 OA
ATOM     26  C   UNL     1       3.441  -6.399  12.064  0.00  0.00    +0.194 C 
ENDBRANCH  22   3
ENDBRANCH  20  22
ENDBRANCH  16   6
ENDBRANCH  10  16
TORSDOF 6
ENDMDL
MODEL 6
REMARK VINA RESULT:      -1.6     14.698     16.892
REMARK  Name = 40779319
REMARK  8 active torsions:
REMARK  status: ('A' for Active; 'I' for Inactive)
REMARK    1  A    between atoms: O_3  and  C_22
REMARK    2  A    between atoms: O_3  and  C_26
REMARK    3  A    between atoms: N_5  and  C_19
REMARK    4  A    between atoms: N_6  and  C_16
REMARK    5  A    between atoms: C_9  and  C_15
REMARK    6  A    between atoms: C_10  and  C_16
REMARK    7  A    between atoms: C_18  and  C_21
REMARK    8  A    between atoms: C_20  and  C_22
REMARK                            x       y       z     vdW  Elec       q    Type
REMARK                         _______ _______ _______ _____ _____    ______ ____
ROOT
ATOM      4  N   UNL     1      -2.869  -2.413  23.832  0.00  0.00    -0.297 NA
ATOM      8  C   UNL     1      -2.731  -1.204  26.134  0.00  0.00    +0.002 C 
ATOM      9  C   UNL     1      -3.673  -0.431  25.169  0.00  0.00    +0.055 C 
ATOM     10  C   UNL     1      -1.447  -2.238  24.230  0.00  0.00    +0.074 C 
ATOM     11  C   UNL     1      -1.339  -1.345  25.484  0.00  0.00    +0.024 C 
ATOM     12  C   UNL     1      -3.311  -2.628  26.277  0.00  0.00    +0.019 C 
ATOM     13  C   UNL     1      -3.545  -1.093  23.768  0.00  0.00    +0.094 C 
ATOM     14  C   UNL     1      -3.537  -3.226  24.877  0.00  0.00    +0.085 C 
ENDROOT
BRANCH   9  15
ATOM      5  N   UNL     1      -4.627   1.919  25.096  0.00  0.00    -0.270 N 
ATOM      7  N   UNL     1      -4.304   3.223  25.033  0.00  0.00    -0.168 NA
ATOM     15  C   UNL     1      -3.548   1.084  25.105  0.00  0.00    +0.044 A 
ATOM     17  C   UNL     1      -2.444   1.898  25.043  0.00  0.00    +0.056 A 
ATOM     18  C   UNL     1      -2.969   3.204  25.002  0.00  0.00    +0.128 A 
ATOM     19  C   UNL     1      -6.020   1.539  25.147  0.00  0.00    +0.172 C 
BRANCH  18  21
ATOM      1  O   UNL     1      -2.696   5.693  25.068  0.00  0.00    -0.461 OA
ATOM     21  C   UNL     1      -2.177   4.444  24.932  0.00  0.00    +0.155 A 
ATOM     23  C   UNL     1      -0.819   4.504  24.723  0.00  0.00    +0.051 A 
ATOM     24  C   UNL     1      -0.481   5.879  24.731  0.00  0.00    +0.042 A 
ATOM     25  C   UNL     1      -1.656   6.560  24.944  0.00  0.00    +0.196 A 
ENDBRANCH  18  21
ENDBRANCH   9  15
BRANCH  10  16
ATOM     16  C   UNL     1      -0.580  -1.717  23.082  0.00  0.00    +0.123 C 
BRANCH  16   6
ATOM      2  O   UNL     1       1.486  -0.398  21.546  0.00  0.00    -0.273 OA
ATOM      6  N   UNL     1       0.357  -0.743  23.551  0.00  0.00    -0.312 N 
ATOM     20  C   UNL     1       1.324  -0.155  22.738  0.00  0.00    +0.239 C 
ATOM     27  H   UNL     1       0.332  -0.499  24.538  0.00  0.00    +0.149 HD
BRANCH  20  22
ATOM     22  C   UNL     1       2.177   0.841  23.495  0.00  0.00    +0.255 C 
BRANCH  22   3
ATOM      3  O   UNL     1       3.331   1.173  22.751  0.00  0.00    -0.374 OA
ATOM     26  C   UNL     1       4.476   0.452  23.197  0.00  0.00    +0.194 C 
ENDBRANCH  22   3
ENDBRANCH  20  22
ENDBRANCH  16   6
ENDBRANCH  10  16
TORSDOF 6
ENDMDL
MODEL 7
REMARK VINA RESULT:      -1.1     15.087     16.969
REMARK  Name = 40779319
REMARK  8 active torsions:
REMARK  status: ('A' for Active; 'I' for Inactive)
REMARK    1  A    between atoms: O_3  and  C_22
REMARK    2  A    between atoms: O_3  and  C_26
REMARK    3  A    between atoms: N_5  and  C_19
REMARK    4  A    between atoms: N_6  and  C_16
REMARK    5  A    between atoms: C_9  and  C_15
REMARK    6  A    between atoms: C_10  and  C_16
REMARK    7  A    between atoms: C_18  and  C_21
REMARK    8  A    between atoms: C_20  and  C_22
REMARK                            x       y       z     vdW  Elec       q    Type
REMARK                         _______ _______ _______ _____ _____    ______ ____
ROOT
ATOM      4  N   UNL     1      -1.486   4.725  25.859  0.00  0.00    -0.297 NA
ATOM      8  C   UNL     1      -2.731   4.044  23.676  0.00  0.00    +0.002 C 
ATOM      9  C   UNL     1      -3.472   3.483  24.921  0.00  0.00    +0.055 C 
ATOM     10  C   UNL     1      -0.526   4.135  24.889  0.00  0.00    +0.074 C 
ATOM     11  C   UNL     1      -1.273   3.538  23.678  0.00  0.00    +0.024 C 
ATOM     12  C   UNL     1      -2.679   5.578  23.842  0.00  0.00    +0.019 C 
ATOM     13  C   UNL     1      -2.568   3.754  26.158  0.00  0.00    +0.094 C 
ATOM     14  C   UNL     1      -2.097   5.919  25.226  0.00  0.00    +0.085 C 
ENDROOT
BRANCH   9  15
ATOM      5  N   UNL     1      -5.235   1.685  25.231  0.00  0.00    -0.270 N 
ATOM      7  N   UNL     1      -5.476   0.366  25.120  0.00  0.00    -0.168 NA
ATOM     15  C   UNL     1      -3.969   2.045  24.874  0.00  0.00    +0.044 A 
ATOM     17  C   UNL     1      -3.338   0.883  24.505  0.00  0.00    +0.056 A 
ATOM     18  C   UNL     1      -4.313  -0.118  24.676  0.00  0.00    +0.128 A 
ATOM     19  C   UNL     1      -6.289   2.557  25.694  0.00  0.00    +0.172 C 
BRANCH  18  21
ATOM      1  O   UNL     1      -4.788  -2.249  23.447  0.00  0.00    -0.461 OA
ATOM     21  C   UNL     1      -4.123  -1.555  24.407  0.00  0.00    +0.155 A 
ATOM     23  C   UNL     1      -3.255  -2.378  25.087  0.00  0.00    +0.051 A 
ATOM     24  C   UNL     1      -3.396  -3.661  24.506  0.00  0.00    +0.042 A 
ATOM     25  C   UNL     1      -4.339  -3.530  23.514  0.00  0.00    +0.196 A 
ENDBRANCH  18  21
ENDBRANCH   9  15
BRANCH  10  16
ATOM     16  C   UNL     1       0.408   3.114  25.542  0.00  0.00    +0.123 C 
BRANCH  16   6
ATOM      2  O   UNL     1      -0.839   0.536  25.949  0.00  0.00    -0.273 OA
ATOM      6  N   UNL     1       0.545   1.950  24.723  0.00  0.00    -0.312 N 
ATOM     20  C   UNL     1      -0.095   0.742  24.994  0.00  0.00    +0.239 C 
ATOM     27  H   UNL     1       1.171   2.004  23.924  0.00  0.00    +0.149 HD
BRANCH  20  22
ATOM     22  C   UNL     1       0.226  -0.319  23.962  0.00  0.00    +0.255 C 
BRANCH  22   3
ATOM      3  O   UNL     1       0.730   0.272  22.782  0.00  0.00    -0.374 OA
ATOM     26  C   UNL     1       2.030  -0.213  22.460  0.00  0.00    +0.194 C 
ENDBRANCH  22   3
ENDBRANCH  20  22
ENDBRANCH  16   6
ENDBRANCH  10  16
TORSDOF 6
ENDMDL
MODEL 8
REMARK VINA RESULT:       0.5     16.387     18.670
REMARK  Name = 40779319
REMARK  8 active torsions:
REMARK  status: ('A' for Active; 'I' for Inactive)
REMARK    1  A    between atoms: O_3  and  C_22
REMARK    2  A    between atoms: O_3  and  C_26
REMARK    3  A    between atoms: N_5  and  C_19
REMARK    4  A    between atoms: N_6  and  C_16
REMARK    5  A    between atoms: C_9  and  C_15
REMARK    6  A    between atoms: C_10  and  C_16
REMARK    7  A    between atoms: C_18  and  C_21
REMARK    8  A    between atoms: C_20  and  C_22
REMARK                            x       y       z     vdW  Elec       q    Type
REMARK                         _______ _______ _______ _____ _____    ______ ____
ROOT
ATOM      4  N   UNL     1      -4.544  -0.596  25.113  0.00  0.00    -0.297 NA
ATOM      8  C   UNL     1      -2.746   0.395  23.511  0.00  0.00    +0.002 C 
ATOM      9  C   UNL     1      -2.090  -0.080  24.837  0.00  0.00    +0.055 C 
ATOM     10  C   UNL     1      -4.987   0.731  24.610  0.00  0.00    +0.074 C 
ATOM     11  C   UNL     1      -3.851   1.424  23.828  0.00  0.00    +0.024 C 
ATOM     12  C   UNL     1      -3.438  -0.838  22.891  0.00  0.00    +0.019 C 
ATOM     13  C   UNL     1      -3.240  -0.466  25.810  0.00  0.00    +0.094 C 
ATOM     14  C   UNL     1      -4.356  -1.487  23.942  0.00  0.00    +0.085 C 
ENDROOT
BRANCH   9  15
ATOM      5  N   UNL     1      -0.374   1.789  24.810  0.00  0.00    -0.270 N 
ATOM      7  N   UNL     1       0.493   2.482  25.571  0.00  0.00    -0.168 NA
ATOM     15  C   UNL     1      -1.059   0.827  25.493  0.00  0.00    +0.044 A 
ATOM     17  C   UNL     1      -0.610   0.896  26.789  0.00  0.00    +0.056 A 
ATOM     18  C   UNL     1       0.343   1.932  26.779  0.00  0.00    +0.128 A 
ATOM     19  C   UNL     1      -0.494   2.111  23.407  0.00  0.00    +0.172 C 
BRANCH  18  21
ATOM      1  O   UNL     1       2.325   3.013  27.864  0.00  0.00    -0.461 OA
ATOM     21  C   UNL     1       1.116   2.397  27.944  0.00  0.00    +0.155 A 
ATOM     23  C   UNL     1       0.721   2.273  29.255  0.00  0.00    +0.051 A 
ATOM     24  C   UNL     1       1.755   2.849  30.032  0.00  0.00    +0.042 A 
ATOM     25  C   UNL     1       2.707   3.284  29.140  0.00  0.00    +0.196 A 
ENDBRANCH  18  21
ENDBRANCH   9  15
BRANCH  10  16
ATOM     16  C   UNL     1      -5.538   1.622  25.724  0.00  0.00    +0.123 C 
BRANCH  16   6
ATOM      2  O   UNL     1      -5.773   4.484  25.372  0.00  0.00    -0.273 OA
ATOM      6  N   UNL     1      -4.584   2.620  26.099  0.00  0.00    -0.312 N 
ATOM     20  C   UNL     1      -4.779   3.985  25.891  0.00  0.00    +0.239 C 
ATOM     27  H   UNL     1      -3.706   2.307  26.504  0.00  0.00    +0.149 HD
BRANCH  20  22
ATOM     22  C   UNL     1      -3.610   4.810  26.384  0.00  0.00    +0.255 C 
BRANCH  22   3
ATOM      3  O   UNL     1      -2.387   4.247  25.957  0.00  0.00    -0.374 OA
ATOM     26  C   UNL     1      -1.621   5.165  25.184  0.00  0.00    +0.194 C 
ENDBRANCH  22   3
ENDBRANCH  20  22
ENDBRANCH  16   6
ENDBRANCH  10  16
TORSDOF 6
ENDMDL
MODEL 9
REMARK VINA RESULT:       0.7     14.996     17.651
REMARK  Name = 40779319
REMARK  8 active torsions:
REMARK  status: ('A' for Active; 'I' for Inactive)
REMARK    1  A    between atoms: O_3  and  C_22
REMARK    2  A    between atoms: O_3  and  C_26
REMARK    3  A    between atoms: N_5  and  C_19
REMARK    4  A    between atoms: N_6  and  C_16
REMARK    5  A    between atoms: C_9  and  C_15
REMARK    6  A    between atoms: C_10  and  C_16
REMARK    7  A    between atoms: C_18  and  C_21
REMARK    8  A    between atoms: C_20  and  C_22
REMARK                            x       y       z     vdW  Elec       q    Type
REMARK                         _______ _______ _______ _____ _____    ______ ____
ROOT
ATOM      4  N   UNL     1      -3.673  -2.098  25.621  0.00  0.00    -0.297 NA
ATOM      8  C   UNL     1      -1.933  -1.764  23.712  0.00  0.00    +0.002 C 
ATOM      9  C   UNL     1      -1.534  -0.933  24.964  0.00  0.00    +0.055 C 
ATOM     10  C   UNL     1      -4.369  -1.762  24.351  0.00  0.00    +0.074 C 
ATOM     11  C   UNL     1      -3.353  -1.359  23.263  0.00  0.00    +0.024 C 
ATOM     12  C   UNL     1      -2.003  -3.239  24.161  0.00  0.00    +0.019 C 
ATOM     13  C   UNL     1      -2.713  -1.023  25.974  0.00  0.00    +0.094 C 
ATOM     14  C   UNL     1      -2.907  -3.349  25.402  0.00  0.00    +0.085 C 
ENDROOT
BRANCH   9  15
ATOM      5  N   UNL     1       0.120   0.809  24.148  0.00  0.00    -0.270 N 
ATOM      7  N   UNL     1       0.355   2.131  24.062  0.00  0.00    -0.168 NA
ATOM     15  C   UNL     1      -1.061   0.498  24.755  0.00  0.00    +0.044 A 
ATOM     17  C   UNL     1      -1.639   1.698  25.089  0.00  0.00    +0.056 A 
ATOM     18  C   UNL     1      -0.723   2.669  24.638  0.00  0.00    +0.128 A 
ATOM     19  C   UNL     1       1.093  -0.116  23.614  0.00  0.00    +0.172 C 
BRANCH  18  21
ATOM      1  O   UNL     1      -1.891   4.727  25.458  0.00  0.00    -0.461 OA
ATOM     21  C   UNL     1      -0.889   4.127  24.763  0.00  0.00    +0.155 A 
ATOM     23  C   UNL     1      -0.060   5.069  24.199  0.00  0.00    +0.051 A 
ATOM     24  C   UNL     1      -0.586   6.329  24.571  0.00  0.00    +0.042 A 
ATOM     25  C   UNL     1      -1.699   6.067  25.336  0.00  0.00    +0.196 A 
ENDBRANCH  18  21
ENDBRANCH   9  15
BRANCH  10  16
ATOM     16  C   UNL     1      -5.451  -0.698  24.544  0.00  0.00    +0.123 C 
BRANCH  16   6
ATOM      2  O   UNL     1      -6.790   1.850  24.834  0.00  0.00    -0.273 OA
ATOM      6  N   UNL     1      -4.883   0.528  25.014  0.00  0.00    -0.312 N 
ATOM     20  C   UNL     1      -5.605   1.716  25.123  0.00  0.00    +0.239 C 
ATOM     27  H   UNL     1      -3.893   0.533  25.244  0.00  0.00    +0.149 HD
BRANCH  20  22
ATOM     22  C   UNL     1      -4.755   2.853  25.649  0.00  0.00    +0.255 C 
BRANCH  22   3
ATOM      3  O   UNL     1      -4.791   3.952  24.763  0.00  0.00    -0.374 OA
ATOM     26  C   UNL     1      -4.204   3.637  23.504  0.00  0.00    +0.194 C 
ENDBRANCH  22   3
ENDBRANCH  20  22
ENDBRANCH  16   6
ENDBRANCH  10  16
TORSDOF 6
ENDMDL
