MODEL 1
REMARK VINA RESULT:      -2.7      0.000      0.000
REMARK  Name = 45783698
REMARK  7 active torsions:
REMARK  status: ('A' for Active; 'I' for Inactive)
REMARK    1  A    between atoms: O_4  and  C_27
REMARK    2  A    between atoms: O_4  and  C_28
REMARK    3  A    between atoms: N_5  and  C_14
REMARK    4  A    between atoms: N_8  and  C_22
REMARK    5  A    between atoms: C_10  and  C_15
REMARK    6  A    between atoms: C_14  and  C_16
REMARK    7  A    between atoms: C_19  and  C_23
REMARK                            x       y       z     vdW  Elec       q    Type
REMARK                         _______ _______ _______ _____ _____    ______ ____
ROOT
ATOM      5  N   UNL     1      -5.230   2.342  25.455  0.00  0.00    -0.287 NA
ATOM     10  C   UNL     1      -4.370   2.935  24.410  0.00  0.00    +0.146 C 
ATOM     11  C   UNL     1      -4.590   4.453  24.539  0.00  0.00    +0.030 C 
ATOM     12  C   UNL     1      -5.632   4.613  25.637  0.00  0.00    +0.017 C 
ATOM     13  C   UNL     1      -6.340   3.274  25.654  0.00  0.00    +0.085 C 
ENDROOT
BRANCH  10  15
ATOM      1  O   UNL     1      -2.346   2.781  25.770  0.00  0.00    -0.336 OA
ATOM      6  N   UNL     1      -2.110   1.993  23.686  0.00  0.00    -0.190 NA
ATOM      7  N   UNL     1      -1.020   2.339  25.667  0.00  0.00    -0.056 NA
ATOM     15  C   UNL     1      -2.916   2.540  24.560  0.00  0.00    +0.245 A 
ATOM     19  C   UNL     1      -0.958   1.889  24.411  0.00  0.00    +0.204 A 
BRANCH  19  23
ATOM      9  N   UNL     1       2.611   1.520  23.434  0.00  0.00    -0.221 NA
ATOM     23  C   UNL     1       0.236   1.328  23.849  0.00  0.00    +0.041 A 
ATOM     24  C   UNL     1       0.213   0.102  23.194  0.00  0.00    +0.018 A 
ATOM     25  C   UNL     1       1.450   1.992  23.941  0.00  0.00    +0.126 A 
ATOM     26  C   UNL     1       1.388  -0.416  22.658  0.00  0.00    +0.068 A 
ATOM     27  C   UNL     1       2.549   0.326  22.804  0.00  0.00    +0.214 A 
BRANCH  27   4
ATOM      4  O   UNL     1       3.719  -0.163  22.284  0.00  0.00    -0.480 OA
ATOM     28  C   UNL     1       4.912   0.138  22.999  0.00  0.00    +0.279 C 
ENDBRANCH  27   4
ENDBRANCH  19  23
ENDBRANCH  10  15
BRANCH   5  14
ATOM     14  C   UNL     1      -5.692   1.000  25.125  0.00  0.00    +0.120 C 
BRANCH  14  16
ATOM     16  C   UNL     1      -4.549   0.032  24.980  0.00  0.00    -0.033 A 
ATOM     17  C   UNL     1      -3.702  -0.215  26.060  0.00  0.00    +0.007 A 
ATOM     18  C   UNL     1      -4.336  -0.618  23.763  0.00  0.00    +0.007 A 
ATOM     20  C   UNL     1      -2.642  -1.112  25.924  0.00  0.00    +0.033 A 
ATOM     21  C   UNL     1      -3.276  -1.515  23.628  0.00  0.00    +0.033 A 
ATOM     22  C   UNL     1      -2.428  -1.761  24.708  0.00  0.00    +0.126 A 
BRANCH  22   8
ATOM      2  O   UNL     1      -0.408  -2.631  25.399  0.00  0.00    -0.126 OA
ATOM      3  O   UNL     1      -1.366  -3.497  23.624  0.00  0.00    -0.126 OA
ATOM      8  N   UNL     1      -1.349  -2.673  24.570  0.00  0.00    +0.056 N 
ENDBRANCH  22   8
ENDBRANCH  14  16
ENDBRANCH   5  14
TORSDOF 6
ENDMDL
MODEL 2
REMARK VINA RESULT:      -0.4      2.034      4.480
REMARK  Name = 45783698
REMARK  7 active torsions:
REMARK  status: ('A' for Active; 'I' for Inactive)
REMARK    1  A    between atoms: O_4  and  C_27
REMARK    2  A    between atoms: O_4  and  C_28
REMARK    3  A    between atoms: N_5  and  C_14
REMARK    4  A    between atoms: N_8  and  C_22
REMARK    5  A    between atoms: C_10  and  C_15
REMARK    6  A    between atoms: C_14  and  C_16
REMARK    7  A    between atoms: C_19  and  C_23
REMARK                            x       y       z     vdW  Elec       q    Type
REMARK                         _______ _______ _______ _____ _____    ______ ____
ROOT
ATOM      5  N   UNL     1      -4.262  -0.917  23.952  0.00  0.00    -0.287 NA
ATOM     10  C   UNL     1      -3.367  -1.342  25.048  0.00  0.00    +0.146 C 
ATOM     11  C   UNL     1      -3.282  -2.873  24.912  0.00  0.00    +0.030 C 
ATOM     12  C   UNL     1      -4.207  -3.222  23.755  0.00  0.00    +0.017 C 
ATOM     13  C   UNL     1      -5.158  -2.044  23.690  0.00  0.00    +0.085 C 
ENDROOT
BRANCH  10  15
ATOM      1  O   UNL     1      -1.763   0.283  25.919  0.00  0.00    -0.336 OA
ATOM      6  N   UNL     1      -1.023  -0.877  24.151  0.00  0.00    -0.190 NA
ATOM      7  N   UNL     1      -0.467   0.749  25.661  0.00  0.00    -0.056 NA
ATOM     15  C   UNL     1      -2.011  -0.673  24.984  0.00  0.00    +0.245 A 
ATOM     19  C   UNL     1      -0.098   0.018  24.606  0.00  0.00    +0.204 A 
BRANCH  19  23
ATOM      9  N   UNL     1       3.203  -0.892  23.154  0.00  0.00    -0.221 NA
ATOM     23  C   UNL     1       1.187   0.155  23.982  0.00  0.00    +0.041 A 
ATOM     24  C   UNL     1       1.672   1.403  23.606  0.00  0.00    +0.018 A 
ATOM     25  C   UNL     1       1.984  -0.952  23.737  0.00  0.00    +0.126 A 
ATOM     26  C   UNL     1       2.921   1.504  23.004  0.00  0.00    +0.068 A 
ATOM     27  C   UNL     1       3.640   0.337  22.803  0.00  0.00    +0.214 A 
BRANCH  27   4
ATOM      4  O   UNL     1       4.875   0.411  22.212  0.00  0.00    -0.480 OA
ATOM     28  C   UNL     1       5.990   0.032  23.010  0.00  0.00    +0.279 C 
ENDBRANCH  27   4
ENDBRANCH  19  23
ENDBRANCH  10  15
BRANCH   5  14
ATOM     14  C   UNL     1      -4.993   0.308  24.248  0.00  0.00    +0.120 C 
BRANCH  14  16
ATOM     16  C   UNL     1      -4.072   1.490  24.394  0.00  0.00    -0.033 A 
ATOM     17  C   UNL     1      -3.134   1.770  23.402  0.00  0.00    +0.007 A 
ATOM     18  C   UNL     1      -4.158   2.305  25.523  0.00  0.00    +0.007 A 
ATOM     20  C   UNL     1      -2.280   2.865  23.537  0.00  0.00    +0.033 A 
ATOM     21  C   UNL     1      -3.305   3.400  25.659  0.00  0.00    +0.033 A 
ATOM     22  C   UNL     1      -2.365   3.680  24.667  0.00  0.00    +0.126 A 
BRANCH  22   8
ATOM      2  O   UNL     1      -1.959   5.875  25.242  0.00  0.00    -0.126 OA
ATOM      3  O   UNL     1      -0.290   4.667  24.486  0.00  0.00    -0.126 OA
ATOM      8  N   UNL     1      -1.496   4.794  24.805  0.00  0.00    +0.056 N 
ENDBRANCH  22   8
ENDBRANCH  14  16
ENDBRANCH   5  14
TORSDOF 6
ENDMDL
MODEL 3
REMARK VINA RESULT:      -0.2      1.364      1.621
REMARK  Name = 45783698
REMARK  7 active torsions:
REMARK  status: ('A' for Active; 'I' for Inactive)
REMARK    1  A    between atoms: O_4  and  C_27
REMARK    2  A    between atoms: O_4  and  C_28
REMARK    3  A    between atoms: N_5  and  C_14
REMARK    4  A    between atoms: N_8  and  C_22
REMARK    5  A    between atoms: C_10  and  C_15
REMARK    6  A    between atoms: C_14  and  C_16
REMARK    7  A    between atoms: C_19  and  C_23
REMARK                            x       y       z     vdW  Elec       q    Type
REMARK                         _______ _______ _______ _____ _____    ______ ____
ROOT
ATOM      5  N   UNL     1      -3.853   2.960  25.758  0.00  0.00    -0.287 NA
ATOM     10  C   UNL     1      -3.405   3.470  24.446  0.00  0.00    +0.146 C 
ATOM     11  C   UNL     1      -2.878   4.887  24.737  0.00  0.00    +0.030 C 
ATOM     12  C   UNL     1      -3.128   5.108  26.222  0.00  0.00    +0.017 C 
ATOM     13  C   UNL     1      -4.239   4.131  26.546  0.00  0.00    +0.085 C 
ENDROOT
BRANCH  10  15
ATOM      1  O   UNL     1      -2.767   1.863  22.720  0.00  0.00    -0.336 OA
ATOM      6  N   UNL     1      -1.111   2.393  24.132  0.00  0.00    -0.190 NA
ATOM      7  N   UNL     1      -1.649   1.128  22.303  0.00  0.00    -0.056 NA
ATOM     15  C   UNL     1      -2.363   2.581  23.801  0.00  0.00    +0.245 A 
ATOM     19  C   UNL     1      -0.714   1.494  23.184  0.00  0.00    +0.204 A 
BRANCH  19  23
ATOM      9  N   UNL     1       2.996   1.381  23.406  0.00  0.00    -0.221 NA
ATOM     23  C   UNL     1       0.625   0.982  23.147  0.00  0.00    +0.041 A 
ATOM     24  C   UNL     1       0.876  -0.348  22.829  0.00  0.00    +0.018 A 
ATOM     25  C   UNL     1       1.710   1.799  23.425  0.00  0.00    +0.126 A 
ATOM     26  C   UNL     1       2.186  -0.815  22.800  0.00  0.00    +0.068 A 
ATOM     27  C   UNL     1       3.200   0.082  23.094  0.00  0.00    +0.214 A 
BRANCH  27   4
ATOM      4  O   UNL     1       4.499  -0.354  23.071  0.00  0.00    -0.480 OA
ATOM     28  C   UNL     1       5.453   0.438  23.770  0.00  0.00    +0.279 C 
ENDBRANCH  27   4
ENDBRANCH  19  23
ENDBRANCH  10  15
BRANCH   5  14
ATOM     14  C   UNL     1      -4.932   1.985  25.658  0.00  0.00    +0.120 C 
BRANCH  14  16
ATOM     16  C   UNL     1      -4.424   0.626  25.259  0.00  0.00    -0.033 A 
ATOM     17  C   UNL     1      -3.387   0.030  25.976  0.00  0.00    +0.007 A 
ATOM     18  C   UNL     1      -4.992  -0.039  24.172  0.00  0.00    +0.007 A 
ATOM     20  C   UNL     1      -2.916  -1.230  25.607  0.00  0.00    +0.033 A 
ATOM     21  C   UNL     1      -4.521  -1.299  23.802  0.00  0.00    +0.033 A 
ATOM     22  C   UNL     1      -3.483  -1.895  24.519  0.00  0.00    +0.126 A 
BRANCH  22   8
ATOM      2  O   UNL     1      -1.789  -3.312  23.857  0.00  0.00    -0.126 OA
ATOM      3  O   UNL     1      -3.808  -4.139  24.103  0.00  0.00    -0.126 OA
ATOM      8  N   UNL     1      -3.004  -3.177  24.142  0.00  0.00    +0.056 N 
ENDBRANCH  22   8
ENDBRANCH  14  16
ENDBRANCH   5  14
TORSDOF 6
ENDMDL
MODEL 4
REMARK VINA RESULT:       1.3      2.097      4.964
REMARK  Name = 45783698
REMARK  7 active torsions:
REMARK  status: ('A' for Active; 'I' for Inactive)
REMARK    1  A    between atoms: O_4  and  C_27
REMARK    2  A    between atoms: O_4  and  C_28
REMARK    3  A    between atoms: N_5  and  C_14
REMARK    4  A    between atoms: N_8  and  C_22
REMARK    5  A    between atoms: C_10  and  C_15
REMARK    6  A    between atoms: C_14  and  C_16
REMARK    7  A    between atoms: C_19  and  C_23
REMARK                            x       y       z     vdW  Elec       q    Type
REMARK                         _______ _______ _______ _____ _____    ______ ____
ROOT
ATOM      5  N   UNL     1      -2.979  -1.544  23.930  0.00  0.00    -0.287 NA
ATOM     10  C   UNL     1      -1.968  -0.841  24.746  0.00  0.00    +0.146 C 
ATOM     11  C   UNL     1      -1.771  -1.737  25.982  0.00  0.00    +0.030 C 
ATOM     12  C   UNL     1      -2.756  -2.884  25.803  0.00  0.00    +0.017 C 
ATOM     13  C   UNL     1      -3.800  -2.315  24.864  0.00  0.00    +0.085 C 
ENDROOT
BRANCH  10  15
ATOM      1  O   UNL     1      -0.794  -0.377  22.654  0.00  0.00    -0.336 OA
ATOM      6  N   UNL     1       0.551  -0.564  24.435  0.00  0.00    -0.190 NA
ATOM      7  N   UNL     1       0.510  -0.180  22.180  0.00  0.00    -0.056 NA
ATOM     15  C   UNL     1      -0.679  -0.596  23.990  0.00  0.00    +0.245 A 
ATOM     19  C   UNL     1       1.245  -0.305  23.288  0.00  0.00    +0.204 A 
BRANCH  19  23
ATOM      9  N   UNL     1       4.836  -1.162  23.734  0.00  0.00    -0.221 NA
ATOM     23  C   UNL     1       2.674  -0.177  23.286  0.00  0.00    +0.041 A 
ATOM     24  C   UNL     1       3.287   0.995  22.860  0.00  0.00    +0.018 A 
ATOM     25  C   UNL     1       3.486  -1.218  23.710  0.00  0.00    +0.126 A 
ATOM     26  C   UNL     1       4.675   1.091  22.870  0.00  0.00    +0.068 A 
ATOM     27  C   UNL     1       5.397  -0.007  23.313  0.00  0.00    +0.214 A 
BRANCH  27   4
ATOM      4  O   UNL     1       6.765   0.063  23.333  0.00  0.00    -0.480 OA
ATOM     28  C   UNL     1       7.469  -0.983  22.673  0.00  0.00    +0.279 C 
ENDBRANCH  27   4
ENDBRANCH  19  23
ENDBRANCH  10  15
BRANCH   5  14
ATOM     14  C   UNL     1      -3.781  -0.645  23.108  0.00  0.00    +0.120 C 
BRANCH  14  16
ATOM     16  C   UNL     1      -4.058   0.658  23.809  0.00  0.00    -0.033 A 
ATOM     17  C   UNL     1      -3.320   1.796  23.484  0.00  0.00    +0.007 A 
ATOM     18  C   UNL     1      -5.054   0.727  24.783  0.00  0.00    +0.007 A 
ATOM     20  C   UNL     1      -3.577   3.003  24.134  0.00  0.00    +0.033 A 
ATOM     21  C   UNL     1      -5.312   1.934  25.432  0.00  0.00    +0.033 A 
ATOM     22  C   UNL     1      -4.573   3.072  25.108  0.00  0.00    +0.126 A 
BRANCH  22   8
ATOM      2  O   UNL     1      -6.005   4.752  25.774  0.00  0.00    -0.126 OA
ATOM      3  O   UNL     1      -3.888   4.902  26.332  0.00  0.00    -0.126 OA
ATOM      8  N   UNL     1      -4.835   4.301  25.770  0.00  0.00    +0.056 N 
ENDBRANCH  22   8
ENDBRANCH  14  16
ENDBRANCH   5  14
TORSDOF 6
ENDMDL
