MODEL 1
REMARK VINA RESULT:      -4.6      0.000      0.000
REMARK  Name = 40781655
REMARK  12 active torsions:
REMARK  status: ('A' for Active; 'I' for Inactive)
REMARK    1  A    between atoms: O_2  and  C_11
REMARK    2  A    between atoms: O_3  and  C_12
REMARK    3  A    between atoms: N_6  and  C_14
REMARK    4  A    between atoms: N_7  and  C_15
REMARK    5  A    between atoms: N_8  and  C_24
REMARK    6  A    between atoms: N_9  and  C_25
REMARK    7  A    between atoms: N_9  and  C_26
REMARK    8  A    between atoms: N_9  and  C_27
REMARK    9  A    between atoms: C_10  and  C_15
REMARK   10  A    between atoms: C_13  and  C_18
REMARK   11  A    between atoms: C_18  and  C_23
REMARK   12  A    between atoms: C_24  and  C_25
REMARK                            x       y       z     vdW  Elec       q    Type
REMARK                         _______ _______ _______ _____ _____    ______ ____
ROOT
ATOM      1  O   UNL     1      -2.353   2.979  23.801  0.00  0.00    -0.366 OA
ATOM     10  C   UNL     1      -1.358   3.307  24.798  0.00  0.00    +0.167 C 
ATOM     11  C   UNL     1      -2.044   4.224  25.804  0.00  0.00    +0.176 C 
ATOM     12  C   UNL     1      -3.486   3.772  25.711  0.00  0.00    +0.175 C 
ATOM     13  C   UNL     1      -3.625   3.503  24.223  0.00  0.00    +0.158 C 
ENDROOT
BRANCH  11   2
ATOM      2  O   UNL     1      -1.914   5.568  25.340  0.00  0.00    -0.387 OA
ATOM     30  H   UNL     1      -1.645   6.112  26.099  0.00  0.00    +0.210 HD
ENDBRANCH  11   2
BRANCH  12   3
ATOM      3  O   UNL     1      -4.407   4.743  26.163  0.00  0.00    -0.387 OA
ATOM     31  H   UNL     1      -5.291   4.339  26.137  0.00  0.00    +0.210 HD
ENDBRANCH  12   3
BRANCH  10  15
ATOM     15  C   UNL     1      -0.869   2.003  25.416  0.00  0.00    +0.140 C 
BRANCH  15   7
ATOM      4  O   UNL     1       0.144   0.786  23.017  0.00  0.00    -0.253 OA
ATOM      6  N   UNL     1       2.303   1.041  23.834  0.00  0.00    -0.297 N 
ATOM      7  N   UNL     1       0.505   1.761  25.092  0.00  0.00    -0.297 N 
ATOM     22  C   UNL     1       0.917   1.160  23.898  0.00  0.00    +0.300 C 
ATOM     28  H   UNL     1       2.849   1.452  24.584  0.00  0.00    +0.151 HD
ATOM     29  H   UNL     1       1.215   2.048  25.759  0.00  0.00    +0.150 HD
BRANCH   6  14
ATOM     14  C   UNL     1       2.995   0.456  22.708  0.00  0.00    +0.074 C 
ATOM     16  C   UNL     1       4.370   1.104  22.509  0.00  0.00    +0.022 C 
ATOM     17  C   UNL     1       3.114  -1.064  22.864  0.00  0.00    +0.022 C 
ATOM     19  C   UNL     1       5.369   0.700  23.594  0.00  0.00    +0.002 C 
ATOM     20  C   UNL     1       4.116  -1.463  23.948  0.00  0.00    +0.002 C 
ATOM     21  C   UNL     1       5.478  -0.816  23.722  0.00  0.00    +0.000 C 
ENDBRANCH   6  14
ENDBRANCH  15   7
ENDBRANCH  10  15
BRANCH  13  18
ATOM     18  C   UNL     1      -4.723   2.509  23.890  0.00  0.00    +0.130 C 
BRANCH  18  23
ATOM      5  O   UNL     1      -5.584   1.438  25.881  0.00  0.00    -0.276 OA
ATOM      8  N   UNL     1      -3.976   0.343  24.610  0.00  0.00    -0.314 N 
ATOM     23  C   UNL     1      -4.830   1.393  24.913  0.00  0.00    +0.216 C 
ATOM     32  H   UNL     1      -3.396   0.399  23.778  0.00  0.00    +0.149 HD
BRANCH   8  24
ATOM     24  C   UNL     1      -3.874  -0.850  25.421  0.00  0.00    +0.119 C 
BRANCH  24  25
ATOM     25  C   UNL     1      -2.452  -1.054  25.921  0.00  0.00    +0.102 C 
BRANCH  25   9
ATOM      9  N   UNL     1      -1.607  -1.566  24.849  0.00  0.00    -0.307 NA
ATOM     26  C   UNL     1      -2.188  -2.779  24.269  0.00  0.00    +0.104 C 
ATOM     27  C   UNL     1      -0.255  -1.837  25.340  0.00  0.00    +0.104 C 
ENDBRANCH  25   9
ENDBRANCH  24  25
ENDBRANCH   8  24
ENDBRANCH  18  23
ENDBRANCH  13  18
TORSDOF 10
ENDMDL
MODEL 2
REMARK VINA RESULT:      -4.0      1.846      3.950
REMARK  Name = 40781655
REMARK  12 active torsions:
REMARK  status: ('A' for Active; 'I' for Inactive)
REMARK    1  A    between atoms: O_2  and  C_11
REMARK    2  A    between atoms: O_3  and  C_12
REMARK    3  A    between atoms: N_6  and  C_14
REMARK    4  A    between atoms: N_7  and  C_15
REMARK    5  A    between atoms: N_8  and  C_24
REMARK    6  A    between atoms: N_9  and  C_25
REMARK    7  A    between atoms: N_9  and  C_26
REMARK    8  A    between atoms: N_9  and  C_27
REMARK    9  A    between atoms: C_10  and  C_15
REMARK   10  A    between atoms: C_13  and  C_18
REMARK   11  A    between atoms: C_18  and  C_23
REMARK   12  A    between atoms: C_24  and  C_25
REMARK                            x       y       z     vdW  Elec       q    Type
REMARK                         _______ _______ _______ _____ _____    ______ ____
ROOT
ATOM      1  O   UNL     1      -3.026   0.387  25.416  0.00  0.00    -0.366 OA
ATOM     10  C   UNL     1      -1.831  -0.193  24.842  0.00  0.00    +0.167 C 
ATOM     11  C   UNL     1      -2.245  -1.541  24.262  0.00  0.00    +0.176 C 
ATOM     12  C   UNL     1      -3.700  -1.302  23.914  0.00  0.00    +0.175 C 
ATOM     13  C   UNL     1      -4.154  -0.442  25.081  0.00  0.00    +0.158 C 
ENDROOT
BRANCH  11   2
ATOM      2  O   UNL     1      -2.137  -2.521  25.294  0.00  0.00    -0.387 OA
ATOM     30  H   UNL     1      -1.336  -2.316  25.805  0.00  0.00    +0.210 HD
ENDBRANCH  11   2
BRANCH  12   3
ATOM      3  O   UNL     1      -4.453  -2.492  23.808  0.00  0.00    -0.387 OA
ATOM     31  H   UNL     1      -3.962  -3.189  24.275  0.00  0.00    +0.210 HD
ENDBRANCH  12   3
BRANCH  10  15
ATOM     15  C   UNL     1      -1.303   0.773  23.791  0.00  0.00    +0.140 C 
BRANCH  15   7
ATOM      4  O   UNL     1       0.625  -0.270  21.930  0.00  0.00    -0.253 OA
ATOM      6  N   UNL     1       2.325   0.620  23.237  0.00  0.00    -0.297 N 
ATOM      7  N   UNL     1       0.122   0.897  23.873  0.00  0.00    -0.297 N 
ATOM     22  C   UNL     1       0.994   0.358  22.921  0.00  0.00    +0.300 C 
ATOM     28  H   UNL     1       2.514   1.211  24.040  0.00  0.00    +0.151 HD
ATOM     29  H   UNL     1       0.517   1.410  24.655  0.00  0.00    +0.150 HD
BRANCH   6  14
ATOM     14  C   UNL     1       3.434   0.177  22.422  0.00  0.00    +0.074 C 
ATOM     16  C   UNL     1       4.679   1.034  22.673  0.00  0.00    +0.022 C 
ATOM     17  C   UNL     1       3.727  -1.310  22.652  0.00  0.00    +0.022 C 
ATOM     19  C   UNL     1       5.310   0.764  24.039  0.00  0.00    +0.002 C 
ATOM     20  C   UNL     1       4.360  -1.576  24.019  0.00  0.00    +0.002 C 
ATOM     21  C   UNL     1       5.603  -0.720  24.239  0.00  0.00    +0.000 C 
ENDBRANCH   6  14
ENDBRANCH  15   7
ENDBRANCH  10  15
BRANCH  13  18
ATOM     18  C   UNL     1      -5.351   0.432  24.755  0.00  0.00    +0.130 C 
BRANCH  18  23
ATOM      5  O   UNL     1      -5.733   2.309  26.232  0.00  0.00    -0.276 OA
ATOM      8  N   UNL     1      -4.324   2.575  24.403  0.00  0.00    -0.314 N 
ATOM     23  C   UNL     1      -5.177   1.862  25.233  0.00  0.00    +0.216 C 
ATOM     32  H   UNL     1      -3.906   2.109  23.603  0.00  0.00    +0.149 HD
BRANCH   8  24
ATOM     24  C   UNL     1      -3.984   3.963  24.625  0.00  0.00    +0.119 C 
BRANCH  24  25
ATOM     25  C   UNL     1      -2.980   4.108  25.759  0.00  0.00    +0.102 C 
BRANCH  25   9
ATOM      9  N   UNL     1      -1.631   3.841  25.277  0.00  0.00    -0.307 NA
ATOM     26  C   UNL     1      -0.855   3.119  26.287  0.00  0.00    +0.104 C 
ATOM     27  C   UNL     1      -0.955   5.088  24.916  0.00  0.00    +0.104 C 
ENDBRANCH  25   9
ENDBRANCH  24  25
ENDBRANCH   8  24
ENDBRANCH  18  23
ENDBRANCH  13  18
TORSDOF 10
ENDMDL
MODEL 3
REMARK VINA RESULT:      -3.7      1.280      5.624
REMARK  Name = 40781655
REMARK  12 active torsions:
REMARK  status: ('A' for Active; 'I' for Inactive)
REMARK    1  A    between atoms: O_2  and  C_11
REMARK    2  A    between atoms: O_3  and  C_12
REMARK    3  A    between atoms: N_6  and  C_14
REMARK    4  A    between atoms: N_7  and  C_15
REMARK    5  A    between atoms: N_8  and  C_24
REMARK    6  A    between atoms: N_9  and  C_25
REMARK    7  A    between atoms: N_9  and  C_26
REMARK    8  A    between atoms: N_9  and  C_27
REMARK    9  A    between atoms: C_10  and  C_15
REMARK   10  A    between atoms: C_13  and  C_18
REMARK   11  A    between atoms: C_18  and  C_23
REMARK   12  A    between atoms: C_24  and  C_25
REMARK                            x       y       z     vdW  Elec       q    Type
REMARK                         _______ _______ _______ _____ _____    ______ ____
ROOT
ATOM      1  O   UNL     1      -2.367   3.218  25.908  0.00  0.00    -0.366 OA
ATOM     10  C   UNL     1      -2.920   4.282  25.098  0.00  0.00    +0.167 C 
ATOM     11  C   UNL     1      -1.771   4.815  24.249  0.00  0.00    +0.176 C 
ATOM     12  C   UNL     1      -0.886   3.594  24.113  0.00  0.00    +0.175 C 
ATOM     13  C   UNL     1      -1.013   2.971  25.492  0.00  0.00    +0.158 C 
ENDROOT
BRANCH  11   2
ATOM      2  O   UNL     1      -1.102   5.831  24.995  0.00  0.00    -0.387 OA
ATOM     30  H   UNL     1      -1.463   5.813  25.898  0.00  0.00    +0.210 HD
ENDBRANCH  11   2
BRANCH  12   3
ATOM      3  O   UNL     1       0.454   3.906  23.793  0.00  0.00    -0.387 OA
ATOM     31  H   UNL     1       1.019   3.246  24.230  0.00  0.00    +0.210 HD
ENDBRANCH  12   3
BRANCH  10  15
ATOM     15  C   UNL     1      -4.053   3.694  24.267  0.00  0.00    +0.140 C 
BRANCH  15   7
ATOM      4  O   UNL     1      -4.938   1.343  25.665  0.00  0.00    -0.253 OA
ATOM      6  N   UNL     1      -3.846   0.032  24.090  0.00  0.00    -0.297 N 
ATOM      7  N   UNL     1      -3.782   2.333  23.913  0.00  0.00    -0.297 N 
ATOM     22  C   UNL     1      -4.252   1.241  24.649  0.00  0.00    +0.300 C 
ATOM     28  H   UNL     1      -3.344   0.061  23.209  0.00  0.00    +0.151 HD
ATOM     29  H   UNL     1      -3.229   2.153  23.080  0.00  0.00    +0.150 HD
BRANCH   6  14
ATOM     14  C   UNL     1      -4.193  -1.255  24.651  0.00  0.00    +0.074 C 
ATOM     16  C   UNL     1      -3.694  -2.397  23.760  0.00  0.00    +0.022 C 
ATOM     17  C   UNL     1      -3.662  -1.393  26.083  0.00  0.00    +0.022 C 
ATOM     19  C   UNL     1      -2.174  -2.557  23.811  0.00  0.00    +0.002 C 
ATOM     20  C   UNL     1      -2.142  -1.555  26.128  0.00  0.00    +0.002 C 
ATOM     21  C   UNL     1      -1.672  -2.705  25.244  0.00  0.00    +0.000 C 
ENDBRANCH   6  14
ENDBRANCH  15   7
ENDBRANCH  10  15
BRANCH  13  18
ATOM     18  C   UNL     1      -0.738   1.478  25.507  0.00  0.00    +0.130 C 
BRANCH  18  23
ATOM      5  O   UNL     1      -1.063   0.658  23.255  0.00  0.00    -0.276 OA
ATOM      8  N   UNL     1       1.098   0.862  24.085  0.00  0.00    -0.314 N 
ATOM     23  C   UNL     1      -0.284   0.955  24.156  0.00  0.00    +0.216 C 
ATOM     32  H   UNL     1       1.656   1.142  24.886  0.00  0.00    +0.149 HD
BRANCH   8  24
ATOM     24  C   UNL     1       1.797   0.391  22.911  0.00  0.00    +0.119 C 
BRANCH  24  25
ATOM     25  C   UNL     1       3.185   1.007  22.813  0.00  0.00    +0.102 C 
BRANCH  25   9
ATOM      9  N   UNL     1       4.206  -0.029  22.911  0.00  0.00    -0.307 NA
ATOM     26  C   UNL     1       3.680  -1.209  23.601  0.00  0.00    +0.104 C 
ATOM     27  C   UNL     1       5.391   0.478  23.604  0.00  0.00    +0.104 C 
ENDBRANCH  25   9
ENDBRANCH  24  25
ENDBRANCH   8  24
ENDBRANCH  18  23
ENDBRANCH  13  18
TORSDOF 10
ENDMDL
MODEL 4
REMARK VINA RESULT:      -3.6      2.093      7.082
REMARK  Name = 40781655
REMARK  12 active torsions:
REMARK  status: ('A' for Active; 'I' for Inactive)
REMARK    1  A    between atoms: O_2  and  C_11
REMARK    2  A    between atoms: O_3  and  C_12
REMARK    3  A    between atoms: N_6  and  C_14
REMARK    4  A    between atoms: N_7  and  C_15
REMARK    5  A    between atoms: N_8  and  C_24
REMARK    6  A    between atoms: N_9  and  C_25
REMARK    7  A    between atoms: N_9  and  C_26
REMARK    8  A    between atoms: N_9  and  C_27
REMARK    9  A    between atoms: C_10  and  C_15
REMARK   10  A    between atoms: C_13  and  C_18
REMARK   11  A    between atoms: C_18  and  C_23
REMARK   12  A    between atoms: C_24  and  C_25
REMARK                            x       y       z     vdW  Elec       q    Type
REMARK                         _______ _______ _______ _____ _____    ______ ____
ROOT
ATOM      1  O   UNL     1      -0.887  -1.705  23.944  0.00  0.00    -0.366 OA
ATOM     10  C   UNL     1      -1.829  -1.999  25.002  0.00  0.00    +0.167 C 
ATOM     11  C   UNL     1      -1.564  -0.983  26.107  0.00  0.00    +0.176 C 
ATOM     12  C   UNL     1      -1.029   0.200  25.328  0.00  0.00    +0.175 C 
ATOM     13  C   UNL     1      -0.187  -0.490  24.269  0.00  0.00    +0.158 C 
ENDROOT
BRANCH  11   2
ATOM      2  O   UNL     1      -0.552  -1.512  26.963  0.00  0.00    -0.387 OA
ATOM     30  H   UNL     1       0.167  -1.837  26.395  0.00  0.00    +0.210 HD
ENDBRANCH  11   2
BRANCH  12   3
ATOM      3  O   UNL     1      -0.267   1.090  26.114  0.00  0.00    -0.387 OA
ATOM     31  H   UNL     1      -0.609   1.986  25.955  0.00  0.00    +0.210 HD
ENDBRANCH  12   3
BRANCH  10  15
ATOM     15  C   UNL     1      -3.232  -1.895  24.419  0.00  0.00    +0.140 C 
BRANCH  15   7
ATOM      4  O   UNL     1      -3.411   0.694  23.182  0.00  0.00    -0.253 OA
ATOM      6  N   UNL     1      -4.692   1.429  24.974  0.00  0.00    -0.297 N 
ATOM      7  N   UNL     1      -3.920  -0.747  24.929  0.00  0.00    -0.297 N 
ATOM     22  C   UNL     1      -3.959   0.482  24.263  0.00  0.00    +0.300 C 
ATOM     28  H   UNL     1      -5.165   1.126  25.820  0.00  0.00    +0.151 HD
ATOM     29  H   UNL     1      -4.411  -0.833  25.814  0.00  0.00    +0.150 HD
BRANCH   6  14
ATOM     14  C   UNL     1      -4.893   2.784  24.513  0.00  0.00    +0.074 C 
ATOM     16  C   UNL     1      -5.191   3.727  25.683  0.00  0.00    +0.022 C 
ATOM     17  C   UNL     1      -3.688   3.272  23.699  0.00  0.00    +0.022 C 
ATOM     19  C   UNL     1      -3.961   3.988  26.552  0.00  0.00    +0.002 C 
ATOM     20  C   UNL     1      -2.461   3.534  24.572  0.00  0.00    +0.002 C 
ATOM     21  C   UNL     1      -2.780   4.484  25.722  0.00  0.00    +0.000 C 
ENDBRANCH   6  14
ENDBRANCH  15   7
ENDBRANCH  10  15
BRANCH  13  18
ATOM     18  C   UNL     1       0.002   0.342  23.013  0.00  0.00    +0.130 C 
BRANCH  18  23
ATOM      5  O   UNL     1       1.351  -0.681  21.285  0.00  0.00    -0.276 OA
ATOM      8  N   UNL     1       2.387   0.616  22.911  0.00  0.00    -0.314 N 
ATOM     23  C   UNL     1       1.298   0.021  22.291  0.00  0.00    +0.216 C 
ATOM     32  H   UNL     1       2.236   1.188  23.737  0.00  0.00    +0.149 HD
BRANCH   8  24
ATOM     24  C   UNL     1       3.744   0.473  22.432  0.00  0.00    +0.119 C 
BRANCH  24  25
ATOM     25  C   UNL     1       4.749   0.871  23.502  0.00  0.00    +0.102 C 
BRANCH  25   9
ATOM      9  N   UNL     1       5.514  -0.292  23.936  0.00  0.00    -0.307 NA
ATOM     26  C   UNL     1       6.699  -0.473  23.095  0.00  0.00    +0.104 C 
ATOM     27  C   UNL     1       4.683  -1.496  23.908  0.00  0.00    +0.104 C 
ENDBRANCH  25   9
ENDBRANCH  24  25
ENDBRANCH   8  24
ENDBRANCH  18  23
ENDBRANCH  13  18
TORSDOF 10
ENDMDL
MODEL 5
REMARK VINA RESULT:      -2.3      1.918      6.828
REMARK  Name = 40781655
REMARK  12 active torsions:
REMARK  status: ('A' for Active; 'I' for Inactive)
REMARK    1  A    between atoms: O_2  and  C_11
REMARK    2  A    between atoms: O_3  and  C_12
REMARK    3  A    between atoms: N_6  and  C_14
REMARK    4  A    between atoms: N_7  and  C_15
REMARK    5  A    between atoms: N_8  and  C_24
REMARK    6  A    between atoms: N_9  and  C_25
REMARK    7  A    between atoms: N_9  and  C_26
REMARK    8  A    between atoms: N_9  and  C_27
REMARK    9  A    between atoms: C_10  and  C_15
REMARK   10  A    between atoms: C_13  and  C_18
REMARK   11  A    between atoms: C_18  and  C_23
REMARK   12  A    between atoms: C_24  and  C_25
REMARK                            x       y       z     vdW  Elec       q    Type
REMARK                         _______ _______ _______ _____ _____    ______ ____
ROOT
ATOM      1  O   UNL     1      -1.965  -0.949  23.579  0.00  0.00    -0.366 OA
ATOM     10  C   UNL     1      -2.983  -1.834  24.101  0.00  0.00    +0.167 C 
ATOM     11  C   UNL     1      -2.601  -2.118  25.550  0.00  0.00    +0.176 C 
ATOM     12  C   UNL     1      -1.852  -0.859  25.932  0.00  0.00    +0.175 C 
ATOM     13  C   UNL     1      -1.091  -0.557  24.653  0.00  0.00    +0.158 C 
ENDROOT
BRANCH  11   2
ATOM      2  O   UNL     1      -1.721  -3.242  25.565  0.00  0.00    -0.387 OA
ATOM     30  H   UNL     1      -1.823  -3.701  24.713  0.00  0.00    +0.210 HD
ENDBRANCH  11   2
BRANCH  12   3
ATOM      3  O   UNL     1      -0.987  -1.035  27.034  0.00  0.00    -0.387 OA
ATOM     31  H   UNL     1      -0.243  -1.585  26.735  0.00  0.00    +0.210 HD
ENDBRANCH  12   3
BRANCH  10  15
ATOM     15  C   UNL     1      -4.326  -1.130  23.965  0.00  0.00    +0.140 C 
BRANCH  15   7
ATOM      4  O   UNL     1      -4.820   1.081  25.734  0.00  0.00    -0.253 OA
ATOM      6  N   UNL     1      -4.170   2.538  24.047  0.00  0.00    -0.297 N 
ATOM      7  N   UNL     1      -4.154   0.260  23.668  0.00  0.00    -0.297 N 
ATOM     22  C   UNL     1      -4.418   1.279  24.589  0.00  0.00    +0.300 C 
ATOM     28  H   UNL     1      -3.768   2.583  23.116  0.00  0.00    +0.151 HD
ATOM     29  H   UNL     1      -3.814   0.518  22.746  0.00  0.00    +0.150 HD
BRANCH   6  14
ATOM     14  C   UNL     1      -4.359   3.767  24.784  0.00  0.00    +0.074 C 
ATOM     16  C   UNL     1      -3.741   3.673  26.183  0.00  0.00    +0.022 C 
ATOM     17  C   UNL     1      -3.799   4.966  24.008  0.00  0.00    +0.022 C 
ATOM     19  C   UNL     1      -2.213   3.690  26.149  0.00  0.00    +0.002 C 
ATOM     20  C   UNL     1      -2.271   4.980  23.979  0.00  0.00    +0.002 C 
ATOM     21  C   UNL     1      -1.680   4.897  25.383  0.00  0.00    +0.000 C 
ENDBRANCH   6  14
ENDBRANCH  15   7
ENDBRANCH  10  15
BRANCH  13  18
ATOM     18  C   UNL     1      -0.721   0.907  24.502  0.00  0.00    +0.130 C 
BRANCH  18  23
ATOM      5  O   UNL     1       1.281   2.140  23.933  0.00  0.00    -0.276 OA
ATOM      8  N   UNL     1       1.019  -0.027  23.134  0.00  0.00    -0.314 N 
ATOM     23  C   UNL     1       0.631   1.102  23.840  0.00  0.00    +0.216 C 
ATOM     32  H   UNL     1       0.411  -0.841  23.127  0.00  0.00    +0.149 HD
BRANCH   8  24
ATOM     24  C   UNL     1       2.265  -0.113  22.406  0.00  0.00    +0.119 C 
BRANCH  24  25
ATOM     25  C   UNL     1       3.344  -0.786  23.241  0.00  0.00    +0.102 C 
BRANCH  25   9
ATOM      9  N   UNL     1       4.623  -0.114  23.050  0.00  0.00    -0.307 NA
ATOM     26  C   UNL     1       5.445  -0.216  24.259  0.00  0.00    +0.104 C 
ATOM     27  C   UNL     1       4.421   1.290  22.692  0.00  0.00    +0.104 C 
ENDBRANCH  25   9
ENDBRANCH  24  25
ENDBRANCH   8  24
ENDBRANCH  18  23
ENDBRANCH  13  18
TORSDOF 10
ENDMDL
