MODEL 1
REMARK VINA RESULT:      -3.0      0.000      0.000
REMARK  Name = 40474964
REMARK  8 active torsions:
REMARK  status: ('A' for Active; 'I' for Inactive)
REMARK    1  A    between atoms: O_3  and  C_18
REMARK    2  A    between atoms: O_3  and  C_20
REMARK    3  A    between atoms: N_5  and  C_14
REMARK    4  A    between atoms: N_6  and  C_15
REMARK    5  A    between atoms: N_10  and  C_21
REMARK    6  A    between atoms: N_11  and  C_26
REMARK    7  A    between atoms: N_11  and  C_32
REMARK    8  A    between atoms: N_11  and  C_33
REMARK                            x       y       z     vdW  Elec       q    Type
REMARK                         _______ _______ _______ _____ _____    ______ ____
ROOT
ATOM      1  O   UNL     1      14.570  -9.454  27.658  0.00  0.00    -0.370 OA
ATOM      2  O   UNL     1      17.297 -10.495  26.544  0.00  0.00    -0.370 OA
ATOM     12  C   UNL     1      16.939  -9.690  27.682  0.00  0.00    +0.176 C 
ATOM     13  C   UNL     1      15.786  -8.801  27.257  0.00  0.00    +0.172 C 
ATOM     14  C   UNL     1      16.361 -10.567  28.778  0.00  0.00    +0.171 C 
ATOM     15  C   UNL     1      15.887  -8.761  25.748  0.00  0.00    +0.131 C 
ATOM     16  C   UNL     1      14.892 -10.654  28.374  0.00  0.00    +0.190 C 
ATOM     17  C   UNL     1      16.479 -10.122  25.426  0.00  0.00    +0.185 C 
ENDROOT
BRANCH  15   6
ATOM      4  O   UNL     1      15.190  -6.000  25.438  0.00  0.00    -0.252 OA
ATOM      6  N   UNL     1      16.757  -7.695  25.312  0.00  0.00    -0.292 N 
ATOM     10  N   UNL     1      17.390  -5.561  24.746  0.00  0.00    -0.269 N 
ATOM     19  C   UNL     1      16.335  -6.366  25.186  0.00  0.00    +0.304 C 
ATOM     34  H   UNL     1      17.737  -7.907  25.149  0.00  0.00    +0.151 HD
ATOM     35  H   UNL     1      18.280  -6.025  24.580  0.00  0.00    +0.156 HD
BRANCH  10  21
ATOM     21  C   UNL     1      17.373  -4.169  24.496  0.00  0.00    +0.035 A 
ATOM     24  C   UNL     1      17.325  -3.271  25.563  0.00  0.00    +0.023 A 
ATOM     25  C   UNL     1      17.404  -3.695  23.185  0.00  0.00    +0.023 A 
ATOM     29  C   UNL     1      17.308  -1.898  25.317  0.00  0.00    +0.002 A 
ATOM     30  C   UNL     1      17.388  -2.322  22.939  0.00  0.00    +0.002 A 
ATOM     31  C   UNL     1      17.339  -1.423  24.005  0.00  0.00    +0.000 A 
ENDBRANCH  10  21
ENDBRANCH  15   6
BRANCH  14   5
ATOM      5  N   UNL     1      16.628  -9.982  30.153  0.00  0.00    -0.187 N 
ATOM      7  N   UNL     1      17.326 -10.663  31.073  0.00  0.00    -0.041 NA
ATOM      8  N   UNL     1      16.696  -8.688  31.892  0.00  0.00    -0.071 NA
ATOM      9  N   UNL     1      17.365  -9.867  32.134  0.00  0.00    -0.020 NA
ATOM     18  C   UNL     1      16.248  -8.781  30.660  0.00  0.00    +0.342 A 
BRANCH  18   3
ATOM      3  O   UNL     1      15.546  -7.875  30.007  0.00  0.00    -0.423 OA
BRANCH   3  20
ATOM     20  C   UNL     1      15.034  -6.769  30.705  0.00  0.00    +0.134 A 
ATOM     22  C   UNL     1      15.777  -5.591  30.785  0.00  0.00    +0.069 A 
ATOM     23  C   UNL     1      13.782  -6.848  31.315  0.00  0.00    +0.046 A 
ATOM     26  C   UNL     1      15.267  -4.492  31.478  0.00  0.00    +0.033 A 
ATOM     27  C   UNL     1      13.273  -5.749  32.007  0.00  0.00    +0.005 A 
ATOM     28  C   UNL     1      14.016  -4.571  32.088  0.00  0.00    +0.023 A 
BRANCH  26  11
ATOM     11  N   UNL     1      16.018  -3.301  31.559  0.00  0.00    -0.336 N 
ATOM     32  C   UNL     1      16.279  -2.516  30.369  0.00  0.00    +0.129 C 
ATOM     33  C   UNL     1      16.533  -2.842  32.833  0.00  0.00    +0.129 C 
ENDBRANCH  26  11
ENDBRANCH   3  20
ENDBRANCH  18   3
ENDBRANCH  14   5
TORSDOF 6
ENDMDL
MODEL 2
REMARK VINA RESULT:      -3.0      1.087      2.151
REMARK  Name = 40474964
REMARK  8 active torsions:
REMARK  status: ('A' for Active; 'I' for Inactive)
REMARK    1  A    between atoms: O_3  and  C_18
REMARK    2  A    between atoms: O_3  and  C_20
REMARK    3  A    between atoms: N_5  and  C_14
REMARK    4  A    between atoms: N_6  and  C_15
REMARK    5  A    between atoms: N_10  and  C_21
REMARK    6  A    between atoms: N_11  and  C_26
REMARK    7  A    between atoms: N_11  and  C_32
REMARK    8  A    between atoms: N_11  and  C_33
REMARK                            x       y       z     vdW  Elec       q    Type
REMARK                         _______ _______ _______ _____ _____    ______ ____
ROOT
ATOM      1  O   UNL     1      14.590  -9.453  27.678  0.00  0.00    -0.370 OA
ATOM      2  O   UNL     1      17.367 -10.415  26.619  0.00  0.00    -0.370 OA
ATOM     12  C   UNL     1      16.962  -9.640  27.762  0.00  0.00    +0.176 C 
ATOM     13  C   UNL     1      15.802  -8.768  27.323  0.00  0.00    +0.172 C 
ATOM     14  C   UNL     1      16.375 -10.550  28.825  0.00  0.00    +0.171 C 
ATOM     15  C   UNL     1      15.942  -8.696  25.819  0.00  0.00    +0.131 C 
ATOM     16  C   UNL     1      14.919 -10.660  28.381  0.00  0.00    +0.190 C 
ATOM     17  C   UNL     1      16.572 -10.037  25.487  0.00  0.00    +0.185 C 
ENDROOT
BRANCH  15   6
ATOM      4  O   UNL     1      15.205  -5.938  25.586  0.00  0.00    -0.252 OA
ATOM      6  N   UNL     1      16.800  -7.604  25.426  0.00  0.00    -0.292 N 
ATOM     10  N   UNL     1      17.405  -5.444  24.934  0.00  0.00    -0.269 N 
ATOM     19  C   UNL     1      16.359  -6.278  25.337  0.00  0.00    +0.304 C 
ATOM     34  H   UNL     1      17.785  -7.795  25.268  0.00  0.00    +0.151 HD
ATOM     35  H   UNL     1      18.305  -5.888  24.765  0.00  0.00    +0.156 HD
BRANCH  10  21
ATOM     21  C   UNL     1      17.370  -4.045  24.727  0.00  0.00    +0.035 A 
ATOM     24  C   UNL     1      17.327  -3.534  23.429  0.00  0.00    +0.023 A 
ATOM     25  C   UNL     1      17.378  -3.177  25.819  0.00  0.00    +0.023 A 
ATOM     29  C   UNL     1      17.292  -2.154  23.225  0.00  0.00    +0.002 A 
ATOM     30  C   UNL     1      17.343  -1.798  25.614  0.00  0.00    +0.002 A 
ATOM     31  C   UNL     1      17.301  -1.286  24.317  0.00  0.00    +0.000 A 
ENDBRANCH  10  21
ENDBRANCH  15   6
BRANCH  14   5
ATOM      5  N   UNL     1      16.593  -9.986  30.218  0.00  0.00    -0.187 N 
ATOM      7  N   UNL     1      17.321 -10.648  31.128  0.00  0.00    -0.041 NA
ATOM      8  N   UNL     1      16.565  -8.736  31.990  0.00  0.00    -0.071 NA
ATOM      9  N   UNL     1      17.301  -9.879  32.210  0.00  0.00    -0.020 NA
ATOM     18  C   UNL     1      16.136  -8.824  30.751  0.00  0.00    +0.342 A 
BRANCH  18   3
ATOM      3  O   UNL     1      15.388  -7.944  30.113  0.00  0.00    -0.423 OA
BRANCH   3  20
ATOM     20  C   UNL     1      14.907  -6.821  30.806  0.00  0.00    +0.134 A 
ATOM     22  C   UNL     1      13.579  -6.779  31.229  0.00  0.00    +0.069 A 
ATOM     23  C   UNL     1      15.759  -5.749  31.072  0.00  0.00    +0.046 A 
ATOM     26  C   UNL     1      13.102  -5.663  31.918  0.00  0.00    +0.033 A 
ATOM     27  C   UNL     1      15.282  -4.633  31.760  0.00  0.00    +0.005 A 
ATOM     28  C   UNL     1      13.954  -4.591  32.184  0.00  0.00    +0.023 A 
BRANCH  26  11
ATOM     11  N   UNL     1      11.758  -5.621  32.346  0.00  0.00    -0.336 N 
ATOM     32  C   UNL     1      11.068  -4.352  32.470  0.00  0.00    +0.129 C 
ATOM     33  C   UNL     1      11.050  -6.844  32.661  0.00  0.00    +0.129 C 
ENDBRANCH  26  11
ENDBRANCH   3  20
ENDBRANCH  18   3
ENDBRANCH  14   5
TORSDOF 6
ENDMDL
