MODEL 1
REMARK VINA RESULT:      -2.1      0.000      0.000
REMARK  Name = 75537022
REMARK  4 active torsions:
REMARK  status: ('A' for Active; 'I' for Inactive)
REMARK    1  A    between atoms: N_3  and  C_8
REMARK    2  A    between atoms: N_6  and  C_20
REMARK    3  A    between atoms: C_20  and  C_21
REMARK    4  A    between atoms: C_20  and  C_22
REMARK                            x       y       z     vdW  Elec       q    Type
REMARK                         _______ _______ _______ _____ _____    ______ ____
ROOT
ATOM      1  O   UNL     1      17.405  -2.008  27.920  0.00  0.00    -0.252 OA
ATOM      2  O   UNL     1      16.168  -7.117  32.412  0.00  0.00    -0.253 OA
ATOM      3  N   UNL     1      17.100  -3.868  26.504  0.00  0.00    -0.281 N 
ATOM      4  N   UNL     1      16.830  -4.143  28.718  0.00  0.00    -0.278 N 
ATOM      5  N   UNL     1      16.920  -6.398  30.341  0.00  0.00    -0.282 N 
ATOM      6  N   UNL     1      15.881  -8.505  30.610  0.00  0.00    -0.297 N 
ATOM      7  C   UNL     1      16.458  -5.424  28.141  0.00  0.00    +0.112 C 
ATOM      9  C   UNL     1      16.857  -5.289  26.674  0.00  0.00    +0.133 C 
ATOM     12  C   UNL     1      17.148  -6.558  28.891  0.00  0.00    +0.133 C 
ATOM     13  C   UNL     1      17.141  -3.189  27.737  0.00  0.00    +0.305 C 
ATOM     14  C   UNL     1      16.751  -3.944  30.155  0.00  0.00    +0.128 C 
ATOM     17  C   UNL     1      17.405  -5.118  30.883  0.00  0.00    +0.128 C 
ATOM     19  C   UNL     1      16.316  -7.326  31.204  0.00  0.00    +0.303 C 
ATOM     23  H   UNL     1      15.877  -8.610  29.605  0.00  0.00    +0.150 HD
ENDROOT
BRANCH   3   8
ATOM      8  C   UNL     1      17.404  -3.293  25.215  0.00  0.00    +0.078 C 
ATOM     10  C   UNL     1      16.681  -1.955  25.042  0.00  0.00    +0.022 C 
ATOM     11  C   UNL     1      17.050  -4.268  24.090  0.00  0.00    +0.022 C 
ATOM     15  C   UNL     1      16.943  -1.349  23.665  0.00  0.00    +0.002 C 
ATOM     16  C   UNL     1      17.312  -3.659  22.715  0.00  0.00    +0.002 C 
ATOM     18  C   UNL     1      16.593  -2.324  22.544  0.00  0.00    +0.000 C 
ENDBRANCH   3   8
BRANCH   6  20
ATOM     20  C   UNL     1      15.234  -9.554  31.365  0.00  0.00    +0.068 C 
ATOM     21  C   UNL     1      13.882  -9.899  30.752  0.00  0.00    +0.027 C 
ATOM     22  C   UNL     1      16.133 -10.781  31.445  0.00  0.00    +0.027 C 
ENDBRANCH   6  20
TORSDOF 2
ENDMDL
MODEL 2
REMARK VINA RESULT:      -1.3      1.702      2.277
REMARK  Name = 75537022
REMARK  4 active torsions:
REMARK  status: ('A' for Active; 'I' for Inactive)
REMARK    1  A    between atoms: N_3  and  C_8
REMARK    2  A    between atoms: N_6  and  C_20
REMARK    3  A    between atoms: C_20  and  C_21
REMARK    4  A    between atoms: C_20  and  C_22
REMARK                            x       y       z     vdW  Elec       q    Type
REMARK                         _______ _______ _______ _____ _____    ______ ____
ROOT
ATOM      1  O   UNL     1      17.154  -3.910  28.141  0.00  0.00    -0.252 OA
ATOM      2  O   UNL     1      14.312  -8.465  32.499  0.00  0.00    -0.253 OA
ATOM      3  N   UNL     1      16.571  -5.690  26.708  0.00  0.00    -0.281 N 
ATOM      4  N   UNL     1      16.021  -5.831  28.883  0.00  0.00    -0.278 N 
ATOM      5  N   UNL     1      15.418  -7.998  30.516  0.00  0.00    -0.282 N 
ATOM      6  N   UNL     1      13.896  -9.800  30.682  0.00  0.00    -0.297 N 
ATOM      7  C   UNL     1      15.421  -7.007  28.275  0.00  0.00    +0.112 C 
ATOM      9  C   UNL     1      15.989  -7.011  26.858  0.00  0.00    +0.133 C 
ATOM     12  C   UNL     1      15.748  -8.249  29.099  0.00  0.00    +0.133 C 
ATOM     13  C   UNL     1      16.643  -5.003  27.936  0.00  0.00    +0.305 C 
ATOM     14  C   UNL     1      15.843  -5.579  30.302  0.00  0.00    +0.128 C 
ATOM     17  C   UNL     1      16.130  -6.850  31.100  0.00  0.00    +0.128 C 
ATOM     19  C   UNL     1      14.529  -8.737  31.314  0.00  0.00    +0.303 C 
ATOM     23  H   UNL     1      13.970  -9.930  29.683  0.00  0.00    +0.150 HD
ENDROOT
BRANCH   3   8
ATOM      8  C   UNL     1      17.130  -5.238  25.456  0.00  0.00    +0.078 C 
ATOM     10  C   UNL     1      16.583  -3.854  25.094  0.00  0.00    +0.022 C 
ATOM     11  C   UNL     1      16.858  -6.253  24.344  0.00  0.00    +0.022 C 
ATOM     15  C   UNL     1      17.118  -3.374  23.747  0.00  0.00    +0.002 C 
ATOM     16  C   UNL     1      17.394  -5.769  22.999  0.00  0.00    +0.002 C 
ATOM     18  C   UNL     1      16.850  -4.389  22.640  0.00  0.00    +0.000 C 
ENDBRANCH   3   8
BRANCH   6  20
ATOM     20  C   UNL     1      12.949 -10.650  31.369  0.00  0.00    +0.068 C 
ATOM     21  C   UNL     1      13.195 -10.618  32.873  0.00  0.00    +0.027 C 
ATOM     22  C   UNL     1      11.523 -10.232  31.034  0.00  0.00    +0.027 C 
ENDBRANCH   6  20
TORSDOF 2
ENDMDL
MODEL 3
REMARK VINA RESULT:       0.0     24.674     26.730
REMARK  Name = 75537022
REMARK  4 active torsions:
REMARK  status: ('A' for Active; 'I' for Inactive)
REMARK    1  A    between atoms: N_3  and  C_8
REMARK    2  A    between atoms: N_6  and  C_20
REMARK    3  A    between atoms: C_20  and  C_21
REMARK    4  A    between atoms: C_20  and  C_22
REMARK                            x       y       z     vdW  Elec       q    Type
REMARK                         _______ _______ _______ _____ _____    ______ ____
ROOT
ATOM      1  O   UNL     1      -7.842 -10.177  13.856  0.00  0.00    -0.252 OA
ATOM      2  O   UNL     1      -1.871  -9.228  10.499  0.00  0.00    -0.253 OA
ATOM      3  N   UNL     1      -6.261 -10.231  15.605  0.00  0.00    -0.281 N 
ATOM      4  N   UNL     1      -5.545  -9.814  13.516  0.00  0.00    -0.278 N 
ATOM      5  N   UNL     1      -3.047 -10.053  12.318  0.00  0.00    -0.282 N 
ATOM      6  N   UNL     1      -0.826  -9.271  12.540  0.00  0.00    -0.297 N 
ATOM      7  C   UNL     1      -4.363  -9.656  14.347  0.00  0.00    +0.112 C 
ATOM      9  C   UNL     1      -4.815 -10.157  15.717  0.00  0.00    +0.133 C 
ATOM     12  C   UNL     1      -3.189 -10.420  13.742  0.00  0.00    +0.133 C 
ATOM     13  C   UNL     1      -6.695 -10.082  14.273  0.00  0.00    +0.305 C 
ATOM     14  C   UNL     1      -5.458  -9.590  12.083  0.00  0.00    +0.128 C 
ATOM     17  C   UNL     1      -4.247 -10.325  11.510  0.00  0.00    +0.128 C 
ATOM     19  C   UNL     1      -1.912  -9.502  11.703  0.00  0.00    +0.303 C 
ATOM     23  H   UNL     1      -0.913  -9.365  13.542  0.00  0.00    +0.150 HD
ENDROOT
BRANCH   3   8
ATOM      8  C   UNL     1      -7.098 -10.566  16.732  0.00  0.00    +0.078 C 
ATOM     10  C   UNL     1      -8.332  -9.660  16.769  0.00  0.00    +0.022 C 
ATOM     11  C   UNL     1      -6.307 -10.483  18.039  0.00  0.00    +0.022 C 
ATOM     15  C   UNL     1      -9.211  -9.958  17.982  0.00  0.00    +0.002 C 
ATOM     16  C   UNL     1      -7.188 -10.781  19.249  0.00  0.00    +0.002 C 
ATOM     18  C   UNL     1      -8.419  -9.879  19.284  0.00  0.00    +0.000 C 
ENDBRANCH   3   8
BRANCH   6  20
ATOM     20  C   UNL     1       0.411  -8.702  12.055  0.00  0.00    +0.068 C 
ATOM     21  C   UNL     1       0.518  -8.862  10.543  0.00  0.00    +0.027 C 
ATOM     22  C   UNL     1       0.516  -7.238  12.465  0.00  0.00    +0.027 C 
ENDBRANCH   6  20
TORSDOF 2
ENDMDL
MODEL 4
REMARK VINA RESULT:       0.6     18.923     20.388
REMARK  Name = 75537022
REMARK  4 active torsions:
REMARK  status: ('A' for Active; 'I' for Inactive)
REMARK    1  A    between atoms: N_3  and  C_8
REMARK    2  A    between atoms: N_6  and  C_20
REMARK    3  A    between atoms: C_20  and  C_21
REMARK    4  A    between atoms: C_20  and  C_22
REMARK                            x       y       z     vdW  Elec       q    Type
REMARK                         _______ _______ _______ _____ _____    ______ ____
ROOT
ATOM      1  O   UNL     1      -4.138  -0.609  24.101  0.00  0.00    -0.252 OA
ATOM      2  O   UNL     1       2.695  -1.239  23.244  0.00  0.00    -0.253 OA
ATOM      3  N   UNL     1      -3.415   1.635  24.110  0.00  0.00    -0.281 N 
ATOM      4  N   UNL     1      -1.900   0.016  23.748  0.00  0.00    -0.278 N 
ATOM      5  N   UNL     1       0.867  -0.044  24.020  0.00  0.00    -0.282 N 
ATOM      6  N   UNL     1       2.809   1.051  23.235  0.00  0.00    -0.297 N 
ATOM      7  C   UNL     1      -1.162   1.255  23.570  0.00  0.00    +0.112 C 
ATOM      9  C   UNL     1      -2.142   2.329  24.034  0.00  0.00    +0.133 C 
ATOM     12  C   UNL     1       0.148   1.203  24.350  0.00  0.00    +0.133 C 
ATOM     13  C   UNL     1      -3.262   0.240  23.995  0.00  0.00    +0.305 C 
ATOM     14  C   UNL     1      -1.230  -1.260  23.561  0.00  0.00    +0.128 C 
ATOM     17  C   UNL     1       0.101  -1.267  24.312  0.00  0.00    +0.128 C 
ATOM     19  C   UNL     1       2.160  -0.152  23.486  0.00  0.00    +0.303 C 
ATOM     23  H   UNL     1       2.317   1.931  23.302  0.00  0.00    +0.150 HD
ENDROOT
BRANCH   3   8
ATOM      8  C   UNL     1      -4.645   2.326  24.415  0.00  0.00    +0.078 C 
ATOM     10  C   UNL     1      -4.356   3.761  24.866  0.00  0.00    +0.022 C 
ATOM     11  C   UNL     1      -5.449   1.562  25.469  0.00  0.00    +0.022 C 
ATOM     15  C   UNL     1      -5.638   4.499  25.245  0.00  0.00    +0.002 C 
ATOM     16  C   UNL     1      -6.729   2.303  25.847  0.00  0.00    +0.002 C 
ATOM     18  C   UNL     1      -6.440   3.733  26.294  0.00  0.00    +0.000 C 
ENDBRANCH   3   8
BRANCH   6  20
ATOM     20  C   UNL     1       4.143   1.104  22.679  0.00  0.00    +0.068 C 
ATOM     21  C   UNL     1       5.156   0.536  23.665  0.00  0.00    +0.027 C 
ATOM     22  C   UNL     1       4.192   0.365  21.348  0.00  0.00    +0.027 C 
ENDBRANCH   6  20
TORSDOF 2
ENDMDL
MODEL 5
REMARK VINA RESULT:       1.4     18.460     19.663
REMARK  Name = 75537022
REMARK  4 active torsions:
REMARK  status: ('A' for Active; 'I' for Inactive)
REMARK    1  A    between atoms: N_3  and  C_8
REMARK    2  A    between atoms: N_6  and  C_20
REMARK    3  A    between atoms: C_20  and  C_21
REMARK    4  A    between atoms: C_20  and  C_22
REMARK                            x       y       z     vdW  Elec       q    Type
REMARK                         _______ _______ _______ _____ _____    ______ ____
ROOT
ATOM      1  O   UNL     1       0.766  -2.331  24.590  0.00  0.00    -0.252 OA
ATOM      2  O   UNL     1      -5.478   0.457  25.617  0.00  0.00    -0.253 OA
ATOM      3  N   UNL     1       1.018  -0.170  23.681  0.00  0.00    -0.281 N 
ATOM      4  N   UNL     1      -0.933  -0.708  24.660  0.00  0.00    -0.278 N 
ATOM      5  N   UNL     1      -3.490   0.358  24.430  0.00  0.00    -0.282 N 
ATOM      6  N   UNL     1      -4.658   2.395  24.708  0.00  0.00    -0.297 N 
ATOM      7  C   UNL     1      -1.066   0.700  24.325  0.00  0.00    +0.112 C 
ATOM      9  C   UNL     1       0.166   0.987  23.470  0.00  0.00    +0.133 C 
ATOM     12  C   UNL     1      -2.400   0.951  23.629  0.00  0.00    +0.133 C 
ATOM     13  C   UNL     1       0.339  -1.210  24.345  0.00  0.00    +0.305 C 
ATOM     14  C   UNL     1      -2.015  -1.397  25.341  0.00  0.00    +0.128 C 
ATOM     17  C   UNL     1      -3.346  -1.090  24.654  0.00  0.00    +0.128 C 
ATOM     19  C   UNL     1      -4.603   1.029  24.961  0.00  0.00    +0.303 C 
ATOM     23  H   UNL     1      -3.874   2.879  24.294  0.00  0.00    +0.150 HD
ENDROOT
BRANCH   3   8
ATOM      8  C   UNL     1       2.348  -0.251  23.127  0.00  0.00    +0.078 C 
ATOM     10  C   UNL     1       3.227  -1.172  23.977  0.00  0.00    +0.022 C 
ATOM     11  C   UNL     1       2.966   1.143  22.996  0.00  0.00    +0.022 C 
ATOM     15  C   UNL     1       4.656  -1.235  23.442  0.00  0.00    +0.002 C 
ATOM     16  C   UNL     1       4.395   1.077  22.462  0.00  0.00    +0.002 C 
ATOM     18  C   UNL     1       5.269   0.156  23.308  0.00  0.00    +0.000 C 
ENDBRANCH   3   8
BRANCH   6  20
ATOM     20  C   UNL     1      -5.738   3.224  25.193  0.00  0.00    +0.068 C 
ATOM     21  C   UNL     1      -6.335   2.634  26.466  0.00  0.00    +0.027 C 
ATOM     22  C   UNL     1      -5.251   4.649  25.421  0.00  0.00    +0.027 C 
ENDBRANCH   6  20
TORSDOF 2
ENDMDL
