MODEL 1
REMARK VINA RESULT:       8.5      0.000      0.000
REMARK  Name = 7051348
REMARK  4 active torsions:
REMARK  status: ('A' for Active; 'I' for Inactive)
REMARK    1  A    between atoms: S_1  and  N_9
REMARK    2  A    between atoms: S_1  and  C_28
REMARK    3  A    between atoms: N_9  and  C_20
REMARK    4  A    between atoms: C_19  and  C_22
REMARK                            x       y       z     vdW  Elec       q    Type
REMARK                         _______ _______ _______ _____ _____    ______ ____
ROOT
ATOM      3  O   UNL     1      -0.006  -1.274  22.086  0.00  0.00    -0.266 OA
ATOM      4  O   UNL     1      -4.969  -0.046  22.924  0.00  0.00    -0.270 OA
ATOM      7  N   UNL     1      -4.121  -0.963  24.902  0.00  0.00    -0.297 N 
ATOM      8  N   UNL     1      -1.076  -1.453  24.162  0.00  0.00    -0.310 N 
ATOM     10  C   UNL     1      -2.946  -3.140  24.628  0.00  0.00    +0.027 C 
ATOM     11  C   UNL     1      -2.237  -1.580  26.396  0.00  0.00    +0.054 C 
ATOM     12  C   UNL     1      -2.468  -3.055  26.074  0.00  0.00    +0.018 C 
ATOM     13  C   UNL     1      -4.252  -2.347  24.446  0.00  0.00    +0.113 C 
ATOM     14  C   UNL     1      -1.829  -2.631  23.709  0.00  0.00    +0.130 C 
ATOM     15  C   UNL     1      -3.561  -0.806  26.255  0.00  0.00    +0.117 C 
ATOM     16  C   UNL     1      -1.192  -0.977  25.476  0.00  0.00    +0.027 A 
ATOM     17  C   UNL     1      -0.411   0.031  25.907  0.00  0.00    +0.024 A 
ATOM     18  C   UNL     1      -0.163  -0.892  23.244  0.00  0.00    +0.274 A 
ATOM     19  C   UNL     1      -4.500   0.079  24.054  0.00  0.00    +0.247 C 
ATOM     20  C   UNL     1       0.652   0.232  23.771  0.00  0.00    +0.112 A 
ATOM     21  C   UNL     1       0.540   0.658  25.030  0.00  0.00    +0.031 A 
ENDROOT
BRANCH  19  22
ATOM     22  C   UNL     1      -4.314   1.454  24.530  0.00  0.00    +0.037 A 
ATOM     23  C   UNL     1      -3.070   2.069  24.404  0.00  0.00    +0.021 A 
ATOM     24  C   UNL     1      -5.379   2.137  25.104  0.00  0.00    +0.013 A 
ATOM     25  C   UNL     1      -2.875   3.385  24.855  0.00  0.00    -0.017 A 
ATOM     26  C   UNL     1      -5.205   3.445  25.557  0.00  0.00    +0.009 A 
ATOM     27  C   UNL     1      -3.959   4.083  25.439  0.00  0.00    -0.018 A 
ATOM     29  C   UNL     1      -1.630   4.023  24.737  0.00  0.00    +0.008 A 
ATOM     30  C   UNL     1      -3.765   5.400  25.889  0.00  0.00    +0.008 A 
ATOM     32  C   UNL     1      -1.455   5.331  25.190  0.00  0.00    +0.001 A 
ATOM     33  C   UNL     1      -2.520   6.018  25.764  0.00  0.00    +0.001 A 
ENDBRANCH  19  22
BRANCH  20   9
ATOM      9  N   UNL     1       1.584   0.879  22.942  0.00  0.00    -0.211 N 
ATOM     36  H   UNL     1       1.198   1.681  22.423  0.00  0.00    +0.174 HD
BRANCH   9   1
ATOM      1  S   UNL     1       2.650  -0.102  22.067  0.00  0.00    +0.079 S 
ATOM      5  O   UNL     1       2.182  -1.475  22.092  0.00  0.00    -0.149 OA
ATOM      6  O   UNL     1       2.977   0.536  20.806  0.00  0.00    -0.149 OA
BRANCH   1  28
ATOM      2  S   UNL     1       4.509  -1.490  23.846  0.00  0.00    -0.077 S 
ATOM     28  C   UNL     1       4.089  -0.017  23.091  0.00  0.00    +0.146 A 
ATOM     31  C   UNL     1       4.949   1.003  23.408  0.00  0.00    +0.036 A 
ATOM     34  C   UNL     1       5.979   0.570  24.292  0.00  0.00    +0.010 A 
ATOM     35  C   UNL     1       5.860  -0.766  24.610  0.00  0.00    +0.047 A 
ENDBRANCH   1  28
ENDBRANCH   9   1
ENDBRANCH  20   9
TORSDOF 4
ENDMDL
MODEL 2
REMARK VINA RESULT:       8.6      2.905      6.174
REMARK  Name = 7051348
REMARK  4 active torsions:
REMARK  status: ('A' for Active; 'I' for Inactive)
REMARK    1  A    between atoms: S_1  and  N_9
REMARK    2  A    between atoms: S_1  and  C_28
REMARK    3  A    between atoms: N_9  and  C_20
REMARK    4  A    between atoms: C_19  and  C_22
REMARK                            x       y       z     vdW  Elec       q    Type
REMARK                         _______ _______ _______ _____ _____    ______ ____
ROOT
ATOM      3  O   UNL     1      -4.132   2.379  25.923  0.00  0.00    -0.266 OA
ATOM      4  O   UNL     1      -0.526  -1.283  26.581  0.00  0.00    -0.270 OA
ATOM      7  N   UNL     1      -1.908  -1.957  24.818  0.00  0.00    -0.297 N 
ATOM      8  N   UNL     1      -3.880   0.511  24.532  0.00  0.00    -0.310 N 
ATOM     10  C   UNL     1      -4.347  -1.883  25.311  0.00  0.00    +0.027 C 
ATOM     11  C   UNL     1      -3.549  -1.476  23.017  0.00  0.00    +0.054 C 
ATOM     12  C   UNL     1      -4.645  -2.153  23.840  0.00  0.00    +0.018 C 
ATOM     13  C   UNL     1      -2.969  -2.453  25.694  0.00  0.00    +0.113 C 
ATOM     14  C   UNL     1      -4.437  -0.373  25.565  0.00  0.00    +0.130 C 
ATOM     15  C   UNL     1      -2.181  -2.088  23.377  0.00  0.00    +0.117 C 
ATOM     16  C   UNL     1      -3.522   0.020  23.268  0.00  0.00    +0.027 A 
ATOM     17  C   UNL     1      -3.121   0.862  22.298  0.00  0.00    +0.024 A 
ATOM     18  C   UNL     1      -3.818   1.887  24.841  0.00  0.00    +0.274 A 
ATOM     19  C   UNL     1      -0.760  -1.395  25.378  0.00  0.00    +0.247 C 
ATOM     20  C   UNL     1      -3.345   2.761  23.738  0.00  0.00    +0.112 A 
ATOM     21  C   UNL     1      -3.027   2.276  22.537  0.00  0.00    +0.031 A 
ENDROOT
BRANCH  19  22
ATOM     22  C   UNL     1       0.263  -0.869  24.468  0.00  0.00    +0.037 A 
ATOM     23  C   UNL     1       1.598  -1.221  24.647  0.00  0.00    +0.021 A 
ATOM     24  C   UNL     1      -0.107  -0.021  23.430  0.00  0.00    +0.013 A 
ATOM     25  C   UNL     1       2.589  -0.725  23.783  0.00  0.00    -0.017 A 
ATOM     26  C   UNL     1       0.863   0.480  22.562  0.00  0.00    +0.009 A 
ATOM     27  C   UNL     1       2.215   0.137  22.725  0.00  0.00    -0.018 A 
ATOM     29  C   UNL     1       3.941  -1.068  23.946  0.00  0.00    +0.008 A 
ATOM     30  C   UNL     1       3.206   0.633  21.860  0.00  0.00    +0.008 A 
ATOM     32  C   UNL     1       4.912  -0.567  23.078  0.00  0.00    +0.001 A 
ATOM     33  C   UNL     1       4.545   0.282  22.037  0.00  0.00    +0.001 A 
ENDBRANCH  19  22
BRANCH  20   9
ATOM      9  N   UNL     1      -3.228   4.148  23.935  0.00  0.00    -0.211 N 
ATOM     36  H   UNL     1      -2.898   4.663  23.107  0.00  0.00    +0.174 HD
BRANCH   9   1
ATOM      1  S   UNL     1      -2.584   4.665  25.412  0.00  0.00    +0.079 S 
ATOM      5  O   UNL     1      -2.076   6.017  25.278  0.00  0.00    -0.149 OA
ATOM      6  O   UNL     1      -3.500   4.332  26.487  0.00  0.00    -0.149 OA
BRANCH   1  28
ATOM      2  S   UNL     1      -0.094   3.669  24.247  0.00  0.00    -0.077 S 
ATOM     28  C   UNL     1      -1.188   3.589  25.556  0.00  0.00    +0.146 A 
ATOM     31  C   UNL     1      -0.797   2.691  26.516  0.00  0.00    +0.036 A 
ATOM     34  C   UNL     1       0.428   2.051  26.172  0.00  0.00    +0.010 A 
ATOM     35  C   UNL     1       0.921   2.491  24.963  0.00  0.00    +0.047 A 
ENDBRANCH   1  28
ENDBRANCH   9   1
ENDBRANCH  20   9
TORSDOF 4
ENDMDL
MODEL 3
REMARK VINA RESULT:       8.8      2.174      5.165
REMARK  Name = 7051348
REMARK  4 active torsions:
REMARK  status: ('A' for Active; 'I' for Inactive)
REMARK    1  A    between atoms: S_1  and  N_9
REMARK    2  A    between atoms: S_1  and  C_28
REMARK    3  A    between atoms: N_9  and  C_20
REMARK    4  A    between atoms: C_19  and  C_22
REMARK                            x       y       z     vdW  Elec       q    Type
REMARK                         _______ _______ _______ _____ _____    ______ ____
ROOT
ATOM      3  O   UNL     1       0.366   3.286  25.748  0.00  0.00    -0.266 OA
ATOM      4  O   UNL     1      -4.449   1.942  27.111  0.00  0.00    -0.270 OA
ATOM      7  N   UNL     1      -4.577   3.049  25.054  0.00  0.00    -0.297 N 
ATOM      8  N   UNL     1      -1.522   3.593  24.395  0.00  0.00    -0.310 N 
ATOM     10  C   UNL     1      -3.397   5.240  24.969  0.00  0.00    +0.027 C 
ATOM     11  C   UNL     1      -3.561   3.857  22.937  0.00  0.00    +0.054 C 
ATOM     12  C   UNL     1      -3.620   5.291  23.460  0.00  0.00    +0.018 C 
ATOM     13  C   UNL     1      -4.485   4.385  25.644  0.00  0.00    +0.113 C 
ATOM     14  C   UNL     1      -1.988   4.700  25.241  0.00  0.00    +0.130 C 
ATOM     15  C   UNL     1      -4.684   3.024  23.586  0.00  0.00    +0.117 C 
ATOM     16  C   UNL     1      -2.216   3.222  23.235  0.00  0.00    +0.027 A 
ATOM     17  C   UNL     1      -1.714   2.282  22.411  0.00  0.00    +0.024 A 
ATOM     18  C   UNL     1      -0.296   2.993  24.753  0.00  0.00    +0.274 A 
ATOM     19  C   UNL     1      -4.538   1.927  25.884  0.00  0.00    +0.247 C 
ATOM     20  C   UNL     1       0.193   1.948  23.819  0.00  0.00    +0.112 A 
ATOM     21  C   UNL     1      -0.473   1.622  22.710  0.00  0.00    +0.031 A 
ENDROOT
BRANCH  19  22
ATOM     22  C   UNL     1      -4.588   0.604  25.254  0.00  0.00    +0.037 A 
ATOM     23  C   UNL     1      -3.453  -0.203  25.243  0.00  0.00    +0.021 A 
ATOM     24  C   UNL     1      -5.769   0.162  24.671  0.00  0.00    +0.013 A 
ATOM     25  C   UNL     1      -3.485  -1.472  24.643  0.00  0.00    -0.017 A 
ATOM     26  C   UNL     1      -5.820  -1.097  24.071  0.00  0.00    +0.009 A 
ATOM     27  C   UNL     1      -4.686  -1.926  24.049  0.00  0.00    -0.018 A 
ATOM     29  C   UNL     1      -2.351  -2.301  24.622  0.00  0.00    +0.008 A 
ATOM     30  C   UNL     1      -4.720  -3.196  23.450  0.00  0.00    +0.008 A 
ATOM     32  C   UNL     1      -2.402  -3.560  24.021  0.00  0.00    +0.001 A 
ATOM     33  C   UNL     1      -3.583  -4.007  23.437  0.00  0.00    +0.001 A 
ENDBRANCH  19  22
BRANCH  20   9
ATOM      9  N   UNL     1       1.397   1.271  24.082  0.00  0.00    -0.211 N 
ATOM     36  H   UNL     1       2.223   1.884  24.119  0.00  0.00    +0.174 HD
BRANCH   9   1
ATOM      1  S   UNL     1       1.632  -0.213  23.304  0.00  0.00    +0.079 S 
ATOM      5  O   UNL     1       1.017  -1.274  24.080  0.00  0.00    -0.149 OA
ATOM      6  O   UNL     1       1.335  -0.077  21.891  0.00  0.00    -0.149 OA
BRANCH   1  28
ATOM      2  S   UNL     1       4.287   0.935  22.879  0.00  0.00    -0.077 S 
ATOM     28  C   UNL     1       3.384  -0.392  23.461  0.00  0.00    +0.146 A 
ATOM     31  C   UNL     1       4.178  -1.392  23.962  0.00  0.00    +0.036 A 
ATOM     34  C   UNL     1       5.561  -1.064  23.867  0.00  0.00    +0.010 A 
ATOM     35  C   UNL     1       5.762   0.174  23.297  0.00  0.00    +0.047 A 
ENDBRANCH   1  28
ENDBRANCH   9   1
ENDBRANCH  20   9
TORSDOF 4
ENDMDL
MODEL 4
REMARK VINA RESULT:      10.0      2.703      4.197
REMARK  Name = 7051348
REMARK  4 active torsions:
REMARK  status: ('A' for Active; 'I' for Inactive)
REMARK    1  A    between atoms: S_1  and  N_9
REMARK    2  A    between atoms: S_1  and  C_28
REMARK    3  A    between atoms: N_9  and  C_20
REMARK    4  A    between atoms: C_19  and  C_22
REMARK                            x       y       z     vdW  Elec       q    Type
REMARK                         _______ _______ _______ _____ _____    ______ ____
ROOT
ATOM      3  O   UNL     1       0.765   0.434  22.730  0.00  0.00    -0.266 OA
ATOM      4  O   UNL     1      -4.159  -1.176  22.773  0.00  0.00    -0.270 OA
ATOM      7  N   UNL     1      -3.230  -1.681  24.859  0.00  0.00    -0.297 N 
ATOM      8  N   UNL     1      -0.316  -0.450  24.611  0.00  0.00    -0.310 N 
ATOM     10  C   UNL     1      -1.059  -2.896  24.772  0.00  0.00    +0.027 C 
ATOM     11  C   UNL     1      -1.523  -1.350  26.633  0.00  0.00    +0.054 C 
ATOM     12  C   UNL     1      -0.896  -2.697  26.276  0.00  0.00    +0.018 C 
ATOM     13  C   UNL     1      -2.549  -2.886  24.386  0.00  0.00    +0.113 C 
ATOM     14  C   UNL     1      -0.267  -1.804  24.042  0.00  0.00    +0.130 C 
ATOM     15  C   UNL     1      -3.024  -1.370  26.284  0.00  0.00    +0.117 C 
ATOM     16  C   UNL     1      -0.841  -0.217  25.890  0.00  0.00    +0.027 A 
ATOM     17  C   UNL     1      -0.775   1.010  26.440  0.00  0.00    +0.024 A 
ATOM     18  C   UNL     1       0.276   0.580  23.850  0.00  0.00    +0.274 A 
ATOM     19  C   UNL     1      -3.984  -0.921  23.963  0.00  0.00    +0.247 C 
ATOM     20  C   UNL     1       0.297   1.914  24.500  0.00  0.00    +0.112 A 
ATOM     21  C   UNL     1      -0.191   2.112  25.725  0.00  0.00    +0.031 A 
ENDROOT
BRANCH  19  22
ATOM     22  C   UNL     1      -4.616   0.304  24.464  0.00  0.00    +0.037 A 
ATOM     23  C   UNL     1      -3.828   1.325  24.991  0.00  0.00    +0.021 A 
ATOM     24  C   UNL     1      -5.998   0.440  24.410  0.00  0.00    +0.013 A 
ATOM     25  C   UNL     1      -4.418   2.505  25.474  0.00  0.00    -0.017 A 
ATOM     26  C   UNL     1      -6.601   1.605  24.885  0.00  0.00    +0.009 A 
ATOM     27  C   UNL     1      -5.825   2.646  25.420  0.00  0.00    -0.018 A 
ATOM     29  C   UNL     1      -3.643   3.546  26.009  0.00  0.00    +0.008 A 
ATOM     30  C   UNL     1      -6.416   3.826  25.903  0.00  0.00    +0.008 A 
ATOM     32  C   UNL     1      -4.246   4.711  26.484  0.00  0.00    +0.001 A 
ATOM     33  C   UNL     1      -5.630   4.851  26.431  0.00  0.00    +0.001 A 
ENDBRANCH  19  22
BRANCH  20   9
ATOM      9  N   UNL     1       0.849   3.020  23.829  0.00  0.00    -0.211 N 
ATOM     36  H   UNL     1       1.823   3.226  24.092  0.00  0.00    +0.174 HD
BRANCH   9   1
ATOM      1  S   UNL     1      -0.147   4.373  23.624  0.00  0.00    +0.079 S 
ATOM      5  O   UNL     1      -0.507   4.915  24.921  0.00  0.00    -0.149 OA
ATOM      6  O   UNL     1       0.408   5.236  22.599  0.00  0.00    -0.149 OA
BRANCH   1  28
ATOM      2  S   UNL     1      -3.032   4.513  23.168  0.00  0.00    -0.077 S 
ATOM     28  C   UNL     1      -1.595   3.615  22.950  0.00  0.00    +0.146 A 
ATOM     31  C   UNL     1      -1.806   2.438  22.278  0.00  0.00    +0.036 A 
ATOM     34  C   UNL     1      -3.177   2.265  21.933  0.00  0.00    +0.010 A 
ATOM     35  C   UNL     1      -3.955   3.320  22.357  0.00  0.00    +0.047 A 
ENDBRANCH   1  28
ENDBRANCH   9   1
ENDBRANCH  20   9
TORSDOF 4
ENDMDL
MODEL 5
REMARK VINA RESULT:      11.3      2.850      4.106
REMARK  Name = 7051348
REMARK  4 active torsions:
REMARK  status: ('A' for Active; 'I' for Inactive)
REMARK    1  A    between atoms: S_1  and  N_9
REMARK    2  A    between atoms: S_1  and  C_28
REMARK    3  A    between atoms: N_9  and  C_20
REMARK    4  A    between atoms: C_19  and  C_22
REMARK                            x       y       z     vdW  Elec       q    Type
REMARK                         _______ _______ _______ _____ _____    ______ ____
ROOT
ATOM      3  O   UNL     1      -0.537   0.797  22.012  0.00  0.00    -0.266 OA
ATOM      4  O   UNL     1      -1.703   4.903  24.949  0.00  0.00    -0.270 OA
ATOM      7  N   UNL     1      -3.324   3.262  25.347  0.00  0.00    -0.297 N 
ATOM      8  N   UNL     1      -2.278   0.845  23.579  0.00  0.00    -0.310 N 
ATOM     10  C   UNL     1      -4.366   2.302  23.301  0.00  0.00    +0.027 C 
ATOM     11  C   UNL     1      -4.106   0.906  25.313  0.00  0.00    +0.054 C 
ATOM     12  C   UNL     1      -5.048   1.239  24.157  0.00  0.00    +0.018 C 
ATOM     13  C   UNL     1      -4.085   3.565  24.135  0.00  0.00    +0.113 C 
ATOM     14  C   UNL     1      -3.085   1.708  22.704  0.00  0.00    +0.130 C 
ATOM     15  C   UNL     1      -3.870   2.167  26.166  0.00  0.00    +0.117 C 
ATOM     16  C   UNL     1      -2.779   0.378  24.802  0.00  0.00    +0.027 A 
ATOM     17  C   UNL     1      -2.072  -0.501  25.537  0.00  0.00    +0.024 A 
ATOM     18  C   UNL     1      -1.023   0.434  23.082  0.00  0.00    +0.274 A 
ATOM     19  C   UNL     1      -2.164   3.987  25.630  0.00  0.00    +0.247 C 
ATOM     20  C   UNL     1      -0.281  -0.516  23.948  0.00  0.00    +0.112 A 
ATOM     21  C   UNL     1      -0.783  -0.963  25.100  0.00  0.00    +0.031 A 
ENDROOT
BRANCH  19  22
ATOM     22  C   UNL     1      -1.404   3.626  26.831  0.00  0.00    +0.037 A 
ATOM     23  C   UNL     1      -0.060   3.278  26.722  0.00  0.00    +0.021 A 
ATOM     24  C   UNL     1      -2.029   3.633  28.072  0.00  0.00    +0.013 A 
ATOM     25  C   UNL     1       0.682   2.930  27.863  0.00  0.00    -0.017 A 
ATOM     26  C   UNL     1      -1.309   3.291  29.216  0.00  0.00    +0.009 A 
ATOM     27  C   UNL     1       0.048   2.937  29.128  0.00  0.00    -0.018 A 
ATOM     29  C   UNL     1       2.038   2.576  27.776  0.00  0.00    +0.008 A 
ATOM     30  C   UNL     1       0.789   2.590  30.270  0.00  0.00    +0.008 A 
ATOM     32  C   UNL     1       2.759   2.234  28.920  0.00  0.00    +0.001 A 
ATOM     33  C   UNL     1       2.136   2.240  30.165  0.00  0.00    +0.001 A 
ENDBRANCH  19  22
BRANCH  20   9
ATOM      9  N   UNL     1       0.988  -0.982  23.563  0.00  0.00    -0.211 N 
ATOM     36  H   UNL     1       1.454  -1.563  24.273  0.00  0.00    +0.174 HD
BRANCH   9   1
ATOM      1  S   UNL     1       1.992   0.105  22.744  0.00  0.00    +0.079 S 
ATOM      5  O   UNL     1       1.933  -0.154  21.317  0.00  0.00    -0.149 OA
ATOM      6  O   UNL     1       1.777   1.446  23.252  0.00  0.00    -0.149 OA
BRANCH   1  28
ATOM      2  S   UNL     1       4.814   0.748  23.164  0.00  0.00    -0.077 S 
ATOM     28  C   UNL     1       3.581  -0.426  23.310  0.00  0.00    +0.146 A 
ATOM     31  C   UNL     1       4.034  -1.602  23.851  0.00  0.00    +0.036 A 
ATOM     34  C   UNL     1       5.424  -1.543  24.153  0.00  0.00    +0.010 A 
ATOM     35  C   UNL     1       5.973  -0.322  23.830  0.00  0.00    +0.047 A 
ENDBRANCH   1  28
ENDBRANCH   9   1
ENDBRANCH  20   9
TORSDOF 4
ENDMDL
MODEL 6
REMARK VINA RESULT:      12.4      3.043      5.612
REMARK  Name = 7051348
REMARK  4 active torsions:
REMARK  status: ('A' for Active; 'I' for Inactive)
REMARK    1  A    between atoms: S_1  and  N_9
REMARK    2  A    between atoms: S_1  and  C_28
REMARK    3  A    between atoms: N_9  and  C_20
REMARK    4  A    between atoms: C_19  and  C_22
REMARK                            x       y       z     vdW  Elec       q    Type
REMARK                         _______ _______ _______ _____ _____    ______ ____
ROOT
ATOM      3  O   UNL     1      -3.168   0.507  22.140  0.00  0.00    -0.266 OA
ATOM      4  O   UNL     1      -0.191   4.326  23.983  0.00  0.00    -0.270 OA
ATOM      7  N   UNL     1      -2.300   4.529  24.976  0.00  0.00    -0.297 N 
ATOM      8  N   UNL     1      -3.832   2.005  23.815  0.00  0.00    -0.310 N 
ATOM     10  C   UNL     1      -4.213   4.501  23.384  0.00  0.00    +0.027 C 
ATOM     11  C   UNL     1      -4.497   3.593  25.656  0.00  0.00    +0.054 C 
ATOM     12  C   UNL     1      -5.180   4.411  24.561  0.00  0.00    +0.018 C 
ATOM     13  C   UNL     1      -2.904   5.184  23.816  0.00  0.00    +0.113 C 
ATOM     14  C   UNL     1      -3.973   3.090  22.833  0.00  0.00    +0.130 C 
ATOM     15  C   UNL     1      -3.212   4.312  26.111  0.00  0.00    +0.117 C 
ATOM     16  C   UNL     1      -4.157   2.199  25.165  0.00  0.00    +0.027 A 
ATOM     17  C   UNL     1      -4.129   1.165  26.027  0.00  0.00    +0.024 A 
ATOM     18  C   UNL     1      -3.450   0.742  23.314  0.00  0.00    +0.274 A 
ATOM     19  C   UNL     1      -0.957   4.147  24.929  0.00  0.00    +0.247 C 
ATOM     20  C   UNL     1      -3.416  -0.351  24.318  0.00  0.00    +0.112 A 
ATOM     21  C   UNL     1      -3.746  -0.151  25.594  0.00  0.00    +0.031 A 
ENDROOT
BRANCH  19  22
ATOM     22  C   UNL     1      -0.399   3.453  26.094  0.00  0.00    +0.037 A 
ATOM     23  C   UNL     1       0.846   3.826  26.592  0.00  0.00    +0.021 A 
ATOM     24  C   UNL     1      -1.117   2.426  26.695  0.00  0.00    +0.013 A 
ATOM     25  C   UNL     1       1.395   3.172  27.708  0.00  0.00    -0.017 A 
ATOM     26  C   UNL     1      -0.589   1.765  27.804  0.00  0.00    +0.009 A 
ATOM     27  C   UNL     1       0.666   2.126  28.323  0.00  0.00    -0.018 A 
ATOM     29  C   UNL     1       2.649   3.533  28.226  0.00  0.00    +0.008 A 
ATOM     30  C   UNL     1       1.213   1.471  29.439  0.00  0.00    +0.008 A 
ATOM     32  C   UNL     1       3.178   2.871  29.335  0.00  0.00    +0.001 A 
ATOM     33  C   UNL     1       2.461   1.843  29.940  0.00  0.00    +0.001 A 
ENDBRANCH  19  22
BRANCH  20   9
ATOM      9  N   UNL     1      -3.035  -1.650  23.937  0.00  0.00    -0.211 N 
ATOM     36  H   UNL     1      -3.805  -2.333  23.951  0.00  0.00    +0.174 HD
BRANCH   9   1
ATOM      1  S   UNL     1      -1.551  -2.219  24.517  0.00  0.00    +0.079 S 
ATOM      5  O   UNL     1      -1.584  -2.283  25.966  0.00  0.00    -0.149 OA
ATOM      6  O   UNL     1      -1.135  -3.374  23.744  0.00  0.00    -0.149 OA
BRANCH   1  28
ATOM      2  S   UNL     1       0.314  -1.072  22.579  0.00  0.00    -0.077 S 
ATOM     28  C   UNL     1      -0.489  -0.876  24.073  0.00  0.00    +0.146 A 
ATOM     31  C   UNL     1      -0.173   0.306  24.691  0.00  0.00    +0.036 A 
ATOM     34  C   UNL     1       0.750   1.073  23.923  0.00  0.00    +0.010 A 
ATOM     35  C   UNL     1       1.098   0.440  22.750  0.00  0.00    +0.047 A 
ENDBRANCH   1  28
ENDBRANCH   9   1
ENDBRANCH  20   9
TORSDOF 4
ENDMDL
