MODEL 1
REMARK VINA RESULT:      -5.5      0.000      0.000
REMARK  Name = 75536531
REMARK  11 active torsions:
REMARK  status: ('A' for Active; 'I' for Inactive)
REMARK    1  A    between atoms: O_3  and  C_8
REMARK    2  A    between atoms: N_5  and  C_7
REMARK    3  A    between atoms: N_5  and  C_13
REMARK    4  A    between atoms: N_6  and  C_11
REMARK    5  A    between atoms: C_9  and  C_11
REMARK    6  A    between atoms: C_12  and  C_14
REMARK    7  A    between atoms: C_12  and  C_16
REMARK    8  A    between atoms: C_12  and  C_17
REMARK    9  A    between atoms: C_12  and  C_18
REMARK   10  A    between atoms: C_13  and  C_19
REMARK   11  A    between atoms: C_14  and  C_15
REMARK                            x       y       z     vdW  Elec       q    Type
REMARK                         _______ _______ _______ _____ _____    ______ ____
ROOT
ATOM      2  O   UNL     1      -3.106   3.939  23.451  0.00  0.00    -0.371 OA
ATOM      7  C   UNL     1      -4.842   2.868  24.669  0.00  0.00    +0.111 C 
ATOM      8  C   UNL     1      -3.767   3.324  25.637  0.00  0.00    +0.164 C 
ATOM      9  C   UNL     1      -3.064   4.395  24.814  0.00  0.00    +0.165 C 
ATOM     10  C   UNL     1      -4.089   2.893  23.349  0.00  0.00    +0.181 C 
ENDROOT
BRANCH   8   3
ATOM      3  O   UNL     1      -4.300   3.848  26.838  0.00  0.00    -0.388 OA
ATOM     27  H   UNL     1      -3.737   4.587  27.126  0.00  0.00    +0.210 HD
ENDBRANCH   8   3
BRANCH   7   5
ATOM      5  N   UNL     1      -5.394   1.560  24.981  0.00  0.00    -0.305 NA
ATOM     25  H   UNL     1      -5.544   1.047  24.113  0.00  0.00    +0.123 HD
BRANCH   5  13
ATOM     13  C   UNL     1      -4.487   0.797  25.830  0.00  0.00    +0.119 C 
BRANCH  13  19
ATOM      1  F   UNL     1      -3.186  -1.263  27.275  0.00  0.00    -0.205 F 
ATOM     19  C   UNL     1      -4.153  -0.544  25.230  0.00  0.00    +0.002 A 
ATOM     20  C   UNL     1      -3.511  -1.513  26.000  0.00  0.00    +0.128 A 
ATOM     21  C   UNL     1      -4.487  -0.814  23.903  0.00  0.00    +0.008 A 
ATOM     22  C   UNL     1      -3.203  -2.754  25.442  0.00  0.00    +0.038 A 
ATOM     23  C   UNL     1      -4.179  -2.054  23.345  0.00  0.00    +0.000 A 
ATOM     24  C   UNL     1      -3.537  -3.025  24.114  0.00  0.00    +0.003 A 
ENDBRANCH  13  19
ENDBRANCH   5  13
ENDBRANCH   7   5
BRANCH   9  11
ATOM     11  C   UNL     1      -1.623   4.626  25.234  0.00  0.00    +0.138 C 
BRANCH  11   6
ATOM      4  O   UNL     1      -0.504   2.258  26.470  0.00  0.00    -0.276 OA
ATOM      6  N   UNL     1      -0.735   3.659  24.631  0.00  0.00    -0.313 N 
ATOM     15  C   UNL     1      -0.248   2.552  25.304  0.00  0.00    +0.214 C 
ATOM     26  H   UNL     1      -0.471   3.807  23.661  0.00  0.00    +0.149 HD
BRANCH  15  14
ATOM     14  C   UNL     1       0.673   1.695  24.451  0.00  0.00    +0.102 C 
BRANCH  14  12
ATOM     12  C   UNL     1      -0.006   0.472  23.792  0.00  0.00    -0.029 C 
ATOM     16  C   UNL     1      -0.308  -0.628  24.823  0.00  0.00    +0.011 C 
ATOM     17  C   UNL     1      -1.310   0.876  23.084  0.00  0.00    +0.011 C 
ATOM     18  C   UNL     1       0.962  -0.102  22.739  0.00  0.00    +0.011 C 
ENDBRANCH  14  12
ENDBRANCH  15  14
ENDBRANCH  11   6
ENDBRANCH   9  11
TORSDOF 8
ENDMDL
MODEL 2
REMARK VINA RESULT:      -5.1      2.139      4.377
REMARK  Name = 75536531
REMARK  11 active torsions:
REMARK  status: ('A' for Active; 'I' for Inactive)
REMARK    1  A    between atoms: O_3  and  C_8
REMARK    2  A    between atoms: N_5  and  C_7
REMARK    3  A    between atoms: N_5  and  C_13
REMARK    4  A    between atoms: N_6  and  C_11
REMARK    5  A    between atoms: C_9  and  C_11
REMARK    6  A    between atoms: C_12  and  C_14
REMARK    7  A    between atoms: C_12  and  C_16
REMARK    8  A    between atoms: C_12  and  C_17
REMARK    9  A    between atoms: C_12  and  C_18
REMARK   10  A    between atoms: C_13  and  C_19
REMARK   11  A    between atoms: C_14  and  C_15
REMARK                            x       y       z     vdW  Elec       q    Type
REMARK                         _______ _______ _______ _____ _____    ______ ____
ROOT
ATOM      2  O   UNL     1       0.128   3.477  23.601  0.00  0.00    -0.371 OA
ATOM      7  C   UNL     1      -0.999   4.100  25.598  0.00  0.00    +0.111 C 
ATOM      8  C   UNL     1      -0.640   2.627  25.671  0.00  0.00    +0.164 C 
ATOM      9  C   UNL     1       0.477   2.546  24.639  0.00  0.00    +0.165 C 
ATOM     10  C   UNL     1      -0.888   4.362  24.105  0.00  0.00    +0.181 C 
ENDROOT
BRANCH   8   3
ATOM      3  O   UNL     1      -0.199   2.236  26.957  0.00  0.00    -0.388 OA
ATOM     27  H   UNL     1       0.753   2.422  27.024  0.00  0.00    +0.210 HD
ENDBRANCH   8   3
BRANCH   7   5
ATOM      5  N   UNL     1      -2.317   4.407  26.130  0.00  0.00    -0.305 NA
ATOM     25  H   UNL     1      -2.273   5.292  26.635  0.00  0.00    +0.123 HD
BRANCH   5  13
ATOM     13  C   UNL     1      -3.302   4.521  25.061  0.00  0.00    +0.119 C 
BRANCH  13  19
ATOM      1  F   UNL     1      -3.373   2.422  23.161  0.00  0.00    -0.205 F 
ATOM     19  C   UNL     1      -4.311   3.404  25.108  0.00  0.00    +0.002 A 
ATOM     20  C   UNL     1      -4.289   2.401  24.139  0.00  0.00    +0.128 A 
ATOM     21  C   UNL     1      -5.268   3.373  26.122  0.00  0.00    +0.008 A 
ATOM     22  C   UNL     1      -5.224   1.367  24.185  0.00  0.00    +0.038 A 
ATOM     23  C   UNL     1      -6.203   2.340  26.168  0.00  0.00    +0.000 A 
ATOM     24  C   UNL     1      -6.182   1.337  25.199  0.00  0.00    +0.003 A 
ENDBRANCH  13  19
ENDBRANCH   5  13
ENDBRANCH   7   5
BRANCH   9  11
ATOM     11  C   UNL     1       0.647   1.157  24.048  0.00  0.00    +0.138 C 
BRANCH  11   6
ATOM      4  O   UNL     1      -0.163  -1.458  23.102  0.00  0.00    -0.276 OA
ATOM      6  N   UNL     1      -0.157   0.183  24.748  0.00  0.00    -0.313 N 
ATOM     15  C   UNL     1      -0.496  -1.048  24.213  0.00  0.00    +0.214 C 
ATOM     26  H   UNL     1      -0.475   0.422  25.683  0.00  0.00    +0.149 HD
BRANCH  15  14
ATOM     14  C   UNL     1      -1.355  -1.887  25.145  0.00  0.00    +0.102 C 
BRANCH  14  12
ATOM     12  C   UNL     1      -2.876  -1.788  24.888  0.00  0.00    -0.029 C 
ATOM     16  C   UNL     1      -3.184  -0.925  23.653  0.00  0.00    +0.011 C 
ATOM     17  C   UNL     1      -3.499  -3.181  24.702  0.00  0.00    +0.011 C 
ATOM     18  C   UNL     1      -3.526  -1.125  26.119  0.00  0.00    +0.011 C 
ENDBRANCH  14  12
ENDBRANCH  15  14
ENDBRANCH  11   6
ENDBRANCH   9  11
TORSDOF 8
ENDMDL
MODEL 3
REMARK VINA RESULT:      -5.0      1.768      4.345
REMARK  Name = 75536531
REMARK  11 active torsions:
REMARK  status: ('A' for Active; 'I' for Inactive)
REMARK    1  A    between atoms: O_3  and  C_8
REMARK    2  A    between atoms: N_5  and  C_7
REMARK    3  A    between atoms: N_5  and  C_13
REMARK    4  A    between atoms: N_6  and  C_11
REMARK    5  A    between atoms: C_9  and  C_11
REMARK    6  A    between atoms: C_12  and  C_14
REMARK    7  A    between atoms: C_12  and  C_16
REMARK    8  A    between atoms: C_12  and  C_17
REMARK    9  A    between atoms: C_12  and  C_18
REMARK   10  A    between atoms: C_13  and  C_19
REMARK   11  A    between atoms: C_14  and  C_15
REMARK                            x       y       z     vdW  Elec       q    Type
REMARK                         _______ _______ _______ _____ _____    ______ ____
ROOT
ATOM      2  O   UNL     1      -1.010   2.957  26.420  0.00  0.00    -0.371 OA
ATOM      7  C   UNL     1       0.043   1.768  24.653  0.00  0.00    +0.111 C 
ATOM      8  C   UNL     1      -0.560   3.045  24.100  0.00  0.00    +0.164 C 
ATOM      9  C   UNL     1      -0.692   3.881  25.366  0.00  0.00    +0.165 C 
ATOM     10  C   UNL     1      -0.708   1.626  25.967  0.00  0.00    +0.181 C 
ENDROOT
BRANCH   8   3
ATOM      3  O   UNL     1       0.270   3.670  23.140  0.00  0.00    -0.388 OA
ATOM     27  H   UNL     1      -0.251   4.348  22.679  0.00  0.00    +0.210 HD
ENDBRANCH   8   3
BRANCH   7   5
ATOM      5  N   UNL     1      -0.121   0.618  23.780  0.00  0.00    -0.305 NA
ATOM     25  H   UNL     1       0.724   0.503  23.220  0.00  0.00    +0.123 HD
BRANCH   5  13
ATOM     13  C   UNL     1      -0.346  -0.599  24.550  0.00  0.00    +0.119 C 
BRANCH  13  19
ATOM      1  F   UNL     1      -1.102  -3.213  25.337  0.00  0.00    -0.205 F 
ATOM     19  C   UNL     1      -1.725  -1.160  24.322  0.00  0.00    +0.002 A 
ATOM     20  C   UNL     1      -2.029  -2.457  24.735  0.00  0.00    +0.128 A 
ATOM     21  C   UNL     1      -2.697  -0.380  23.696  0.00  0.00    +0.008 A 
ATOM     22  C   UNL     1      -3.307  -2.973  24.523  0.00  0.00    +0.038 A 
ATOM     23  C   UNL     1      -3.975  -0.896  23.485  0.00  0.00    +0.000 A 
ATOM     24  C   UNL     1      -4.281  -2.193  23.897  0.00  0.00    +0.003 A 
ENDBRANCH  13  19
ENDBRANCH   5  13
ENDBRANCH   7   5
BRANCH   9  11
ATOM     11  C   UNL     1      -1.771   4.946  25.273  0.00  0.00    +0.138 C 
BRANCH  11   6
ATOM      4  O   UNL     1      -3.989   3.822  23.787  0.00  0.00    -0.276 OA
ATOM      6  N   UNL     1      -3.029   4.470  25.802  0.00  0.00    -0.313 N 
ATOM     15  C   UNL     1      -4.036   3.947  25.009  0.00  0.00    +0.214 C 
ATOM     26  H   UNL     1      -3.163   4.521  26.807  0.00  0.00    +0.149 HD
BRANCH  15  14
ATOM     14  C   UNL     1      -5.261   3.526  25.805  0.00  0.00    +0.102 C 
BRANCH  14  12
ATOM     12  C   UNL     1      -5.623   2.027  25.693  0.00  0.00    -0.029 C 
ATOM     16  C   UNL     1      -6.492   1.749  24.455  0.00  0.00    +0.011 C 
ATOM     17  C   UNL     1      -4.358   1.154  25.632  0.00  0.00    +0.011 C 
ATOM     18  C   UNL     1      -6.426   1.634  26.949  0.00  0.00    +0.011 C 
ENDBRANCH  14  12
ENDBRANCH  15  14
ENDBRANCH  11   6
ENDBRANCH   9  11
TORSDOF 8
ENDMDL
MODEL 4
REMARK VINA RESULT:      -4.5      2.304      4.292
REMARK  Name = 75536531
REMARK  11 active torsions:
REMARK  status: ('A' for Active; 'I' for Inactive)
REMARK    1  A    between atoms: O_3  and  C_8
REMARK    2  A    between atoms: N_5  and  C_7
REMARK    3  A    between atoms: N_5  and  C_13
REMARK    4  A    between atoms: N_6  and  C_11
REMARK    5  A    between atoms: C_9  and  C_11
REMARK    6  A    between atoms: C_12  and  C_14
REMARK    7  A    between atoms: C_12  and  C_16
REMARK    8  A    between atoms: C_12  and  C_17
REMARK    9  A    between atoms: C_12  and  C_18
REMARK   10  A    between atoms: C_13  and  C_19
REMARK   11  A    between atoms: C_14  and  C_15
REMARK                            x       y       z     vdW  Elec       q    Type
REMARK                         _______ _______ _______ _____ _____    ______ ____
ROOT
ATOM      2  O   UNL     1       0.136   3.486  23.596  0.00  0.00    -0.371 OA
ATOM      7  C   UNL     1      -0.964   4.043  25.627  0.00  0.00    +0.111 C 
ATOM      8  C   UNL     1      -0.521   2.593  25.685  0.00  0.00    +0.164 C 
ATOM      9  C   UNL     1       0.567   2.575  24.621  0.00  0.00    +0.165 C 
ATOM     10  C   UNL     1      -0.912   4.313  24.132  0.00  0.00    +0.181 C 
ENDROOT
BRANCH   8   3
ATOM      3  O   UNL     1      -0.021   2.226  26.956  0.00  0.00    -0.388 OA
ATOM     27  H   UNL     1       0.567   2.933  27.271  0.00  0.00    +0.210 HD
ENDBRANCH   8   3
BRANCH   7   5
ATOM      5  N   UNL     1      -2.280   4.276  26.199  0.00  0.00    -0.305 NA
ATOM     25  H   UNL     1      -2.248   5.118  26.775  0.00  0.00    +0.123 HD
BRANCH   5  13
ATOM     13  C   UNL     1      -3.283   4.455  25.156  0.00  0.00    +0.119 C 
BRANCH  13  19
ATOM      1  F   UNL     1      -6.020   4.812  25.788  0.00  0.00    -0.205 F 
ATOM     19  C   UNL     1      -4.283   3.329  25.141  0.00  0.00    +0.002 A 
ATOM     20  C   UNL     1      -5.617   3.576  25.464  0.00  0.00    +0.128 A 
ATOM     21  C   UNL     1      -3.873   2.039  24.805  0.00  0.00    +0.008 A 
ATOM     22  C   UNL     1      -6.542   2.532  25.449  0.00  0.00    +0.038 A 
ATOM     23  C   UNL     1      -4.798   0.995  24.791  0.00  0.00    +0.000 A 
ATOM     24  C   UNL     1      -6.132   1.241  25.113  0.00  0.00    +0.003 A 
ENDBRANCH  13  19
ENDBRANCH   5  13
ENDBRANCH   7   5
BRANCH   9  11
ATOM     11  C   UNL     1       0.797   1.199  24.021  0.00  0.00    +0.138 C 
BRANCH  11   6
ATOM      4  O   UNL     1      -0.570  -0.958  25.389  0.00  0.00    -0.276 OA
ATOM      6  N   UNL     1      -0.449   0.572  23.644  0.00  0.00    -0.313 N 
ATOM     15  C   UNL     1      -1.029  -0.459  24.363  0.00  0.00    +0.214 C 
ATOM     26  H   UNL     1      -0.916   0.921  22.812  0.00  0.00    +0.149 HD
BRANCH  15  14
ATOM     14  C   UNL     1      -2.332  -0.950  23.754  0.00  0.00    +0.102 C 
BRANCH  14  12
ATOM     12  C   UNL     1      -3.028  -2.084  24.542  0.00  0.00    -0.029 C 
ATOM     16  C   UNL     1      -3.307  -1.670  25.996  0.00  0.00    +0.011 C 
ATOM     17  C   UNL     1      -4.347  -2.497  23.869  0.00  0.00    +0.011 C 
ATOM     18  C   UNL     1      -2.086  -3.303  24.556  0.00  0.00    +0.011 C 
ENDBRANCH  14  12
ENDBRANCH  15  14
ENDBRANCH  11   6
ENDBRANCH   9  11
TORSDOF 8
ENDMDL
MODEL 5
REMARK VINA RESULT:      -4.0      3.030      4.240
REMARK  Name = 75536531
REMARK  11 active torsions:
REMARK  status: ('A' for Active; 'I' for Inactive)
REMARK    1  A    between atoms: O_3  and  C_8
REMARK    2  A    between atoms: N_5  and  C_7
REMARK    3  A    between atoms: N_5  and  C_13
REMARK    4  A    between atoms: N_6  and  C_11
REMARK    5  A    between atoms: C_9  and  C_11
REMARK    6  A    between atoms: C_12  and  C_14
REMARK    7  A    between atoms: C_12  and  C_16
REMARK    8  A    between atoms: C_12  and  C_17
REMARK    9  A    between atoms: C_12  and  C_18
REMARK   10  A    between atoms: C_13  and  C_19
REMARK   11  A    between atoms: C_14  and  C_15
REMARK                            x       y       z     vdW  Elec       q    Type
REMARK                         _______ _______ _______ _____ _____    ______ ____
ROOT
ATOM      2  O   UNL     1       0.165   3.552  23.875  0.00  0.00    -0.371 OA
ATOM      7  C   UNL     1      -1.383   3.521  25.676  0.00  0.00    +0.111 C 
ATOM      8  C   UNL     1      -0.898   2.107  25.416  0.00  0.00    +0.164 C 
ATOM      9  C   UNL     1       0.400   2.375  24.666  0.00  0.00    +0.165 C 
ATOM     10  C   UNL     1      -1.013   4.210  24.373  0.00  0.00    +0.181 C 
ENDROOT
BRANCH   8   3
ATOM      3  O   UNL     1      -0.676   1.378  26.608  0.00  0.00    -0.388 OA
ATOM     27  H   UNL     1      -0.677   2.001  27.353  0.00  0.00    +0.210 HD
ENDBRANCH   8   3
BRANCH   7   5
ATOM      5  N   UNL     1      -2.803   3.605  25.978  0.00  0.00    -0.305 NA
ATOM     25  H   UNL     1      -3.012   4.538  26.335  0.00  0.00    +0.123 HD
BRANCH   5  13
ATOM     13  C   UNL     1      -3.608   3.363  24.787  0.00  0.00    +0.119 C 
BRANCH  13  19
ATOM      1  F   UNL     1      -2.485   2.093  22.518  0.00  0.00    -0.205 F 
ATOM     19  C   UNL     1      -3.766   1.892  24.506  0.00  0.00    +0.002 A 
ATOM     20  C   UNL     1      -3.186   1.331  23.369  0.00  0.00    +0.128 A 
ATOM     21  C   UNL     1      -4.494   1.091  25.386  0.00  0.00    +0.008 A 
ATOM     22  C   UNL     1      -3.333  -0.032  23.112  0.00  0.00    +0.038 A 
ATOM     23  C   UNL     1      -4.642  -0.272  25.129  0.00  0.00    +0.000 A 
ATOM     24  C   UNL     1      -4.062  -0.834  23.991  0.00  0.00    +0.003 A 
ENDBRANCH  13  19
ENDBRANCH   5  13
ENDBRANCH   7   5
BRANCH   9  11
ATOM     11  C   UNL     1       0.821   1.226  23.766  0.00  0.00    +0.138 C 
BRANCH  11   6
ATOM      4  O   UNL     1       2.261  -0.208  21.702  0.00  0.00    -0.276 OA
ATOM      6  N   UNL     1       2.243   1.247  23.515  0.00  0.00    -0.313 N 
ATOM     15  C   UNL     1       2.846   0.523  22.499  0.00  0.00    +0.214 C 
ATOM     26  H   UNL     1       2.817   1.832  24.115  0.00  0.00    +0.149 HD
BRANCH  15  14
ATOM     14  C   UNL     1       4.353   0.709  22.450  0.00  0.00    +0.102 C 
BRANCH  14  12
ATOM     12  C   UNL     1       5.145  -0.154  23.461  0.00  0.00    -0.029 C 
ATOM     16  C   UNL     1       5.439   0.623  24.755  0.00  0.00    +0.011 C 
ATOM     17  C   UNL     1       4.383  -1.444  23.805  0.00  0.00    +0.011 C 
ATOM     18  C   UNL     1       6.488  -0.540  22.810  0.00  0.00    +0.011 C 
ENDBRANCH  14  12
ENDBRANCH  15  14
ENDBRANCH  11   6
ENDBRANCH   9  11
TORSDOF 8
ENDMDL
MODEL 6
REMARK VINA RESULT:      -4.0      2.553      6.125
REMARK  Name = 75536531
REMARK  11 active torsions:
REMARK  status: ('A' for Active; 'I' for Inactive)
REMARK    1  A    between atoms: O_3  and  C_8
REMARK    2  A    between atoms: N_5  and  C_7
REMARK    3  A    between atoms: N_5  and  C_13
REMARK    4  A    between atoms: N_6  and  C_11
REMARK    5  A    between atoms: C_9  and  C_11
REMARK    6  A    between atoms: C_12  and  C_14
REMARK    7  A    between atoms: C_12  and  C_16
REMARK    8  A    between atoms: C_12  and  C_17
REMARK    9  A    between atoms: C_12  and  C_18
REMARK   10  A    between atoms: C_13  and  C_19
REMARK   11  A    between atoms: C_14  and  C_15
REMARK                            x       y       z     vdW  Elec       q    Type
REMARK                         _______ _______ _______ _____ _____    ______ ____
ROOT
ATOM      2  O   UNL     1      -2.104  -2.782  24.018  0.00  0.00    -0.371 OA
ATOM      7  C   UNL     1      -0.195  -1.479  24.569  0.00  0.00    +0.111 C 
ATOM      8  C   UNL     1      -1.354  -1.058  25.454  0.00  0.00    +0.164 C 
ATOM      9  C   UNL     1      -2.257  -2.280  25.357  0.00  0.00    +0.165 C 
ATOM     10  C   UNL     1      -0.922  -2.197  23.444  0.00  0.00    +0.181 C 
ENDROOT
BRANCH   8   3
ATOM      3  O   UNL     1      -0.958  -0.801  26.787  0.00  0.00    -0.388 OA
ATOM     27  H   UNL     1      -0.838   0.158  26.891  0.00  0.00    +0.210 HD
ENDBRANCH   8   3
BRANCH   7   5
ATOM      5  N   UNL     1       0.617  -0.368  24.101  0.00  0.00    -0.305 NA
ATOM     25  H   UNL     1       1.392  -0.733  23.547  0.00  0.00    +0.123 HD
BRANCH   5  13
ATOM     13  C   UNL     1      -0.166   0.543  23.276  0.00  0.00    +0.119 C 
BRANCH  13  19
ATOM      1  F   UNL     1      -2.218   2.292  22.408  0.00  0.00    -0.205 F 
ATOM     19  C   UNL     1      -0.566   1.782  24.033  0.00  0.00    +0.002 A 
ATOM     20  C   UNL     1      -1.586   2.600  23.548  0.00  0.00    +0.128 A 
ATOM     21  C   UNL     1       0.087   2.111  25.221  0.00  0.00    +0.008 A 
ATOM     22  C   UNL     1      -1.954   3.746  24.251  0.00  0.00    +0.038 A 
ATOM     23  C   UNL     1      -0.281   3.258  25.925  0.00  0.00    +0.000 A 
ATOM     24  C   UNL     1      -1.301   4.076  25.440  0.00  0.00    +0.003 A 
ENDBRANCH  13  19
ENDBRANCH   5  13
ENDBRANCH   7   5
BRANCH   9  11
ATOM     11  C   UNL     1      -3.719  -1.968  25.624  0.00  0.00    +0.138 C 
BRANCH  11   6
ATOM      4  O   UNL     1      -4.065   0.111  23.638  0.00  0.00    -0.276 OA
ATOM      6  N   UNL     1      -3.924  -0.557  25.859  0.00  0.00    -0.313 N 
ATOM     15  C   UNL     1      -4.079   0.367  24.840  0.00  0.00    +0.214 C 
ATOM     26  H   UNL     1      -3.962  -0.244  26.824  0.00  0.00    +0.149 HD
BRANCH  15  14
ATOM     14  C   UNL     1      -4.272   1.786  25.349  0.00  0.00    +0.102 C 
BRANCH  14  12
ATOM     12  C   UNL     1      -5.746   2.207  25.552  0.00  0.00    -0.029 C 
ATOM     16  C   UNL     1      -6.644   1.674  24.424  0.00  0.00    +0.011 C 
ATOM     17  C   UNL     1      -6.282   1.711  26.905  0.00  0.00    +0.011 C 
ATOM     18  C   UNL     1      -5.809   3.747  25.538  0.00  0.00    +0.011 C 
ENDBRANCH  14  12
ENDBRANCH  15  14
ENDBRANCH  11   6
ENDBRANCH   9  11
TORSDOF 8
ENDMDL
MODEL 7
REMARK VINA RESULT:      -4.0      3.188      6.601
REMARK  Name = 75536531
REMARK  11 active torsions:
REMARK  status: ('A' for Active; 'I' for Inactive)
REMARK    1  A    between atoms: O_3  and  C_8
REMARK    2  A    between atoms: N_5  and  C_7
REMARK    3  A    between atoms: N_5  and  C_13
REMARK    4  A    between atoms: N_6  and  C_11
REMARK    5  A    between atoms: C_9  and  C_11
REMARK    6  A    between atoms: C_12  and  C_14
REMARK    7  A    between atoms: C_12  and  C_16
REMARK    8  A    between atoms: C_12  and  C_17
REMARK    9  A    between atoms: C_12  and  C_18
REMARK   10  A    between atoms: C_13  and  C_19
REMARK   11  A    between atoms: C_14  and  C_15
REMARK                            x       y       z     vdW  Elec       q    Type
REMARK                         _______ _______ _______ _____ _____    ______ ____
ROOT
ATOM      2  O   UNL     1      -1.715  -2.179  24.274  0.00  0.00    -0.371 OA
ATOM      7  C   UNL     1       0.059  -0.599  24.312  0.00  0.00    +0.111 C 
ATOM      8  C   UNL     1      -1.088  -0.075  25.156  0.00  0.00    +0.164 C 
ATOM      9  C   UNL     1      -1.848  -1.362  25.449  0.00  0.00    +0.165 C 
ATOM     10  C   UNL     1      -0.642  -1.653  23.471  0.00  0.00    +0.181 C 
ENDROOT
BRANCH   8   3
ATOM      3  O   UNL     1      -0.649   0.559  26.341  0.00  0.00    -0.388 OA
ATOM     27  H   UNL     1      -1.330   0.437  27.024  0.00  0.00    +0.210 HD
ENDBRANCH   8   3
BRANCH   7   5
ATOM      5  N   UNL     1       0.709   0.425  23.510  0.00  0.00    -0.305 NA
ATOM     25  H   UNL     1       1.255   1.031  24.123  0.00  0.00    +0.123 HD
BRANCH   5  13
ATOM     13  C   UNL     1       1.599  -0.170  22.520  0.00  0.00    +0.119 C 
BRANCH  13  19
ATOM      1  F   UNL     1       3.370   2.041  22.517  0.00  0.00    -0.205 F 
ATOM     19  C   UNL     1       3.017  -0.252  23.019  0.00  0.00    +0.002 A 
ATOM     20  C   UNL     1       3.836   0.876  22.988  0.00  0.00    +0.128 A 
ATOM     21  C   UNL     1       3.512  -1.460  23.511  0.00  0.00    +0.008 A 
ATOM     22  C   UNL     1       5.149   0.797  23.451  0.00  0.00    +0.038 A 
ATOM     23  C   UNL     1       4.825  -1.539  23.974  0.00  0.00    +0.000 A 
ATOM     24  C   UNL     1       5.644  -0.411  23.944  0.00  0.00    +0.003 A 
ENDBRANCH  13  19
ENDBRANCH   5  13
ENDBRANCH   7   5
BRANCH   9  11
ATOM     11  C   UNL     1      -3.319  -1.134  25.752  0.00  0.00    +0.138 C 
BRANCH  11   6
ATOM      4  O   UNL     1      -5.406   0.162  24.218  0.00  0.00    -0.276 OA
ATOM      6  N   UNL     1      -3.650   0.272  25.736  0.00  0.00    -0.313 N 
ATOM     15  C   UNL     1      -4.671   0.803  24.966  0.00  0.00    +0.214 C 
ATOM     26  H   UNL     1      -3.105   0.888  26.331  0.00  0.00    +0.149 HD
BRANCH  15  14
ATOM     14  C   UNL     1      -4.811   2.309  25.121  0.00  0.00    +0.102 C 
BRANCH  14  12
ATOM     12  C   UNL     1      -3.668   3.134  24.485  0.00  0.00    -0.029 C 
ATOM     16  C   UNL     1      -4.185   4.466  23.916  0.00  0.00    +0.011 C 
ATOM     17  C   UNL     1      -2.553   3.416  25.505  0.00  0.00    +0.011 C 
ATOM     18  C   UNL     1      -3.071   2.311  23.327  0.00  0.00    +0.011 C 
ENDBRANCH  14  12
ENDBRANCH  15  14
ENDBRANCH  11   6
ENDBRANCH   9  11
TORSDOF 8
ENDMDL
MODEL 8
REMARK VINA RESULT:      -3.7      1.715      2.379
REMARK  Name = 75536531
REMARK  11 active torsions:
REMARK  status: ('A' for Active; 'I' for Inactive)
REMARK    1  A    between atoms: O_3  and  C_8
REMARK    2  A    between atoms: N_5  and  C_7
REMARK    3  A    between atoms: N_5  and  C_13
REMARK    4  A    between atoms: N_6  and  C_11
REMARK    5  A    between atoms: C_9  and  C_11
REMARK    6  A    between atoms: C_12  and  C_14
REMARK    7  A    between atoms: C_12  and  C_16
REMARK    8  A    between atoms: C_12  and  C_17
REMARK    9  A    between atoms: C_12  and  C_18
REMARK   10  A    between atoms: C_13  and  C_19
REMARK   11  A    between atoms: C_14  and  C_15
REMARK                            x       y       z     vdW  Elec       q    Type
REMARK                         _______ _______ _______ _____ _____    ______ ____
ROOT
ATOM      2  O   UNL     1      -4.041   3.808  24.012  0.00  0.00    -0.371 OA
ATOM      7  C   UNL     1      -5.438   1.947  24.493  0.00  0.00    +0.111 C 
ATOM      8  C   UNL     1      -4.948   2.549  25.797  0.00  0.00    +0.164 C 
ATOM      9  C   UNL     1      -4.558   3.950  25.346  0.00  0.00    +0.165 C 
ATOM     10  C   UNL     1      -4.438   2.522  23.503  0.00  0.00    +0.181 C 
ENDROOT
BRANCH   8   3
ATOM      3  O   UNL     1      -5.950   2.577  26.795  0.00  0.00    -0.388 OA
ATOM     27  H   UNL     1      -6.781   2.873  26.387  0.00  0.00    +0.210 HD
ENDBRANCH   8   3
BRANCH   7   5
ATOM      5  N   UNL     1      -5.462   0.494  24.493  0.00  0.00    -0.305 NA
ATOM     25  H   UNL     1      -5.032   0.153  23.633  0.00  0.00    +0.123 HD
BRANCH   5  13
ATOM     13  C   UNL     1      -4.728  -0.044  25.633  0.00  0.00    +0.119 C 
BRANCH  13  19
ATOM      1  F   UNL     1      -5.073  -2.192  23.818  0.00  0.00    -0.205 F 
ATOM     19  C   UNL     1      -3.600  -0.943  25.199  0.00  0.00    +0.002 A 
ATOM     20  C   UNL     1      -3.841  -1.983  24.302  0.00  0.00    +0.128 A 
ATOM     21  C   UNL     1      -2.314  -0.734  25.696  0.00  0.00    +0.008 A 
ATOM     22  C   UNL     1      -2.795  -2.814  23.901  0.00  0.00    +0.038 A 
ATOM     23  C   UNL     1      -1.268  -1.565  25.296  0.00  0.00    +0.000 A 
ATOM     24  C   UNL     1      -1.508  -2.606  24.399  0.00  0.00    +0.003 A 
ENDBRANCH  13  19
ENDBRANCH   5  13
ENDBRANCH   7   5
BRANCH   9  11
ATOM     11  C   UNL     1      -3.511   4.597  26.236  0.00  0.00    +0.138 C 
BRANCH  11   6
ATOM      4  O   UNL     1      -1.412   5.741  24.601  0.00  0.00    -0.276 OA
ATOM      6  N   UNL     1      -2.197   4.050  25.989  0.00  0.00    -0.313 N 
ATOM     15  C   UNL     1      -1.254   4.672  25.187  0.00  0.00    +0.214 C 
ATOM     26  H   UNL     1      -1.963   3.170  26.439  0.00  0.00    +0.149 HD
BRANCH  15  14
ATOM     14  C   UNL     1       0.045   3.891  25.081  0.00  0.00    +0.102 C 
BRANCH  14  12
ATOM     12  C   UNL     1      -0.128   2.382  24.790  0.00  0.00    -0.029 C 
ATOM     16  C   UNL     1      -1.368   2.116  23.919  0.00  0.00    +0.011 C 
ATOM     17  C   UNL     1       1.115   1.805  24.093  0.00  0.00    +0.011 C 
ATOM     18  C   UNL     1      -0.314   1.654  26.135  0.00  0.00    +0.011 C 
ENDBRANCH  14  12
ENDBRANCH  15  14
ENDBRANCH  11   6
ENDBRANCH   9  11
TORSDOF 8
ENDMDL
MODEL 9
REMARK VINA RESULT:      -3.2      2.448      5.620
REMARK  Name = 75536531
REMARK  11 active torsions:
REMARK  status: ('A' for Active; 'I' for Inactive)
REMARK    1  A    between atoms: O_3  and  C_8
REMARK    2  A    between atoms: N_5  and  C_7
REMARK    3  A    between atoms: N_5  and  C_13
REMARK    4  A    between atoms: N_6  and  C_11
REMARK    5  A    between atoms: C_9  and  C_11
REMARK    6  A    between atoms: C_12  and  C_14
REMARK    7  A    between atoms: C_12  and  C_16
REMARK    8  A    between atoms: C_12  and  C_17
REMARK    9  A    between atoms: C_12  and  C_18
REMARK   10  A    between atoms: C_13  and  C_19
REMARK   11  A    between atoms: C_14  and  C_15
REMARK                            x       y       z     vdW  Elec       q    Type
REMARK                         _______ _______ _______ _____ _____    ______ ____
ROOT
ATOM      2  O   UNL     1      -3.991  -1.942  24.670  0.00  0.00    -0.371 OA
ATOM      7  C   UNL     1      -1.641  -1.662  24.876  0.00  0.00    +0.111 C 
ATOM      8  C   UNL     1      -2.317  -0.314  25.048  0.00  0.00    +0.164 C 
ATOM      9  C   UNL     1      -3.732  -0.740  25.415  0.00  0.00    +0.165 C 
ATOM     10  C   UNL     1      -2.737  -2.464  24.195  0.00  0.00    +0.181 C 
ENDROOT
BRANCH   8   3
ATOM      3  O   UNL     1      -1.723   0.470  26.063  0.00  0.00    -0.388 OA
ATOM     27  H   UNL     1      -0.820   0.143  26.214  0.00  0.00    +0.210 HD
ENDBRANCH   8   3
BRANCH   7   5
ATOM      5  N   UNL     1      -0.414  -1.605  24.099  0.00  0.00    -0.305 NA
ATOM     25  H   UNL     1      -0.347  -2.444  23.522  0.00  0.00    +0.123 HD
BRANCH   5  13
ATOM     13  C   UNL     1      -0.395  -0.433  23.231  0.00  0.00    +0.119 C 
BRANCH  13  19
ATOM      1  F   UNL     1       0.918   1.635  24.654  0.00  0.00    -0.205 F 
ATOM     19  C   UNL     1       1.009   0.013  22.923  0.00  0.00    +0.002 A 
ATOM     20  C   UNL     1       1.596   1.039  23.664  0.00  0.00    +0.128 A 
ATOM     21  C   UNL     1       1.723  -0.600  21.894  0.00  0.00    +0.008 A 
ATOM     22  C   UNL     1       2.897   1.450  23.376  0.00  0.00    +0.038 A 
ATOM     23  C   UNL     1       3.025  -0.189  21.606  0.00  0.00    +0.000 A 
ATOM     24  C   UNL     1       3.612   0.837  22.346  0.00  0.00    +0.003 A 
ENDBRANCH  13  19
ENDBRANCH   5  13
ENDBRANCH   7   5
BRANCH   9  11
ATOM     11  C   UNL     1      -4.780   0.307  25.080  0.00  0.00    +0.138 C 
BRANCH  11   6
ATOM      4  O   UNL     1      -5.247   2.970  26.118  0.00  0.00    -0.276 OA
ATOM      6  N   UNL     1      -4.172   1.539  24.636  0.00  0.00    -0.313 N 
ATOM     15  C   UNL     1      -4.459   2.773  25.195  0.00  0.00    +0.214 C 
ATOM     26  H   UNL     1      -3.495   1.483  23.881  0.00  0.00    +0.149 HD
BRANCH  15  14
ATOM     14  C   UNL     1      -3.694   3.914  24.545  0.00  0.00    +0.102 C 
BRANCH  14  12
ATOM     12  C   UNL     1      -2.210   4.021  24.966  0.00  0.00    -0.029 C 
ATOM     16  C   UNL     1      -1.294   3.254  23.997  0.00  0.00    +0.011 C 
ATOM     17  C   UNL     1      -1.758   5.489  25.037  0.00  0.00    +0.011 C 
ATOM     18  C   UNL     1      -2.065   3.398  26.368  0.00  0.00    +0.011 C 
ENDBRANCH  14  12
ENDBRANCH  15  14
ENDBRANCH  11   6
ENDBRANCH   9  11
TORSDOF 8
ENDMDL
MODEL 10
REMARK VINA RESULT:      -2.8     18.912     20.601
REMARK  Name = 75536531
REMARK  11 active torsions:
REMARK  status: ('A' for Active; 'I' for Inactive)
REMARK    1  A    between atoms: O_3  and  C_8
REMARK    2  A    between atoms: N_5  and  C_7
REMARK    3  A    between atoms: N_5  and  C_13
REMARK    4  A    between atoms: N_6  and  C_11
REMARK    5  A    between atoms: C_9  and  C_11
REMARK    6  A    between atoms: C_12  and  C_14
REMARK    7  A    between atoms: C_12  and  C_16
REMARK    8  A    between atoms: C_12  and  C_17
REMARK    9  A    between atoms: C_12  and  C_18
REMARK   10  A    between atoms: C_13  and  C_19
REMARK   11  A    between atoms: C_14  and  C_15
REMARK                            x       y       z     vdW  Elec       q    Type
REMARK                         _______ _______ _______ _____ _____    ______ ____
ROOT
ATOM      2  O   UNL     1      14.476  -7.045  27.993  0.00  0.00    -0.371 OA
ATOM      7  C   UNL     1      16.673  -6.292  27.492  0.00  0.00    +0.111 C 
ATOM      8  C   UNL     1      16.279  -5.787  28.867  0.00  0.00    +0.164 C 
ATOM      9  C   UNL     1      15.158  -6.754  29.225  0.00  0.00    +0.165 C 
ATOM     10  C   UNL     1      15.317  -6.639  26.899  0.00  0.00    +0.181 C 
ENDROOT
BRANCH   8   3
ATOM      3  O   UNL     1      17.343  -5.848  29.797  0.00  0.00    -0.388 OA
ATOM     27  H   UNL     1      17.064  -5.397  30.612  0.00  0.00    +0.210 HD
ENDBRANCH   8   3
BRANCH   7   5
ATOM      5  N   UNL     1      17.405  -5.318  26.699  0.00  0.00    -0.305 NA
ATOM     25  H   UNL     1      18.395  -5.566  26.700  0.00  0.00    +0.123 HD
BRANCH   5  13
ATOM     13  C   UNL     1      16.925  -5.293  25.323  0.00  0.00    +0.119 C 
BRANCH  13  19
ATOM      1  F   UNL     1      17.085  -4.823  22.534  0.00  0.00    -0.205 F 
ATOM     19  C   UNL     1      17.008  -3.914  24.725  0.00  0.00    +0.002 A 
ATOM     20  C   UNL     1      17.085  -3.754  23.342  0.00  0.00    +0.128 A 
ATOM     21  C   UNL     1      17.008  -2.795  25.558  0.00  0.00    +0.008 A 
ATOM     22  C   UNL     1      17.160  -2.475  22.792  0.00  0.00    +0.038 A 
ATOM     23  C   UNL     1      17.084  -1.516  25.008  0.00  0.00    +0.000 A 
ATOM     24  C   UNL     1      17.161  -1.355  23.624  0.00  0.00    +0.003 A 
ENDBRANCH  13  19
ENDBRANCH   5  13
ENDBRANCH   7   5
BRANCH   9  11
ATOM     11  C   UNL     1      14.175  -6.186  30.234  0.00  0.00    +0.138 C 
BRANCH  11   6
ATOM      4  O   UNL     1      11.466  -6.895  30.974  0.00  0.00    -0.276 OA
ATOM      6  N   UNL     1      13.762  -7.187  31.190  0.00  0.00    -0.313 N 
ATOM     15  C   UNL     1      12.435  -7.457  31.481  0.00  0.00    +0.214 C 
ATOM     26  H   UNL     1      14.490  -7.718  31.657  0.00  0.00    +0.149 HD
BRANCH  15  14
ATOM     14  C   UNL     1      12.266  -8.548  32.525  0.00  0.00    +0.102 C 
BRANCH  14  12
ATOM     12  C   UNL     1      12.456  -9.988  31.995  0.00  0.00    -0.029 C 
ATOM     16  C   UNL     1      13.541 -10.740  32.783  0.00  0.00    +0.011 C 
ATOM     17  C   UNL     1      11.140 -10.781  32.059  0.00  0.00    +0.011 C 
ATOM     18  C   UNL     1      12.899  -9.900  30.521  0.00  0.00    +0.011 C 
ENDBRANCH  14  12
ENDBRANCH  15  14
ENDBRANCH  11   6
ENDBRANCH   9  11
TORSDOF 8
ENDMDL
