MODEL 1
REMARK VINA RESULT:       6.2      0.000      0.000
REMARK  Name = 7144073
REMARK  5 active torsions:
REMARK  status: ('A' for Active; 'I' for Inactive)
REMARK    1  A    between atoms: N_3  and  C_13
REMARK    2  A    between atoms: C_13  and  C_18
REMARK    3  A    between atoms: C_16  and  C_19
REMARK    4  A    between atoms: C_22  and  C_27
REMARK    5  A    between atoms: C_24  and  C_26
REMARK                            x       y       z     vdW  Elec       q    Type
REMARK                         _______ _______ _______ _____ _____    ______ ____
ROOT
ATOM      2  O   UNL     1       0.053   2.560  26.291  0.00  0.00    -0.267 OA
ATOM      3  N   UNL     1      -4.725   1.596  25.152  0.00  0.00    -0.297 NA
ATOM      4  N   UNL     1      -1.913   3.103  25.161  0.00  0.00    -0.311 N 
ATOM      6  C   UNL     1      -4.090   3.686  26.381  0.00  0.00    +0.024 C 
ATOM      7  C   UNL     1      -4.037   3.667  23.934  0.00  0.00    +0.050 C 
ATOM      8  C   UNL     1      -4.383   4.526  25.146  0.00  0.00    +0.017 C 
ATOM      9  C   UNL     1      -4.943   2.400  26.361  0.00  0.00    +0.090 C 
ATOM     10  C   UNL     1      -4.918   2.396  23.933  0.00  0.00    +0.094 C 
ATOM     11  C   UNL     1      -2.584   3.394  26.436  0.00  0.00    +0.130 C 
ATOM     12  C   UNL     1      -2.565   3.293  23.942  0.00  0.00    +0.026 A 
ATOM     14  C   UNL     1      -1.900   3.126  22.788  0.00  0.00    +0.022 A 
ATOM     15  C   UNL     1      -0.558   2.719  25.232  0.00  0.00    +0.259 A 
ATOM     16  C   UNL     1       0.155   2.514  23.922  0.00  0.00    +0.040 A 
ATOM     17  C   UNL     1      -0.521   2.729  22.786  0.00  0.00    +0.015 A 
ENDROOT
BRANCH  16  19
ATOM     19  C   UNL     1       1.538   2.106  23.913  0.00  0.00    +0.014 C 
ATOM     24  C   UNL     1       1.951   0.952  23.375  0.00  0.00    +0.008 C 
BRANCH  24  26
ATOM      1 CL   UNL     1       7.611  -0.928  23.268  0.00  0.00    -0.084 Cl
ATOM     26  C   UNL     1       3.349   0.487  23.348  0.00  0.00    -0.025 A 
ATOM     28  C   UNL     1       3.629  -0.838  23.639  0.00  0.00    +0.009 A 
ATOM     29  C   UNL     1       4.357   1.385  23.033  0.00  0.00    +0.009 A 
ATOM     30  C   UNL     1       4.953  -1.278  23.613  0.00  0.00    +0.020 A 
ATOM     31  C   UNL     1       5.680   0.945  23.008  0.00  0.00    +0.020 A 
ATOM     32  C   UNL     1       5.979  -0.386  23.298  0.00  0.00    +0.041 A 
ENDBRANCH  24  26
ENDBRANCH  16  19
BRANCH   3  13
ATOM     13  C   UNL     1      -5.587   0.417  25.145  0.00  0.00    +0.119 C 
BRANCH  13  18
ATOM     18  C   UNL     1      -4.816  -0.815  24.754  0.00  0.00    -0.032 A 
ATOM     20  C   UNL     1      -3.479  -0.928  25.112  0.00  0.00    +0.023 A 
ATOM     21  C   UNL     1      -5.451  -1.823  24.042  0.00  0.00    +0.005 A 
ATOM     22  C   UNL     1      -2.765  -2.070  24.750  0.00  0.00    +0.052 A 
ATOM     23  C   UNL     1      -4.737  -2.965  23.679  0.00  0.00    +0.002 A 
ATOM     25  C   UNL     1      -3.394  -3.088  24.034  0.00  0.00    +0.019 A 
BRANCH  22  27
ATOM      5  N   UNL     1      -0.269  -2.302  25.408  0.00  0.00    -0.191 NA
ATOM     27  C   UNL     1      -1.388  -2.198  25.113  0.00  0.00    +0.099 C 
ENDBRANCH  22  27
ENDBRANCH  13  18
ENDBRANCH   3  13
TORSDOF 5
ENDMDL
