MODEL 1
REMARK VINA RESULT:       1.7      0.000      0.000
REMARK  Name = 51138091
REMARK  13 active torsions:
REMARK  status: ('A' for Active; 'I' for Inactive)
REMARK    1  A    between atoms: N_3  and  C_21
REMARK    2  A    between atoms: N_4  and  C_26
REMARK    3  A    between atoms: N_5  and  C_29
REMARK    4  A    between atoms: N_7  and  C_27
REMARK    5  A    between atoms: N_7  and  C_31
REMARK    6  A    between atoms: N_7  and  C_32
REMARK    7  A    between atoms: C_8  and  C_13
REMARK    8  A    between atoms: C_11  and  C_19
REMARK    9  A    between atoms: C_13  and  C_16
REMARK   10  A    between atoms: C_16  and  C_23
REMARK   11  A    between atoms: C_16  and  C_24
REMARK   12  A    between atoms: C_21  and  C_25
REMARK   13  A    between atoms: C_26  and  C_27
REMARK                            x       y       z     vdW  Elec       q    Type
REMARK                         _______ _______ _______ _____ _____    ______ ____
ROOT
ATOM      2  N   UNL     1      -2.719   1.343  25.245  0.00  0.00    -0.299 NA
ATOM      3  N   UNL     1       1.660   0.099  23.060  0.00  0.00    -0.339 N 
ATOM      8  C   UNL     1      -2.293   0.094  25.890  0.00  0.00    +0.085 C 
ATOM      9  C   UNL     1      -1.071  -0.596  25.274  0.00  0.00    -0.021 A 
ATOM     10  C   UNL     1      -0.144   0.020  24.384  0.00  0.00    +0.008 A 
ATOM     11  C   UNL     1      -1.750   2.426  25.319  0.00  0.00    +0.145 C 
ATOM     12  C   UNL     1      -0.021   1.339  23.824  0.00  0.00    -0.020 A 
ATOM     14  C   UNL     1      -0.911   2.516  24.045  0.00  0.00    +0.065 C 
ATOM     15  C   UNL     1       0.942  -0.718  23.900  0.00  0.00    +0.050 A 
ATOM     17  C   UNL     1       1.094   1.338  23.011  0.00  0.00    +0.091 A 
ATOM     18  C   UNL     1      -0.775  -1.926  25.663  0.00  0.00    +0.006 A 
ATOM     20  C   UNL     1       1.191  -2.044  24.260  0.00  0.00    +0.026 A 
ATOM     22  C   UNL     1       0.317  -2.634  25.163  0.00  0.00    +0.002 A 
ATOM     33  H   UNL     1      -3.011   1.173  24.283  0.00  0.00    +0.123 HD
ENDROOT
BRANCH  11  19
ATOM      1  O   UNL     1      -2.057   4.757  25.730  0.00  0.00    -0.274 OA
ATOM      4  N   UNL     1      -3.919   3.439  25.263  0.00  0.00    -0.313 N 
ATOM     19  C   UNL     1      -2.568   3.675  25.456  0.00  0.00    +0.230 C 
ATOM     34  H   UNL     1      -4.233   2.504  25.024  0.00  0.00    +0.149 HD
BRANCH   4  26
ATOM     26  C   UNL     1      -4.923   4.474  25.363  0.00  0.00    +0.119 C 
BRANCH  26  27
ATOM     27  C   UNL     1      -6.286   3.888  25.704  0.00  0.00    +0.102 C 
BRANCH  27   7
ATOM      7  N   UNL     1      -6.208   2.435  25.782  0.00  0.00    -0.307 NA
ATOM     31  C   UNL     1      -6.794   1.954  27.034  0.00  0.00    +0.104 C 
ATOM     32  C   UNL     1      -6.882   1.819  24.638  0.00  0.00    +0.104 C 
ENDBRANCH  27   7
ENDBRANCH  26  27
ENDBRANCH   4  26
ENDBRANCH  11  19
BRANCH   8  13
ATOM     13  C   UNL     1      -3.546  -0.801  25.874  0.00  0.00    +0.026 C 
BRANCH  13  16
ATOM     16  C   UNL     1      -4.158  -0.944  24.476  0.00  0.00    -0.015 C 
ATOM     23  C   UNL     1      -3.949  -2.377  23.979  0.00  0.00    +0.007 C 
ATOM     24  C   UNL     1      -3.569   0.044  23.470  0.00  0.00    +0.007 C 
ENDBRANCH  13  16
ENDBRANCH   8  13
BRANCH   3  21
ATOM     21  C   UNL     1       2.858  -0.278  22.339  0.00  0.00    +0.196 C 
BRANCH  21  25
ATOM      5  N   UNL     1       4.822  -0.955  23.761  0.00  0.00    -0.336 N 
ATOM      6  N   UNL     1       4.707   1.193  23.206  0.00  0.00    -0.239 NA
ATOM     25  C   UNL     1       4.128   0.017  23.096  0.00  0.00    +0.129 A 
ATOM     28  C   UNL     1       5.912  -0.362  24.334  0.00  0.00    +0.106 A 
ATOM     29  C   UNL     1       4.481  -2.355  23.854  0.00  0.00    +0.150 C 
ATOM     30  C   UNL     1       5.819   0.964  23.977  0.00  0.00    +0.130 A 
ENDBRANCH  21  25
ENDBRANCH   3  21
TORSDOF 8
ENDMDL
MODEL 2
REMARK VINA RESULT:       4.2      2.100      8.024
REMARK  Name = 51138091
REMARK  13 active torsions:
REMARK  status: ('A' for Active; 'I' for Inactive)
REMARK    1  A    between atoms: N_3  and  C_21
REMARK    2  A    between atoms: N_4  and  C_26
REMARK    3  A    between atoms: N_5  and  C_29
REMARK    4  A    between atoms: N_7  and  C_27
REMARK    5  A    between atoms: N_7  and  C_31
REMARK    6  A    between atoms: N_7  and  C_32
REMARK    7  A    between atoms: C_8  and  C_13
REMARK    8  A    between atoms: C_11  and  C_19
REMARK    9  A    between atoms: C_13  and  C_16
REMARK   10  A    between atoms: C_16  and  C_23
REMARK   11  A    between atoms: C_16  and  C_24
REMARK   12  A    between atoms: C_21  and  C_25
REMARK   13  A    between atoms: C_26  and  C_27
REMARK                            x       y       z     vdW  Elec       q    Type
REMARK                         _______ _______ _______ _____ _____    ______ ____
ROOT
ATOM      2  N   UNL     1       0.206  -0.800  23.741  0.00  0.00    -0.299 NA
ATOM      3  N   UNL     1      -2.123   3.305  25.538  0.00  0.00    -0.339 N 
ATOM      8  C   UNL     1      -1.229  -1.033  23.533  0.00  0.00    +0.085 C 
ATOM      9  C   UNL     1      -2.173  -0.005  24.164  0.00  0.00    -0.021 A 
ATOM     10  C   UNL     1      -1.790   1.289  24.621  0.00  0.00    +0.008 A 
ATOM     11  C   UNL     1       0.717   0.422  23.136  0.00  0.00    +0.145 C 
ATOM     12  C   UNL     1      -0.547   2.014  24.642  0.00  0.00    -0.020 A 
ATOM     14  C   UNL     1       0.786   1.564  24.149  0.00  0.00    +0.065 C 
ATOM     15  C   UNL     1      -2.755   2.142  25.168  0.00  0.00    +0.050 A 
ATOM     17  C   UNL     1      -0.798   3.242  25.222  0.00  0.00    +0.091 A 
ATOM     18  C   UNL     1      -3.556  -0.310  24.242  0.00  0.00    +0.006 A 
ATOM     20  C   UNL     1      -4.106   1.805  25.278  0.00  0.00    +0.026 A 
ATOM     22  C   UNL     1      -4.493   0.563  24.792  0.00  0.00    +0.002 A 
ATOM     33  H   UNL     1       0.442  -0.847  24.732  0.00  0.00    +0.123 HD
ENDROOT
BRANCH  11  19
ATOM      1  O   UNL     1       2.349  -0.939  22.049  0.00  0.00    -0.274 OA
ATOM      4  N   UNL     1       3.031   1.031  23.085  0.00  0.00    -0.313 N 
ATOM     19  C   UNL     1       2.105   0.084  22.683  0.00  0.00    +0.230 C 
ATOM     34  H   UNL     1       2.718   1.851  23.595  0.00  0.00    +0.149 HD
BRANCH   4  26
ATOM     26  C   UNL     1       4.444   0.928  22.795  0.00  0.00    +0.119 C 
BRANCH  26  27
ATOM     27  C   UNL     1       5.251   0.684  24.061  0.00  0.00    +0.102 C 
BRANCH  27   7
ATOM      7  N   UNL     1       5.907  -0.616  24.001  0.00  0.00    -0.307 NA
ATOM     31  C   UNL     1       4.916  -1.694  23.993  0.00  0.00    +0.104 C 
ATOM     32  C   UNL     1       6.765  -0.708  22.818  0.00  0.00    +0.104 C 
ENDBRANCH  27   7
ENDBRANCH  26  27
ENDBRANCH   4  26
ENDBRANCH  11  19
BRANCH   8  13
ATOM     13  C   UNL     1      -1.473  -2.459  24.061  0.00  0.00    +0.026 C 
BRANCH  13  16
ATOM     16  C   UNL     1      -2.914  -2.682  24.534  0.00  0.00    -0.015 C 
ATOM     23  C   UNL     1      -2.906  -3.027  26.025  0.00  0.00    +0.007 C 
ATOM     24  C   UNL     1      -3.627  -3.784  23.751  0.00  0.00    +0.007 C 
ENDBRANCH  13  16
ENDBRANCH   8  13
BRANCH   3  21
ATOM     21  C   UNL     1      -2.757   4.450  26.156  0.00  0.00    +0.196 C 
BRANCH  21  25
ATOM      5  N   UNL     1      -4.744   4.991  24.706  0.00  0.00    -0.336 N 
ATOM      6  N   UNL     1      -5.194   4.176  26.723  0.00  0.00    -0.239 NA
ATOM     25  C   UNL     1      -4.239   4.528  25.890  0.00  0.00    +0.129 A 
ATOM     28  C   UNL     1      -6.107   4.932  24.790  0.00  0.00    +0.106 A 
ATOM     29  C   UNL     1      -3.991   5.462  23.568  0.00  0.00    +0.150 C 
ATOM     30  C   UNL     1      -6.360   4.425  26.044  0.00  0.00    +0.130 A 
ENDBRANCH  21  25
ENDBRANCH   3  21
TORSDOF 8
ENDMDL
