MODEL 1
REMARK VINA RESULT:       8.4      0.000      0.000
REMARK  Name = 40777145
REMARK  9 active torsions:
REMARK  status: ('A' for Active; 'I' for Inactive)
REMARK    1  A    between atoms: O_5  and  C_36
REMARK    2  A    between atoms: N_8  and  C_18
REMARK    3  A    between atoms: C_12  and  C_19
REMARK    4  A    between atoms: C_13  and  C_18
REMARK    5  A    between atoms: C_21  and  C_24
REMARK    6  A    between atoms: C_22  and  C_26
REMARK    7  A    between atoms: C_23  and  C_25
REMARK    8  A    between atoms: C_29  and  C_36
REMARK    9  A    between atoms: C_34  and  C_38
REMARK                            x       y       z     vdW  Elec       q    Type
REMARK                         _______ _______ _______ _____ _____    ______ ____
ROOT
ATOM      7  N   UNL     1      -4.612   4.239  25.018  0.00  0.00    -0.297 NA
ATOM     11  C   UNL     1      -2.309   3.379  25.881  0.00  0.00    +0.002 C 
ATOM     12  C   UNL     1      -2.264   3.602  24.345  0.00  0.00    +0.055 C 
ATOM     13  C   UNL     1      -4.805   3.035  25.870  0.00  0.00    +0.074 C 
ATOM     14  C   UNL     1      -3.446   2.392  26.220  0.00  0.00    +0.024 C 
ATOM     15  C   UNL     1      -2.682   4.735  26.518  0.00  0.00    +0.019 C 
ATOM     16  C   UNL     1      -3.715   3.916  23.879  0.00  0.00    +0.094 C 
ATOM     17  C   UNL     1      -3.954   5.279  25.844  0.00  0.00    +0.085 C 
ENDROOT
BRANCH  12  19
ATOM      9  N   UNL     1      -2.328   2.044  22.462  0.00  0.00    -0.237 NA
ATOM     10  N   UNL     1      -0.460   0.629  21.901  0.00  0.00    -0.232 NA
ATOM     19  C   UNL     1      -1.599   2.540  23.483  0.00  0.00    +0.050 A 
ATOM     20  C   UNL     1      -0.312   2.135  23.772  0.00  0.00    +0.052 A 
ATOM     21  C   UNL     1       0.212   1.169  22.940  0.00  0.00    +0.075 A 
ATOM     22  C   UNL     1      -1.706   1.105  21.722  0.00  0.00    +0.127 A 
ATOM     26  C   UNL     1      -2.481   0.532  20.584  0.00  0.00    +0.088 C 
BRANCH  21  24
ATOM     24  C   UNL     1       1.549   0.659  23.137  0.00  0.00    +0.000 A 
ATOM     27  C   UNL     1       1.743  -0.686  23.450  0.00  0.00    +0.010 A 
ATOM     28  C   UNL     1       2.646   1.512  23.010  0.00  0.00    +0.010 A 
ATOM     31  C   UNL     1       3.034  -1.178  23.640  0.00  0.00    +0.013 A 
ATOM     32  C   UNL     1       3.937   1.019  23.198  0.00  0.00    +0.013 A 
ATOM     34  C   UNL     1       4.131  -0.326  23.513  0.00  0.00    +0.055 A 
BRANCH  34  38
ATOM      1  F   UNL     1       6.410  -0.404  22.789  0.00  0.00    -0.166 F 
ATOM      2  F   UNL     1       5.569  -2.215  23.649  0.00  0.00    -0.166 F 
ATOM      3  F   UNL     1       6.052  -0.522  24.925  0.00  0.00    -0.166 F 
ATOM     38  C   UNL     1       5.512  -0.853  23.715  0.00  0.00    +0.417 C 
ENDBRANCH  34  38
ENDBRANCH  21  24
ENDBRANCH  12  19
BRANCH  13  18
ATOM     18  C   UNL     1      -5.769   2.026  25.242  0.00  0.00    +0.123 C 
BRANCH  18   8
ATOM      4  O   UNL     1      -4.662  -0.151  26.752  0.00  0.00    -0.270 OA
ATOM      8  N   UNL     1      -5.060   0.899  24.720  0.00  0.00    -0.310 N 
ATOM     23  C   UNL     1      -4.554  -0.118  25.529  0.00  0.00    +0.245 C 
ATOM     39  H   UNL     1      -4.909   0.854  23.717  0.00  0.00    +0.149 HD
BRANCH  23  25
ATOM     25  C   UNL     1      -3.818  -1.206  24.835  0.00  0.00    +0.051 A 
ATOM     29  C   UNL     1      -2.475  -1.462  25.111  0.00  0.00    +0.071 A 
ATOM     30  C   UNL     1      -4.497  -1.979  23.892  0.00  0.00    +0.014 A 
ATOM     33  C   UNL     1      -1.810  -2.492  24.444  0.00  0.00    +0.016 A 
ATOM     35  C   UNL     1      -3.831  -3.008  23.226  0.00  0.00    +0.001 A 
ATOM     37  C   UNL     1      -2.489  -3.264  23.501  0.00  0.00    +0.001 A 
BRANCH  29  36
ATOM      6  O   UNL     1      -0.960   0.245  25.826  0.00  0.00    -0.245 OA
ATOM     36  C   UNL     1      -1.739  -0.674  26.091  0.00  0.00    +0.338 C 
BRANCH  36   5
ATOM      5  O   UNL     1      -2.002  -1.059  27.368  0.00  0.00    -0.477 OA
ATOM     40  H   UNL     1      -2.966  -1.149  27.531  0.00  0.00    +0.295 HD
ENDBRANCH  36   5
ENDBRANCH  29  36
ENDBRANCH  23  25
ENDBRANCH  18   8
ENDBRANCH  13  18
TORSDOF 8
ENDMDL
MODEL 2
REMARK VINA RESULT:       9.7      1.504      1.918
REMARK  Name = 40777145
REMARK  9 active torsions:
REMARK  status: ('A' for Active; 'I' for Inactive)
REMARK    1  A    between atoms: O_5  and  C_36
REMARK    2  A    between atoms: N_8  and  C_18
REMARK    3  A    between atoms: C_12  and  C_19
REMARK    4  A    between atoms: C_13  and  C_18
REMARK    5  A    between atoms: C_21  and  C_24
REMARK    6  A    between atoms: C_22  and  C_26
REMARK    7  A    between atoms: C_23  and  C_25
REMARK    8  A    between atoms: C_29  and  C_36
REMARK    9  A    between atoms: C_34  and  C_38
REMARK                            x       y       z     vdW  Elec       q    Type
REMARK                         _______ _______ _______ _____ _____    ______ ____
ROOT
ATOM      7  N   UNL     1      -2.659   4.286  24.246  0.00  0.00    -0.297 NA
ATOM     11  C   UNL     1      -1.359   2.834  25.975  0.00  0.00    +0.002 C 
ATOM     12  C   UNL     1      -0.561   2.942  24.647  0.00  0.00    +0.055 C 
ATOM     13  C   UNL     1      -3.558   3.248  24.816  0.00  0.00    +0.074 C 
ATOM     14  C   UNL     1      -2.758   2.252  25.683  0.00  0.00    +0.024 C 
ATOM     15  C   UNL     1      -1.567   4.276  26.488  0.00  0.00    +0.019 C 
ATOM     16  C   UNL     1      -1.482   3.644  23.607  0.00  0.00    +0.094 C 
ATOM     17  C   UNL     1      -2.175   5.131  25.363  0.00  0.00    +0.085 C 
ENDROOT
BRANCH  12  19
ATOM      9  N   UNL     1      -0.757   0.714  23.658  0.00  0.00    -0.237 NA
ATOM     10  N   UNL     1       1.172  -0.609  23.079  0.00  0.00    -0.232 NA
ATOM     19  C   UNL     1       0.081   1.680  24.089  0.00  0.00    +0.050 A 
ATOM     20  C   UNL     1       1.456   1.576  24.049  0.00  0.00    +0.052 A 
ATOM     21  C   UNL     1       1.951   0.398  23.529  0.00  0.00    +0.075 A 
ATOM     22  C   UNL     1      -0.152  -0.387  23.173  0.00  0.00    +0.127 A 
ATOM     26  C   UNL     1      -1.046  -1.478  22.687  0.00  0.00    +0.088 C 
BRANCH  21  24
ATOM     24  C   UNL     1       3.372   0.164  23.433  0.00  0.00    +0.000 A 
ATOM     27  C   UNL     1       3.909  -1.051  23.859  0.00  0.00    +0.010 A 
ATOM     28  C   UNL     1       4.208   1.151  22.911  0.00  0.00    +0.010 A 
ATOM     31  C   UNL     1       5.282  -1.278  23.766  0.00  0.00    +0.013 A 
ATOM     32  C   UNL     1       5.581   0.924  22.817  0.00  0.00    +0.013 A 
ATOM     34  C   UNL     1       6.118  -0.291  23.244  0.00  0.00    +0.055 A 
BRANCH  34  38
ATOM      1  F   UNL     1       7.925  -1.465  22.205  0.00  0.00    -0.166 F 
ATOM      2  F   UNL     1       8.125  -0.983  24.316  0.00  0.00    -0.166 F 
ATOM      3  F   UNL     1       8.304   0.582  22.816  0.00  0.00    -0.166 F 
ATOM     38  C   UNL     1       7.586  -0.533  23.145  0.00  0.00    +0.417 C 
ENDBRANCH  34  38
ENDBRANCH  21  24
ENDBRANCH  12  19
BRANCH  13  18
ATOM     18  C   UNL     1      -4.380   2.535  23.740  0.00  0.00    +0.123 C 
BRANCH  18   8
ATOM      4  O   UNL     1      -5.338   0.495  25.520  0.00  0.00    -0.270 OA
ATOM      8  N   UNL     1      -4.061   1.142  23.693  0.00  0.00    -0.310 N 
ATOM     23  C   UNL     1      -4.572   0.216  24.601  0.00  0.00    +0.245 C 
ATOM     39  H   UNL     1      -3.418   0.824  22.972  0.00  0.00    +0.149 HD
BRANCH  23  25
ATOM     25  C   UNL     1      -4.122  -1.190  24.433  0.00  0.00    +0.051 A 
ATOM     29  C   UNL     1      -3.200  -1.765  25.306  0.00  0.00    +0.071 A 
ATOM     30  C   UNL     1      -4.642  -1.938  23.375  0.00  0.00    +0.014 A 
ATOM     33  C   UNL     1      -2.796  -3.088  25.124  0.00  0.00    +0.016 A 
ATOM     35  C   UNL     1      -4.238  -3.261  23.193  0.00  0.00    +0.001 A 
ATOM     37  C   UNL     1      -3.316  -3.835  24.066  0.00  0.00    +0.001 A 
BRANCH  29  36
ATOM      6  O   UNL     1      -3.217  -0.777  27.485  0.00  0.00    -0.245 OA
ATOM     36  C   UNL     1      -2.640  -1.010  26.420  0.00  0.00    +0.338 C 
BRANCH  36   5
ATOM      5  O   UNL     1      -1.377  -0.573  26.166  0.00  0.00    -0.477 OA
ATOM     40  H   UNL     1      -1.258  -0.329  25.223  0.00  0.00    +0.295 HD
ENDBRANCH  36   5
ENDBRANCH  29  36
ENDBRANCH  23  25
ENDBRANCH  18   8
ENDBRANCH  13  18
TORSDOF 8
ENDMDL
MODEL 3
REMARK VINA RESULT:       9.9     14.084     17.527
REMARK  Name = 40777145
REMARK  9 active torsions:
REMARK  status: ('A' for Active; 'I' for Inactive)
REMARK    1  A    between atoms: O_5  and  C_36
REMARK    2  A    between atoms: N_8  and  C_18
REMARK    3  A    between atoms: C_12  and  C_19
REMARK    4  A    between atoms: C_13  and  C_18
REMARK    5  A    between atoms: C_21  and  C_24
REMARK    6  A    between atoms: C_22  and  C_26
REMARK    7  A    between atoms: C_23  and  C_25
REMARK    8  A    between atoms: C_29  and  C_36
REMARK    9  A    between atoms: C_34  and  C_38
REMARK                            x       y       z     vdW  Elec       q    Type
REMARK                         _______ _______ _______ _____ _____    ______ ____
ROOT
ATOM      7  N   UNL     1      -3.833  -8.335  10.262  0.00  0.00    -0.297 NA
ATOM     11  C   UNL     1      -5.233 -10.462   9.710  0.00  0.00    +0.002 C 
ATOM     12  C   UNL     1      -6.152  -9.330  10.245  0.00  0.00    +0.055 C 
ATOM     13  C   UNL     1      -3.213  -9.531  10.893  0.00  0.00    +0.074 C 
ATOM     14  C   UNL     1      -4.134 -10.761  10.751  0.00  0.00    +0.024 C 
ATOM     15  C   UNL     1      -4.528  -9.907   8.454  0.00  0.00    +0.019 C 
ATOM     16  C   UNL     1      -5.231  -8.178  10.739  0.00  0.00    +0.094 C 
ATOM     17  C   UNL     1      -3.867  -8.560   8.798  0.00  0.00    +0.085 C 
ENDROOT
BRANCH  12  19
ATOM      9  N   UNL     1      -8.440 -10.007  10.783  0.00  0.00    -0.237 NA
ATOM     10  N   UNL     1      -9.178 -10.350  13.051  0.00  0.00    -0.232 NA
ATOM     19  C   UNL     1      -7.220  -9.692  11.267  0.00  0.00    +0.050 A 
ATOM     20  C   UNL     1      -6.908  -9.684  12.611  0.00  0.00    +0.052 A 
ATOM     21  C   UNL     1      -7.935 -10.024  13.465  0.00  0.00    +0.075 A 
ATOM     22  C   UNL     1      -9.358 -10.321  11.717  0.00  0.00    +0.127 A 
ATOM     26  C   UNL     1     -10.720 -10.673  11.221  0.00  0.00    +0.088 C 
BRANCH  21  24
ATOM     24  C   UNL     1      -7.739 -10.053  14.896  0.00  0.00    +0.000 A 
ATOM     27  C   UNL     1      -6.463  -9.871  15.428  0.00  0.00    +0.010 A 
ATOM     28  C   UNL     1      -8.826 -10.259  15.745  0.00  0.00    +0.010 A 
ATOM     31  C   UNL     1      -6.272  -9.897  16.809  0.00  0.00    +0.013 A 
ATOM     32  C   UNL     1      -8.636 -10.285  17.126  0.00  0.00    +0.013 A 
ATOM     34  C   UNL     1      -7.359 -10.103  17.659  0.00  0.00    +0.055 A 
BRANCH  34  38
ATOM      1  F   UNL     1      -7.081  -8.892  19.702  0.00  0.00    -0.166 F 
ATOM      2  F   UNL     1      -6.003 -10.768  19.495  0.00  0.00    -0.166 F 
ATOM      3  F   UNL     1      -8.154 -10.773  19.813  0.00  0.00    -0.166 F 
ATOM     38  C   UNL     1      -7.156 -10.132  19.136  0.00  0.00    +0.417 C 
ENDBRANCH  34  38
ENDBRANCH  21  24
ENDBRANCH  12  19
BRANCH  13  18
ATOM     18  C   UNL     1      -2.814  -9.280  12.348  0.00  0.00    +0.123 C 
BRANCH  18   8
ATOM      4  O   UNL     1      -0.597  -9.456  10.532  0.00  0.00    -0.270 OA
ATOM      8  N   UNL     1      -1.589  -8.546  12.423  0.00  0.00    -0.310 N 
ATOM     23  C   UNL     1      -0.559  -8.694  11.494  0.00  0.00    +0.245 C 
ATOM     39  H   UNL     1      -1.464  -7.903  13.200  0.00  0.00    +0.149 HD
BRANCH  23  25
ATOM     25  C   UNL     1       0.661  -7.878  11.727  0.00  0.00    +0.051 A 
ATOM     29  C   UNL     1       1.858  -8.163  11.072  0.00  0.00    +0.071 A 
ATOM     30  C   UNL     1       0.591  -6.810  12.622  0.00  0.00    +0.014 A 
ATOM     33  C   UNL     1       2.987  -7.378  11.310  0.00  0.00    +0.016 A 
ATOM     35  C   UNL     1       1.720  -6.026  12.860  0.00  0.00    +0.001 A 
ATOM     37  C   UNL     1       2.918  -6.310  12.205  0.00  0.00    +0.001 A 
BRANCH  29  36
ATOM      6  O   UNL     1       2.444 -10.378  10.384  0.00  0.00    -0.245 OA
ATOM     36  C   UNL     1       1.962  -9.271  10.132  0.00  0.00    +0.338 C 
BRANCH  36   5
ATOM      5  O   UNL     1       1.459  -8.960   8.907  0.00  0.00    -0.477 OA
ATOM     40  H   UNL     1       0.868  -9.665   8.565  0.00  0.00    +0.295 HD
ENDBRANCH  36   5
ENDBRANCH  29  36
ENDBRANCH  23  25
ENDBRANCH  18   8
ENDBRANCH  13  18
TORSDOF 8
ENDMDL
MODEL 4
REMARK VINA RESULT:      11.3      1.262      1.851
REMARK  Name = 40777145
REMARK  9 active torsions:
REMARK  status: ('A' for Active; 'I' for Inactive)
REMARK    1  A    between atoms: O_5  and  C_36
REMARK    2  A    between atoms: N_8  and  C_18
REMARK    3  A    between atoms: C_12  and  C_19
REMARK    4  A    between atoms: C_13  and  C_18
REMARK    5  A    between atoms: C_21  and  C_24
REMARK    6  A    between atoms: C_22  and  C_26
REMARK    7  A    between atoms: C_23  and  C_25
REMARK    8  A    between atoms: C_29  and  C_36
REMARK    9  A    between atoms: C_34  and  C_38
REMARK                            x       y       z     vdW  Elec       q    Type
REMARK                         _______ _______ _______ _____ _____    ______ ____
ROOT
ATOM      7  N   UNL     1      -4.756   4.055  25.226  0.00  0.00    -0.297 NA
ATOM     11  C   UNL     1      -2.167   3.966  25.505  0.00  0.00    +0.002 C 
ATOM     12  C   UNL     1      -2.559   3.795  24.011  0.00  0.00    +0.055 C 
ATOM     13  C   UNL     1      -4.393   3.096  26.303  0.00  0.00    +0.074 C 
ATOM     14  C   UNL     1      -2.866   2.875  26.344  0.00  0.00    +0.024 C 
ATOM     15  C   UNL     1      -2.740   5.325  25.962  0.00  0.00    +0.019 C 
ATOM     16  C   UNL     1      -4.107   3.655  23.951  0.00  0.00    +0.094 C 
ATOM     17  C   UNL     1      -4.236   5.389  25.610  0.00  0.00    +0.085 C 
ENDROOT
BRANCH  12  19
ATOM      9  N   UNL     1      -2.531   2.202  22.156  0.00  0.00    -0.237 NA
ATOM     10  N   UNL     1      -0.635   0.783  21.710  0.00  0.00    -0.232 NA
ATOM     19  C   UNL     1      -1.851   2.718  23.201  0.00  0.00    +0.050 A 
ATOM     20  C   UNL     1      -0.578   2.323  23.558  0.00  0.00    +0.052 A 
ATOM     21  C   UNL     1      -0.014   1.342  22.770  0.00  0.00    +0.075 A 
ATOM     22  C   UNL     1      -1.873   1.252  21.464  0.00  0.00    +0.127 A 
ATOM     26  C   UNL     1      -2.592   0.656  20.302  0.00  0.00    +0.088 C 
BRANCH  21  24
ATOM     24  C   UNL     1       1.313   0.840  23.038  0.00  0.00    +0.000 A 
ATOM     27  C   UNL     1       1.506  -0.515  23.300  0.00  0.00    +0.010 A 
ATOM     28  C   UNL     1       2.403   1.712  23.032  0.00  0.00    +0.010 A 
ATOM     31  C   UNL     1       2.787  -1.001  23.559  0.00  0.00    +0.013 A 
ATOM     32  C   UNL     1       3.684   1.226  23.290  0.00  0.00    +0.013 A 
ATOM     34  C   UNL     1       3.877  -0.131  23.553  0.00  0.00    +0.055 A 
BRANCH  34  38
ATOM      1  F   UNL     1       6.182  -0.236  22.924  0.00  0.00    -0.166 F 
ATOM      2  F   UNL     1       5.305  -2.013  23.819  0.00  0.00    -0.166 F 
ATOM      3  F   UNL     1       5.740  -0.272  25.047  0.00  0.00    -0.166 F 
ATOM     38  C   UNL     1       5.248  -0.649  23.830  0.00  0.00    +0.417 C 
ENDBRANCH  34  38
ENDBRANCH  21  24
ENDBRANCH  12  19
BRANCH  13  18
ATOM     18  C   UNL     1      -5.158   1.776  26.190  0.00  0.00    +0.123 C 
BRANCH  18   8
ATOM      4  O   UNL     1      -4.050   0.746  23.749  0.00  0.00    -0.270 OA
ATOM      8  N   UNL     1      -4.256   0.673  26.060  0.00  0.00    -0.310 N 
ATOM     23  C   UNL     1      -3.765   0.237  24.830  0.00  0.00    +0.245 C 
ATOM     39  H   UNL     1      -3.980   0.181  26.905  0.00  0.00    +0.149 HD
BRANCH  23  25
ATOM     25  C   UNL     1      -2.858  -0.939  24.863  0.00  0.00    +0.051 A 
ATOM     29  C   UNL     1      -3.248  -2.169  24.335  0.00  0.00    +0.071 A 
ATOM     30  C   UNL     1      -1.594  -0.795  25.436  0.00  0.00    +0.014 A 
ATOM     33  C   UNL     1      -2.374  -3.257  24.379  0.00  0.00    +0.016 A 
ATOM     35  C   UNL     1      -0.720  -1.882  25.480  0.00  0.00    +0.001 A 
ATOM     37  C   UNL     1      -1.111  -3.112  24.952  0.00  0.00    +0.001 A 
BRANCH  29  36
ATOM      6  O   UNL     1      -4.842  -3.198  22.878  0.00  0.00    -0.245 OA
ATOM     36  C   UNL     1      -4.561  -2.352  23.730  0.00  0.00    +0.338 C 
BRANCH  36   5
ATOM      5  O   UNL     1      -5.480  -1.471  24.212  0.00  0.00    -0.477 OA
ATOM     40  H   UNL     1      -5.395  -1.351  25.182  0.00  0.00    +0.295 HD
ENDBRANCH  36   5
ENDBRANCH  29  36
ENDBRANCH  23  25
ENDBRANCH  18   8
ENDBRANCH  13  18
TORSDOF 8
ENDMDL
MODEL 5
REMARK VINA RESULT:      12.0      4.307      7.723
REMARK  Name = 40777145
REMARK  9 active torsions:
REMARK  status: ('A' for Active; 'I' for Inactive)
REMARK    1  A    between atoms: O_5  and  C_36
REMARK    2  A    between atoms: N_8  and  C_18
REMARK    3  A    between atoms: C_12  and  C_19
REMARK    4  A    between atoms: C_13  and  C_18
REMARK    5  A    between atoms: C_21  and  C_24
REMARK    6  A    between atoms: C_22  and  C_26
REMARK    7  A    between atoms: C_23  and  C_25
REMARK    8  A    between atoms: C_29  and  C_36
REMARK    9  A    between atoms: C_34  and  C_38
REMARK                            x       y       z     vdW  Elec       q    Type
REMARK                         _______ _______ _______ _____ _____    ______ ____
ROOT
ATOM      7  N   UNL     1       1.959   0.234  22.116  0.00  0.00    -0.297 NA
ATOM     11  C   UNL     1       1.424  -0.981  24.357  0.00  0.00    +0.002 C 
ATOM     12  C   UNL     1       0.347  -1.313  23.288  0.00  0.00    +0.055 C 
ATOM     13  C   UNL     1       2.014   1.201  23.244  0.00  0.00    +0.074 C 
ATOM     14  C   UNL     1       1.500   0.549  24.545  0.00  0.00    +0.024 C 
ATOM     15  C   UNL     1       2.782  -1.434  23.777  0.00  0.00    +0.019 C 
ATOM     16  C   UNL     1       0.618  -0.402  22.057  0.00  0.00    +0.094 C 
ATOM     17  C   UNL     1       2.963  -0.825  22.376  0.00  0.00    +0.085 C 
ENDROOT
BRANCH  12  19
ATOM      9  N   UNL     1      -1.712  -2.491  23.885  0.00  0.00    -0.237 NA
ATOM     10  N   UNL     1      -3.738  -1.322  24.464  0.00  0.00    -0.232 NA
ATOM     19  C   UNL     1      -1.115  -1.293  23.710  0.00  0.00    +0.050 A 
ATOM     20  C   UNL     1      -1.755  -0.084  23.889  0.00  0.00    +0.052 A 
ATOM     21  C   UNL     1      -3.079  -0.160  24.270  0.00  0.00    +0.075 A 
ATOM     22  C   UNL     1      -3.005  -2.432  24.256  0.00  0.00    +0.127 A 
ATOM     26  C   UNL     1      -3.700  -3.736  24.458  0.00  0.00    +0.088 C 
BRANCH  21  24
ATOM     24  C   UNL     1      -3.862   1.033  24.490  0.00  0.00    +0.000 A 
ATOM     27  C   UNL     1      -4.810   1.066  25.512  0.00  0.00    +0.010 A 
ATOM     28  C   UNL     1      -3.667   2.154  23.682  0.00  0.00    +0.010 A 
ATOM     31  C   UNL     1      -5.566   2.219  25.725  0.00  0.00    +0.013 A 
ATOM     32  C   UNL     1      -4.423   3.306  23.895  0.00  0.00    +0.013 A 
ATOM     34  C   UNL     1      -5.372   3.339  24.917  0.00  0.00    +0.055 A 
BRANCH  34  38
ATOM      1  F   UNL     1      -6.230   4.960  26.453  0.00  0.00    -0.166 F 
ATOM      2  F   UNL     1      -7.481   4.425  24.757  0.00  0.00    -0.166 F 
ATOM      3  F   UNL     1      -5.718   5.662  24.466  0.00  0.00    -0.166 F 
ATOM     38  C   UNL     1      -6.181   4.572  25.144  0.00  0.00    +0.417 C 
ENDBRANCH  34  38
ENDBRANCH  21  24
ENDBRANCH  12  19
BRANCH  13  18
ATOM     18  C   UNL     1       1.277   2.505  22.929  0.00  0.00    +0.123 C 
BRANCH  18   8
ATOM      4  O   UNL     1       0.152   5.071  23.556  0.00  0.00    -0.270 OA
ATOM      8  N   UNL     1       0.286   2.783  23.922  0.00  0.00    -0.310 N 
ATOM     23  C   UNL     1      -0.208   4.065  24.162  0.00  0.00    +0.245 C 
ATOM     39  H   UNL     1      -0.057   2.009  24.485  0.00  0.00    +0.149 HD
BRANCH  23  25
ATOM     25  C   UNL     1      -1.215   4.191  25.246  0.00  0.00    +0.051 A 
ATOM     29  C   UNL     1      -1.263   3.280  26.300  0.00  0.00    +0.071 A 
ATOM     30  C   UNL     1      -2.125   5.248  25.195  0.00  0.00    +0.014 A 
ATOM     33  C   UNL     1      -2.221   3.425  27.305  0.00  0.00    +0.016 A 
ATOM     35  C   UNL     1      -3.082   5.393  26.200  0.00  0.00    +0.001 A 
ATOM     37  C   UNL     1      -3.130   4.482  27.254  0.00  0.00    +0.001 A 
BRANCH  29  36
ATOM      6  O   UNL     1      -0.595   0.989  26.130  0.00  0.00    -0.245 OA
ATOM     36  C   UNL     1      -0.327   2.167  26.382  0.00  0.00    +0.338 C 
BRANCH  36   5
ATOM      5  O   UNL     1       0.914   2.562  26.775  0.00  0.00    -0.477 OA
ATOM     40  H   UNL     1       1.517   1.798  26.902  0.00  0.00    +0.295 HD
ENDBRANCH  36   5
ENDBRANCH  29  36
ENDBRANCH  23  25
ENDBRANCH  18   8
ENDBRANCH  13  18
TORSDOF 8
ENDMDL
