MODEL 1
REMARK VINA RESULT:       1.9      0.000      0.000
REMARK  Name = 51138127
REMARK  11 active torsions:
REMARK  status: ('A' for Active; 'I' for Inactive)
REMARK    1  A    between atoms: O_2  and  C_31
REMARK    2  A    between atoms: O_2  and  C_32
REMARK    3  A    between atoms: N_4  and  C_22
REMARK    4  A    between atoms: N_5  and  C_24
REMARK    5  A    between atoms: C_6  and  C_10
REMARK    6  A    between atoms: C_8  and  C_17
REMARK    7  A    between atoms: C_10  and  C_14
REMARK    8  A    between atoms: C_14  and  C_20
REMARK    9  A    between atoms: C_14  and  C_21
REMARK   10  A    between atoms: C_22  and  C_23
REMARK   11  A    between atoms: C_24  and  C_25
REMARK                            x       y       z     vdW  Elec       q    Type
REMARK                         _______ _______ _______ _____ _____    ______ ____
ROOT
ATOM      3  N   UNL     1      -1.893  -0.592  24.727  0.00  0.00    -0.299 NA
ATOM      4  N   UNL     1      -2.808   4.280  25.689  0.00  0.00    -0.343 N 
ATOM      6  C   UNL     1      -3.346  -0.424  24.583  0.00  0.00    +0.085 C 
ATOM      7  C   UNL     1      -3.906   0.938  25.004  0.00  0.00    -0.021 A 
ATOM      8  C   UNL     1      -1.093   0.286  23.886  0.00  0.00    +0.145 C 
ATOM      9  C   UNL     1      -3.134   2.122  25.190  0.00  0.00    +0.008 A 
ATOM     11  C   UNL     1      -0.628   1.524  24.648  0.00  0.00    +0.065 C 
ATOM     12  C   UNL     1      -1.738   2.436  25.054  0.00  0.00    -0.020 A 
ATOM     13  C   UNL     1      -3.774   3.309  25.564  0.00  0.00    +0.050 A 
ATOM     15  C   UNL     1      -1.583   3.769  25.379  0.00  0.00    +0.090 A 
ATOM     16  C   UNL     1      -5.310   1.076  25.155  0.00  0.00    +0.006 A 
ATOM     18  C   UNL     1      -5.152   3.414  25.753  0.00  0.00    +0.026 A 
ATOM     19  C   UNL     1      -5.915   2.275  25.527  0.00  0.00    +0.002 A 
ATOM     33  H   UNL     1      -1.613  -0.521  25.705  0.00  0.00    +0.123 HD
ENDROOT
BRANCH   8  17
ATOM      1  O   UNL     1       0.572  -1.387  24.237  0.00  0.00    -0.274 OA
ATOM      5  N   UNL     1       0.596  -0.173  22.251  0.00  0.00    -0.310 N 
ATOM     17  C   UNL     1       0.104  -0.527  23.495  0.00  0.00    +0.231 C 
ATOM     34  H   UNL     1       0.113   0.537  21.708  0.00  0.00    +0.149 HD
BRANCH   5  24
ATOM     24  C   UNL     1       1.757  -0.792  21.654  0.00  0.00    +0.139 C 
BRANCH  24  25
ATOM     25  C   UNL     1       3.022  -0.427  22.376  0.00  0.00    -0.030 A 
ATOM     27  C   UNL     1       3.686  -1.381  23.147  0.00  0.00    +0.009 A 
ATOM     28  C   UNL     1       3.531   0.868  22.278  0.00  0.00    +0.009 A 
ATOM     29  C   UNL     1       4.861  -1.040  23.818  0.00  0.00    +0.046 A 
ATOM     30  C   UNL     1       4.706   1.209  22.949  0.00  0.00    +0.046 A 
ATOM     31  C   UNL     1       5.370   0.255  23.719  0.00  0.00    +0.120 A 
BRANCH  31   2
ATOM      2  O   UNL     1       6.517   0.586  24.374  0.00  0.00    -0.495 OA
ATOM     32  C   UNL     1       7.746   0.166  23.783  0.00  0.00    +0.277 C 
ENDBRANCH  31   2
ENDBRANCH  24  25
ENDBRANCH   5  24
ENDBRANCH   8  17
BRANCH   6  10
ATOM     10  C   UNL     1      -3.953  -1.587  25.387  0.00  0.00    +0.026 C 
BRANCH  10  14
ATOM     14  C   UNL     1      -3.854  -2.932  24.662  0.00  0.00    -0.015 C 
ATOM     20  C   UNL     1      -2.381  -3.300  24.477  0.00  0.00    +0.007 C 
ATOM     21  C   UNL     1      -4.559  -2.922  23.303  0.00  0.00    +0.007 C 
ENDBRANCH  10  14
ENDBRANCH   6  10
BRANCH   4  22
ATOM     22  C   UNL     1      -3.042   5.656  26.071  0.00  0.00    +0.148 C 
BRANCH  22  23
ATOM     23  C   UNL     1      -2.159   6.616  25.329  0.00  0.00    -0.013 C 
ATOM     26  C   UNL     1      -1.097   6.247  24.607  0.00  0.00    +0.005 C 
ENDBRANCH  22  23
ENDBRANCH   4  22
TORSDOF 8
ENDMDL
MODEL 2
REMARK VINA RESULT:       4.1      1.614      4.252
REMARK  Name = 51138127
REMARK  11 active torsions:
REMARK  status: ('A' for Active; 'I' for Inactive)
REMARK    1  A    between atoms: O_2  and  C_31
REMARK    2  A    between atoms: O_2  and  C_32
REMARK    3  A    between atoms: N_4  and  C_22
REMARK    4  A    between atoms: N_5  and  C_24
REMARK    5  A    between atoms: C_6  and  C_10
REMARK    6  A    between atoms: C_8  and  C_17
REMARK    7  A    between atoms: C_10  and  C_14
REMARK    8  A    between atoms: C_14  and  C_20
REMARK    9  A    between atoms: C_14  and  C_21
REMARK   10  A    between atoms: C_22  and  C_23
REMARK   11  A    between atoms: C_24  and  C_25
REMARK                            x       y       z     vdW  Elec       q    Type
REMARK                         _______ _______ _______ _____ _____    ______ ____
ROOT
ATOM      3  N   UNL     1      -0.382   1.620  24.453  0.00  0.00    -0.299 NA
ATOM      4  N   UNL     1      -5.396   1.719  25.047  0.00  0.00    -0.343 N 
ATOM      6  C   UNL     1      -0.642   2.648  25.470  0.00  0.00    +0.085 C 
ATOM      7  C   UNL     1      -2.114   3.003  25.701  0.00  0.00    -0.021 A 
ATOM      8  C   UNL     1      -0.916   0.304  24.768  0.00  0.00    +0.145 C 
ATOM      9  C   UNL     1      -3.225   2.213  25.283  0.00  0.00    +0.008 A 
ATOM     11  C   UNL     1      -2.266   0.069  24.093  0.00  0.00    +0.065 C 
ATOM     12  C   UNL     1      -3.356   0.957  24.596  0.00  0.00    -0.020 A 
ATOM     13  C   UNL     1      -4.525   2.645  25.570  0.00  0.00    +0.050 A 
ATOM     15  C   UNL     1      -4.705   0.698  24.465  0.00  0.00    +0.090 A 
ATOM     16  C   UNL     1      -2.422   4.164  26.455  0.00  0.00    +0.006 A 
ATOM     18  C   UNL     1      -4.808   3.816  26.273  0.00  0.00    +0.026 A 
ATOM     19  C   UNL     1      -3.729   4.565  26.725  0.00  0.00    +0.002 A 
ATOM     33  H   UNL     1      -0.691   1.932  23.533  0.00  0.00    +0.123 HD
ENDROOT
BRANCH   8  17
ATOM      1  O   UNL     1       0.317  -1.739  24.771  0.00  0.00    -0.274 OA
ATOM      5  N   UNL     1       0.690  -0.199  23.065  0.00  0.00    -0.310 N 
ATOM     17  C   UNL     1       0.083  -0.668  24.217  0.00  0.00    +0.231 C 
ATOM     34  H   UNL     1       0.401   0.693  22.676  0.00  0.00    +0.149 HD
BRANCH   5  24
ATOM     24  C   UNL     1       1.707  -0.938  22.350  0.00  0.00    +0.139 C 
BRANCH  24  25
ATOM     25  C   UNL     1       3.090  -0.568  22.801  0.00  0.00    -0.030 A 
ATOM     27  C   UNL     1       3.612   0.688  22.492  0.00  0.00    +0.009 A 
ATOM     28  C   UNL     1       3.853  -1.481  23.528  0.00  0.00    +0.009 A 
ATOM     29  C   UNL     1       4.898   1.030  22.911  0.00  0.00    +0.046 A 
ATOM     30  C   UNL     1       5.139  -1.139  23.948  0.00  0.00    +0.046 A 
ATOM     31  C   UNL     1       5.662   0.117  23.639  0.00  0.00    +0.120 A 
BRANCH  31   2
ATOM      2  O   UNL     1       6.916   0.452  24.048  0.00  0.00    -0.495 OA
ATOM     32  C   UNL     1       8.008  -0.129  23.337  0.00  0.00    +0.277 C 
ENDBRANCH  31   2
ENDBRANCH  24  25
ENDBRANCH   5  24
ENDBRANCH   8  17
BRANCH   6  10
ATOM     10  C   UNL     1       0.193   3.860  25.021  0.00  0.00    +0.026 C 
BRANCH  10  14
ATOM     14  C   UNL     1      -0.551   4.770  24.040  0.00  0.00    -0.015 C 
ATOM     20  C   UNL     1       0.353   5.068  22.842  0.00  0.00    +0.007 C 
ATOM     21  C   UNL     1      -1.005   6.082  24.684  0.00  0.00    +0.007 C 
ENDBRANCH  10  14
ENDBRANCH   6  10
BRANCH   4  22
ATOM     22  C   UNL     1      -6.840   1.790  25.114  0.00  0.00    +0.148 C 
BRANCH  22  23
ATOM     23  C   UNL     1      -7.344   1.922  26.521  0.00  0.00    -0.013 C 
ATOM     26  C   UNL     1      -6.892   1.193  27.547  0.00  0.00    +0.005 C 
ENDBRANCH  22  23
ENDBRANCH   4  22
TORSDOF 8
ENDMDL
