MODEL 1
REMARK VINA RESULT:      -4.6      0.000      0.000
REMARK  Name = 11886183
REMARK  5 active torsions:
REMARK  status: ('A' for Active; 'I' for Inactive)
REMARK    1  A    between atoms: O_3  and  C_17
REMARK    2  A    between atoms: O_3  and  C_20
REMARK    3  A    between atoms: N_5  and  C_13
REMARK    4  A    between atoms: N_6  and  C_14
REMARK    5  A    between atoms: N_10  and  C_19
REMARK                            x       y       z     vdW  Elec       q    Type
REMARK                         _______ _______ _______ _____ _____    ______ ____
ROOT
ATOM      1  O   UNL     1      13.771  -8.740  29.837  0.00  0.00    -0.370 OA
ATOM      2  O   UNL     1      16.572  -8.170  31.152  0.00  0.00    -0.370 OA
ATOM     11  C   UNL     1      15.418  -7.358  30.868  0.00  0.00    +0.176 C 
ATOM     12  C   UNL     1      14.848  -7.835  29.546  0.00  0.00    +0.172 C 
ATOM     13  C   UNL     1      14.326  -7.640  31.882  0.00  0.00    +0.171 C 
ATOM     14  C   UNL     1      15.992  -8.574  28.891  0.00  0.00    +0.131 C 
ATOM     15  C   UNL     1      13.567  -8.804  31.255  0.00  0.00    +0.190 C 
ATOM     16  C   UNL     1      16.756  -9.114  30.086  0.00  0.00    +0.185 C 
ENDROOT
BRANCH  14   6
ATOM      4  O   UNL     1      15.176  -7.083  26.584  0.00  0.00    -0.252 OA
ATOM      6  N   UNL     1      16.811  -7.682  28.107  0.00  0.00    -0.292 N 
ATOM     10  N   UNL     1      17.347  -6.203  26.434  0.00  0.00    -0.269 N 
ATOM     18  C   UNL     1      16.333  -6.987  26.989  0.00  0.00    +0.304 C 
ATOM     31  H   UNL     1      17.760  -7.498  28.418  0.00  0.00    +0.151 HD
ATOM     32  H   UNL     1      18.253  -6.239  26.892  0.00  0.00    +0.156 HD
BRANCH  10  19
ATOM     19  C   UNL     1      17.270  -5.357  25.303  0.00  0.00    +0.035 A 
ATOM     21  C   UNL     1      17.405  -5.903  24.036  0.00  0.00    +0.023 A 
ATOM     22  C   UNL     1      17.058  -3.999  25.483  0.00  0.00    +0.023 A 
ATOM     25  C   UNL     1      17.329  -5.069  22.921  0.00  0.00    +0.002 A 
ATOM     26  C   UNL     1      16.981  -3.165  24.368  0.00  0.00    +0.002 A 
ATOM     29  C   UNL     1      17.117  -3.700  23.086  0.00  0.00    +0.000 A 
ENDBRANCH  10  19
ENDBRANCH  14   6
BRANCH  13   5
ATOM      5  N   UNL     1      13.513  -6.456  32.177  0.00  0.00    -0.187 N 
ATOM      7  N   UNL     1      12.180  -6.504  32.105  0.00  0.00    -0.041 NA
ATOM      8  N   UNL     1      12.857  -4.466  32.702  0.00  0.00    -0.071 NA
ATOM      9  N   UNL     1      11.782  -5.281  32.428  0.00  0.00    -0.020 NA
ATOM     17  C   UNL     1      13.921  -5.217  32.540  0.00  0.00    +0.342 A 
BRANCH  17   3
ATOM      3  O   UNL     1      15.179  -4.849  32.697  0.00  0.00    -0.423 OA
BRANCH   3  20
ATOM     20  C   UNL     1      15.711  -3.724  32.080  0.00  0.00    +0.132 A 
ATOM     23  C   UNL     1      16.049  -2.632  32.854  0.00  0.00    +0.046 A 
ATOM     24  C   UNL     1      15.886  -3.732  30.710  0.00  0.00    +0.046 A 
ATOM     27  C   UNL     1      16.584  -1.502  32.234  0.00  0.00    +0.004 A 
ATOM     28  C   UNL     1      16.420  -2.603  30.089  0.00  0.00    +0.004 A 
ATOM     30  C   UNL     1      16.768  -1.488  30.851  0.00  0.00    +0.000 A 
ENDBRANCH   3  20
ENDBRANCH  17   3
ENDBRANCH  13   5
TORSDOF 5
ENDMDL
MODEL 2
REMARK VINA RESULT:      -3.8      2.196      3.222
REMARK  Name = 11886183
REMARK  5 active torsions:
REMARK  status: ('A' for Active; 'I' for Inactive)
REMARK    1  A    between atoms: O_3  and  C_17
REMARK    2  A    between atoms: O_3  and  C_20
REMARK    3  A    between atoms: N_5  and  C_13
REMARK    4  A    between atoms: N_6  and  C_14
REMARK    5  A    between atoms: N_10  and  C_19
REMARK                            x       y       z     vdW  Elec       q    Type
REMARK                         _______ _______ _______ _____ _____    ______ ____
ROOT
ATOM      1  O   UNL     1      14.801  -9.904  27.045  0.00  0.00    -0.370 OA
ATOM      2  O   UNL     1      17.074  -8.414  28.628  0.00  0.00    -0.370 OA
ATOM     11  C   UNL     1      15.644  -8.495  28.773  0.00  0.00    +0.176 C 
ATOM     12  C   UNL     1      15.054  -8.529  27.377  0.00  0.00    +0.172 C 
ATOM     13  C   UNL     1      15.262  -9.828  29.386  0.00  0.00    +0.171 C 
ATOM     14  C   UNL     1      16.146  -7.969  26.495  0.00  0.00    +0.131 C 
ATOM     15  C   UNL     1      15.115 -10.736  28.170  0.00  0.00    +0.190 C 
ATOM     16  C   UNL     1      17.404  -8.389  27.232  0.00  0.00    +0.185 C 
ENDROOT
BRANCH  14   6
ATOM      4  O   UNL     1      17.148  -6.331  24.368  0.00  0.00    -0.252 OA
ATOM      6  N   UNL     1      16.053  -6.533  26.395  0.00  0.00    -0.292 N 
ATOM     10  N   UNL     1      16.333  -4.439  25.493  0.00  0.00    -0.269 N 
ATOM     18  C   UNL     1      16.571  -5.805  25.316  0.00  0.00    +0.304 C 
ATOM     31  H   UNL     1      15.531  -6.032  27.107  0.00  0.00    +0.151 HD
ATOM     32  H   UNL     1      15.840  -4.168  26.340  0.00  0.00    +0.156 HD
BRANCH  10  19
ATOM     19  C   UNL     1      16.696  -3.377  24.633  0.00  0.00    +0.035 A 
ATOM     21  C   UNL     1      16.951  -3.641  23.297  0.00  0.00    +0.023 A 
ATOM     22  C   UNL     1      16.787  -2.092  25.144  0.00  0.00    +0.023 A 
ATOM     25  C   UNL     1      17.309  -2.593  22.449  0.00  0.00    +0.002 A 
ATOM     26  C   UNL     1      17.144  -1.043  24.296  0.00  0.00    +0.002 A 
ATOM     29  C   UNL     1      17.405  -1.293  22.948  0.00  0.00    +0.000 A 
ENDBRANCH  10  19
ENDBRANCH  14   6
BRANCH  13   5
ATOM      5  N   UNL     1      14.073  -9.734  30.238  0.00  0.00    -0.187 N 
ATOM      7  N   UNL     1      12.943 -10.368  29.910  0.00  0.00    -0.041 NA
ATOM      8  N   UNL     1      12.686  -9.249  31.822  0.00  0.00    -0.071 NA
ATOM      9  N   UNL     1      12.095 -10.068  30.886  0.00  0.00    -0.020 NA
ATOM     17  C   UNL     1      13.914  -9.056  31.399  0.00  0.00    +0.342 A 
BRANCH  17   3
ATOM      3  O   UNL     1      14.846  -8.331  31.987  0.00  0.00    -0.423 OA
BRANCH   3  20
ATOM     20  C   UNL     1      14.965  -6.962  31.787  0.00  0.00    +0.132 A 
ATOM     23  C   UNL     1      13.841  -6.167  31.904  0.00  0.00    +0.046 A 
ATOM     24  C   UNL     1      16.204  -6.436  31.475  0.00  0.00    +0.046 A 
ATOM     27  C   UNL     1      13.962  -4.792  31.702  0.00  0.00    +0.004 A 
ATOM     28  C   UNL     1      16.324  -5.061  31.274  0.00  0.00    +0.004 A 
ATOM     30  C   UNL     1      15.203  -4.239  31.386  0.00  0.00    +0.000 A 
ENDBRANCH   3  20
ENDBRANCH  17   3
ENDBRANCH  13   5
TORSDOF 5
ENDMDL
MODEL 3
REMARK VINA RESULT:      -1.0     18.624     19.936
REMARK  Name = 11886183
REMARK  5 active torsions:
REMARK  status: ('A' for Active; 'I' for Inactive)
REMARK    1  A    between atoms: O_3  and  C_17
REMARK    2  A    between atoms: O_3  and  C_20
REMARK    3  A    between atoms: N_5  and  C_13
REMARK    4  A    between atoms: N_6  and  C_14
REMARK    5  A    between atoms: N_10  and  C_19
REMARK                            x       y       z     vdW  Elec       q    Type
REMARK                         _______ _______ _______ _____ _____    ______ ____
ROOT
ATOM      1  O   UNL     1      -2.469   3.908  26.860  0.00  0.00    -0.370 OA
ATOM      2  O   UNL     1      -2.908   4.791  23.873  0.00  0.00    -0.370 OA
ATOM     11  C   UNL     1      -3.211   3.596  24.616  0.00  0.00    +0.176 C 
ATOM     12  C   UNL     1      -2.069   3.372  25.589  0.00  0.00    +0.172 C 
ATOM     13  C   UNL     1      -4.425   3.828  25.493  0.00  0.00    +0.171 C 
ATOM     14  C   UNL     1      -0.926   4.178  25.016  0.00  0.00    +0.131 C 
ATOM     15  C   UNL     1      -3.819   4.383  26.778  0.00  0.00    +0.190 C 
ATOM     16  C   UNL     1      -1.649   5.315  24.319  0.00  0.00    +0.185 C 
ENDROOT
BRANCH  14   6
ATOM      4  O   UNL     1       1.043   2.196  25.651  0.00  0.00    -0.252 OA
ATOM      6  N   UNL     1      -0.154   3.397  24.079  0.00  0.00    -0.292 N 
ATOM     10  N   UNL     1       1.379   1.849  23.354  0.00  0.00    -0.269 N 
ATOM     18  C   UNL     1       0.793   2.444  24.474  0.00  0.00    +0.304 C 
ATOM     31  H   UNL     1      -0.353   3.497  23.088  0.00  0.00    +0.151 HD
ATOM     32  H   UNL     1       1.058   2.172  22.445  0.00  0.00    +0.156 HD
BRANCH  10  19
ATOM     19  C   UNL     1       2.375   0.845  23.325  0.00  0.00    +0.035 A 
ATOM     21  C   UNL     1       3.695   1.203  23.104  0.00  0.00    +0.023 A 
ATOM     22  C   UNL     1       2.011  -0.478  23.521  0.00  0.00    +0.023 A 
ATOM     25  C   UNL     1       4.677   0.213  23.076  0.00  0.00    +0.002 A 
ATOM     26  C   UNL     1       2.992  -1.468  23.494  0.00  0.00    +0.002 A 
ATOM     29  C   UNL     1       4.326  -1.123  23.271  0.00  0.00    +0.000 A 
ENDBRANCH  10  19
ENDBRANCH  14   6
BRANCH  13   5
ATOM      5  N   UNL     1      -5.236   2.619  25.662  0.00  0.00    -0.187 N 
ATOM      7  N   UNL     1      -6.300   2.613  26.470  0.00  0.00    -0.041 NA
ATOM      8  N   UNL     1      -6.028   0.613  25.523  0.00  0.00    -0.071 NA
ATOM      9  N   UNL     1      -6.784   1.381  26.381  0.00  0.00    -0.020 NA
ATOM     17  C   UNL     1      -5.074   1.403  25.088  0.00  0.00    +0.342 A 
BRANCH  17   3
ATOM      3  O   UNL     1      -4.113   1.087  24.241  0.00  0.00    -0.423 OA
BRANCH   3  20
ATOM     20  C   UNL     1      -3.391  -0.095  24.337  0.00  0.00    +0.132 A 
ATOM     23  C   UNL     1      -2.048  -0.036  24.654  0.00  0.00    +0.046 A 
ATOM     24  C   UNL     1      -4.037  -1.295  24.112  0.00  0.00    +0.046 A 
ATOM     27  C   UNL     1      -1.323  -1.224  24.750  0.00  0.00    +0.004 A 
ATOM     28  C   UNL     1      -3.313  -2.483  24.208  0.00  0.00    +0.004 A 
ATOM     30  C   UNL     1      -1.955  -2.447  24.527  0.00  0.00    +0.000 A 
ENDBRANCH   3  20
ENDBRANCH  17   3
ENDBRANCH  13   5
TORSDOF 5
ENDMDL
MODEL 4
REMARK VINA RESULT:      -0.8     18.181     19.051
REMARK  Name = 11886183
REMARK  5 active torsions:
REMARK  status: ('A' for Active; 'I' for Inactive)
REMARK    1  A    between atoms: O_3  and  C_17
REMARK    2  A    between atoms: O_3  and  C_20
REMARK    3  A    between atoms: N_5  and  C_13
REMARK    4  A    between atoms: N_6  and  C_14
REMARK    5  A    between atoms: N_10  and  C_19
REMARK                            x       y       z     vdW  Elec       q    Type
REMARK                         _______ _______ _______ _____ _____    ______ ____
ROOT
ATOM      1  O   UNL     1      -4.323  -0.849  23.785  0.00  0.00    -0.370 OA
ATOM      2  O   UNL     1      -2.137  -0.379  25.997  0.00  0.00    -0.370 OA
ATOM     11  C   UNL     1      -2.936   0.497  25.180  0.00  0.00    +0.176 C 
ATOM     12  C   UNL     1      -3.066  -0.156  23.818  0.00  0.00    +0.172 C 
ATOM     13  C   UNL     1      -4.353   0.553  25.718  0.00  0.00    +0.171 C 
ATOM     14  C   UNL     1      -1.922  -1.142  23.765  0.00  0.00    +0.131 C 
ATOM     15  C   UNL     1      -5.036  -0.611  25.006  0.00  0.00    +0.190 C 
ATOM     16  C   UNL     1      -1.758  -1.527  25.224  0.00  0.00    +0.185 C 
ENDROOT
BRANCH  14   6
ATOM      4  O   UNL     1       0.768  -1.654  24.610  0.00  0.00    -0.252 OA
ATOM      6  N   UNL     1      -0.723  -0.526  23.250  0.00  0.00    -0.292 N 
ATOM     10  N   UNL     1       1.521  -0.085  23.036  0.00  0.00    -0.269 N 
ATOM     18  C   UNL     1       0.560  -0.834  23.719  0.00  0.00    +0.304 C 
ATOM     31  H   UNL     1      -0.807   0.113  22.465  0.00  0.00    +0.151 HD
ATOM     32  H   UNL     1       1.178   0.555  22.324  0.00  0.00    +0.156 HD
BRANCH  10  19
ATOM     19  C   UNL     1       2.924  -0.103  23.213  0.00  0.00    +0.035 A 
ATOM     21  C   UNL     1       3.531  -1.248  23.703  0.00  0.00    +0.023 A 
ATOM     22  C   UNL     1       3.663   1.023  22.892  0.00  0.00    +0.023 A 
ATOM     25  C   UNL     1       4.915  -1.267  23.878  0.00  0.00    +0.002 A 
ATOM     26  C   UNL     1       5.047   1.005  23.066  0.00  0.00    +0.002 A 
ATOM     29  C   UNL     1       5.674  -0.140  23.559  0.00  0.00    +0.000 A 
ENDBRANCH  10  19
ENDBRANCH  14   6
BRANCH  13   5
ATOM      5  N   UNL     1      -4.981   1.860  25.511  0.00  0.00    -0.187 N 
ATOM      7  N   UNL     1      -6.185   1.961  24.939  0.00  0.00    -0.041 NA
ATOM      8  N   UNL     1      -5.398   3.980  25.463  0.00  0.00    -0.071 NA
ATOM      9  N   UNL     1      -6.437   3.263  24.913  0.00  0.00    -0.020 NA
ATOM     17  C   UNL     1      -4.506   3.088  25.828  0.00  0.00    +0.342 A 
BRANCH  17   3
ATOM      3  O   UNL     1      -3.343   3.326  26.403  0.00  0.00    -0.423 OA
BRANCH   3  20
ATOM     20  C   UNL     1      -2.236   3.775  25.694  0.00  0.00    +0.132 A 
ATOM     23  C   UNL     1      -2.097   5.129  25.457  0.00  0.00    +0.046 A 
ATOM     24  C   UNL     1      -1.308   2.856  25.247  0.00  0.00    +0.046 A 
ATOM     27  C   UNL     1      -0.986   5.580  24.745  0.00  0.00    +0.004 A 
ATOM     28  C   UNL     1      -0.197   3.306  24.535  0.00  0.00    +0.004 A 
ATOM     30  C   UNL     1      -0.036   4.669  24.284  0.00  0.00    +0.000 A 
ENDBRANCH   3  20
ENDBRANCH  17   3
ENDBRANCH  13   5
TORSDOF 5
ENDMDL
