MODEL 1
REMARK VINA RESULT:      -1.3      0.000      0.000
REMARK  Name = 45784326
REMARK  5 active torsions:
REMARK  status: ('A' for Active; 'I' for Inactive)
REMARK    1  A    between atoms: N_1  and  C_10
REMARK    2  A    between atoms: C_5  and  C_9
REMARK    3  A    between atoms: C_10  and  C_11
REMARK    4  A    between atoms: C_20  and  C_24
REMARK    5  A    between atoms: C_21  and  C_23
REMARK                            x       y       z     vdW  Elec       q    Type
REMARK                         _______ _______ _______ _____ _____    ______ ____
ROOT
ATOM      1  N   UNL     1      -3.289  -0.511  24.688  0.00  0.00    -0.297 NA
ATOM      5  C   UNL     1      -1.196  -1.157  23.855  0.00  0.00    +0.070 C 
ATOM      6  C   UNL     1      -1.422  -1.803  25.232  0.00  0.00    +0.028 C 
ATOM      7  C   UNL     1      -2.250  -0.045  23.768  0.00  0.00    +0.096 C 
ATOM      8  C   UNL     1      -2.564  -1.010  25.856  0.00  0.00    +0.085 C 
ENDROOT
BRANCH   5   9
ATOM      2  N   UNL     1       1.298  -1.448  23.856  0.00  0.00    -0.342 N 
ATOM      3  N   UNL     1       0.556   0.529  23.162  0.00  0.00    -0.232 NA
ATOM      9  C   UNL     1       0.210  -0.656  23.612  0.00  0.00    +0.113 A 
ATOM     12  C   UNL     1       2.420  -0.725  23.543  0.00  0.00    +0.067 A 
ATOM     13  C   UNL     1       1.931   0.505  23.113  0.00  0.00    +0.089 A 
ATOM     16  C   UNL     1       3.780  -1.032  23.599  0.00  0.00    +0.046 A 
ATOM     17  C   UNL     1       2.838   1.500  22.710  0.00  0.00    +0.031 A 
ATOM     20  C   UNL     1       4.669  -0.030  23.194  0.00  0.00    +0.054 A 
ATOM     22  C   UNL     1       4.208   1.214  22.757  0.00  0.00    +0.021 A 
ATOM     25  H   UNL     1       1.281  -2.397  24.205  0.00  0.00    +0.167 HD
BRANCH  20  24
ATOM      4  N   UNL     1       7.216  -0.495  23.255  0.00  0.00    -0.191 NA
ATOM     24  C   UNL     1       6.075  -0.287  23.228  0.00  0.00    +0.099 C 
ENDBRANCH  20  24
ENDBRANCH   5   9
BRANCH   1  10
ATOM     10  C   UNL     1      -4.237   0.539  25.032  0.00  0.00    +0.119 C 
BRANCH  10  11
ATOM     11  C   UNL     1      -3.591   1.899  25.042  0.00  0.00    -0.033 A 
ATOM     14  C   UNL     1      -4.213   2.971  24.404  0.00  0.00    +0.005 A 
ATOM     15  C   UNL     1      -2.368   2.084  25.688  0.00  0.00    +0.005 A 
ATOM     18  C   UNL     1      -3.614   4.230  24.412  0.00  0.00    +0.003 A 
ATOM     19  C   UNL     1      -1.768   3.343  25.695  0.00  0.00    +0.003 A 
ATOM     21  C   UNL     1      -2.390   4.416  25.057  0.00  0.00    -0.050 A 
ATOM     23  C   UNL     1      -1.749   5.762  25.064  0.00  0.00    +0.044 C 
ENDBRANCH  10  11
ENDBRANCH   1  10
TORSDOF 4
ENDMDL
MODEL 2
REMARK VINA RESULT:      -0.2      2.056      8.141
REMARK  Name = 45784326
REMARK  5 active torsions:
REMARK  status: ('A' for Active; 'I' for Inactive)
REMARK    1  A    between atoms: N_1  and  C_10
REMARK    2  A    between atoms: C_5  and  C_9
REMARK    3  A    between atoms: C_10  and  C_11
REMARK    4  A    between atoms: C_20  and  C_24
REMARK    5  A    between atoms: C_21  and  C_23
REMARK                            x       y       z     vdW  Elec       q    Type
REMARK                         _______ _______ _______ _____ _____    ______ ____
ROOT
ATOM      1  N   UNL     1       0.583  -0.899  23.626  0.00  0.00    -0.297 NA
ATOM      5  C   UNL     1      -1.188  -0.368  25.067  0.00  0.00    +0.070 C 
ATOM      6  C   UNL     1      -1.388  -1.787  24.507  0.00  0.00    +0.028 C 
ATOM      7  C   UNL     1      -0.131   0.265  24.152  0.00  0.00    +0.096 C 
ATOM      8  C   UNL     1      -0.462  -1.868  23.299  0.00  0.00    +0.085 C 
ENDROOT
BRANCH   5   9
ATOM      2  N   UNL     1      -2.407   1.824  25.169  0.00  0.00    -0.342 N 
ATOM      3  N   UNL     1      -3.680   0.004  25.265  0.00  0.00    -0.232 NA
ATOM      9  C   UNL     1      -2.450   0.457  25.169  0.00  0.00    +0.113 A 
ATOM     12  C   UNL     1      -3.695   2.282  25.272  0.00  0.00    +0.067 A 
ATOM     13  C   UNL     1      -4.471   1.128  25.330  0.00  0.00    +0.089 A 
ATOM     16  C   UNL     1      -4.233   3.568  25.319  0.00  0.00    +0.046 A 
ATOM     17  C   UNL     1      -5.867   1.244  25.441  0.00  0.00    +0.031 A 
ATOM     20  C   UNL     1      -5.624   3.667  25.429  0.00  0.00    +0.054 A 
ATOM     22  C   UNL     1      -6.428   2.526  25.489  0.00  0.00    +0.021 A 
ATOM     25  H   UNL     1      -1.577   2.397  25.106  0.00  0.00    +0.167 HD
BRANCH  20  24
ATOM      4  N   UNL     1      -6.725   6.010  25.522  0.00  0.00    -0.191 NA
ATOM     24  C   UNL     1      -6.232   4.960  25.480  0.00  0.00    +0.099 C 
ENDBRANCH  20  24
ENDBRANCH   5   9
BRANCH   1  10
ATOM     10  C   UNL     1       1.412  -0.569  22.475  0.00  0.00    +0.119 C 
BRANCH  10  11
ATOM     11  C   UNL     1       2.854  -0.373  22.859  0.00  0.00    -0.033 A 
ATOM     14  C   UNL     1       3.505   0.817  22.538  0.00  0.00    +0.005 A 
ATOM     15  C   UNL     1       3.539  -1.383  23.536  0.00  0.00    +0.005 A 
ATOM     18  C   UNL     1       4.842   0.998  22.891  0.00  0.00    +0.003 A 
ATOM     19  C   UNL     1       4.876  -1.203  23.889  0.00  0.00    +0.003 A 
ATOM     21  C   UNL     1       5.528  -0.012  23.567  0.00  0.00    -0.050 A 
ATOM     23  C   UNL     1       6.958   0.181  23.944  0.00  0.00    +0.044 C 
ENDBRANCH  10  11
ENDBRANCH   1  10
TORSDOF 4
ENDMDL
MODEL 3
REMARK VINA RESULT:       1.2      1.490      2.446
REMARK  Name = 45784326
REMARK  5 active torsions:
REMARK  status: ('A' for Active; 'I' for Inactive)
REMARK    1  A    between atoms: N_1  and  C_10
REMARK    2  A    between atoms: C_5  and  C_9
REMARK    3  A    between atoms: C_10  and  C_11
REMARK    4  A    between atoms: C_20  and  C_24
REMARK    5  A    between atoms: C_21  and  C_23
REMARK                            x       y       z     vdW  Elec       q    Type
REMARK                         _______ _______ _______ _____ _____    ______ ____
ROOT
ATOM      1  N   UNL     1      -5.080   0.570  24.877  0.00  0.00    -0.297 NA
ATOM      5  C   UNL     1      -3.295  -0.851  24.338  0.00  0.00    +0.070 C 
ATOM      6  C   UNL     1      -3.802  -1.176  25.754  0.00  0.00    +0.028 C 
ATOM      7  C   UNL     1      -3.897   0.523  24.016  0.00  0.00    +0.096 C 
ATOM      8  C   UNL     1      -4.632   0.034  26.162  0.00  0.00    +0.085 C 
ENDROOT
BRANCH   5   9
ATOM      2  N   UNL     1      -1.125   0.089  23.495  0.00  0.00    -0.342 N 
ATOM      3  N   UNL     1      -0.975  -1.806  24.645  0.00  0.00    -0.232 NA
ATOM      9  C   UNL     1      -1.792  -0.889  24.179  0.00  0.00    +0.113 A 
ATOM     12  C   UNL     1       0.211  -0.217  23.523  0.00  0.00    +0.067 A 
ATOM     13  C   UNL     1       0.279  -1.405  24.246  0.00  0.00    +0.089 A 
ATOM     16  C   UNL     1       1.331   0.421  22.992  0.00  0.00    +0.046 A 
ATOM     17  C   UNL     1       1.531  -2.004  24.463  0.00  0.00    +0.031 A 
ATOM     20  C   UNL     1       2.570  -0.189  23.217  0.00  0.00    +0.054 A 
ATOM     22  C   UNL     1       2.670  -1.380  23.940  0.00  0.00    +0.021 A 
ATOM     25  H   UNL     1      -1.540   0.896  23.048  0.00  0.00    +0.167 HD
BRANCH  20  24
ATOM      4  N   UNL     1       4.716   0.916  22.277  0.00  0.00    -0.191 NA
ATOM     24  C   UNL     1       3.755   0.421  22.699  0.00  0.00    +0.099 C 
ENDBRANCH  20  24
ENDBRANCH   5   9
BRANCH   1  10
ATOM     10  C   UNL     1      -5.626   1.914  24.997  0.00  0.00    +0.119 C 
BRANCH  10  11
ATOM     11  C   UNL     1      -4.545   2.962  24.995  0.00  0.00    -0.033 A 
ATOM     14  C   UNL     1      -4.029   3.433  26.201  0.00  0.00    +0.005 A 
ATOM     15  C   UNL     1      -4.061   3.463  23.786  0.00  0.00    +0.005 A 
ATOM     18  C   UNL     1      -3.029   4.406  26.200  0.00  0.00    +0.003 A 
ATOM     19  C   UNL     1      -3.061   4.435  23.784  0.00  0.00    +0.003 A 
ATOM     21  C   UNL     1      -2.545   4.907  24.991  0.00  0.00    -0.050 A 
ATOM     23  C   UNL     1      -1.477   5.947  24.991  0.00  0.00    +0.044 C 
ENDBRANCH  10  11
ENDBRANCH   1  10
TORSDOF 4
ENDMDL
