MODEL 1
REMARK VINA RESULT:      -0.6      0.000      0.000
REMARK  Name = 75536974
REMARK  4 active torsions:
REMARK  status: ('A' for Active; 'I' for Inactive)
REMARK    1  A    between atoms: S_1  and  N_6
REMARK    2  A    between atoms: S_1  and  C_16
REMARK    3  A    between atoms: N_7  and  C_15
REMARK    4  A    between atoms: C_15  and  C_17
REMARK                            x       y       z     vdW  Elec       q    Type
REMARK                         _______ _______ _______ _____ _____    ______ ____
ROOT
ATOM      2  O   UNL     1       0.264  -1.524  23.851  0.00  0.00    -0.252 OA
ATOM      5  N   UNL     1      -0.327   0.588  24.697  0.00  0.00    -0.278 N 
ATOM      6  N   UNL     1      -1.986   2.706  25.457  0.00  0.00    -0.173 NA
ATOM      7  N   UNL     1       1.397   0.458  23.262  0.00  0.00    -0.279 N 
ATOM      9  C   UNL     1       0.206   1.936  24.646  0.00  0.00    +0.111 C 
ATOM     10  C   UNL     1      -0.918   2.944  24.429  0.00  0.00    +0.133 C 
ATOM     11  C   UNL     1       1.233   1.879  23.517  0.00  0.00    +0.133 C 
ATOM     12  C   UNL     1      -1.446   0.292  25.568  0.00  0.00    +0.127 C 
ATOM     13  C   UNL     1      -2.555   1.319  25.359  0.00  0.00    +0.128 C 
ATOM     14  C   UNL     1       0.426  -0.312  23.930  0.00  0.00    +0.305 C 
ENDROOT
BRANCH   6   1
ATOM      1  S   UNL     1      -3.144   3.960  25.610  0.00  0.00    +0.061 S 
ATOM      3  O   UNL     1      -3.046   4.832  24.460  0.00  0.00    -0.153 OA
ATOM      4  O   UNL     1      -3.088   4.489  26.955  0.00  0.00    -0.153 OA
BRANCH   1  16
ATOM     16  C   UNL     1      -4.632   3.024  25.455  0.00  0.00    +0.105 A 
ATOM     18  C   UNL     1      -5.493   2.899  26.545  0.00  0.00    +0.028 A 
ATOM     19  C   UNL     1      -4.946   2.408  24.244  0.00  0.00    +0.028 A 
ATOM     22  C   UNL     1      -6.668   2.157  26.424  0.00  0.00    +0.002 A 
ATOM     23  C   UNL     1      -6.121   1.665  24.122  0.00  0.00    +0.002 A 
ATOM     25  C   UNL     1      -6.981   1.539  25.212  0.00  0.00    +0.000 A 
ENDBRANCH   1  16
ENDBRANCH   6   1
BRANCH   7  15
ATOM     15  C   UNL     1       2.374  -0.043  22.320  0.00  0.00    +0.146 C 
BRANCH  15  17
ATOM      8  N   UNL     1       5.200  -1.725  24.188  0.00  0.00    -0.263 NA
ATOM     17  C   UNL     1       3.712  -0.264  22.964  0.00  0.00    -0.012 A 
ATOM     20  C   UNL     1       4.686   0.729  22.951  0.00  0.00    +0.008 A 
ATOM     21  C   UNL     1       4.016  -1.462  23.590  0.00  0.00    +0.115 A 
ATOM     24  C   UNL     1       5.916   0.496  23.556  0.00  0.00    +0.020 A 
ATOM     26  C   UNL     1       6.121  -0.737  24.156  0.00  0.00    +0.111 A 
ENDBRANCH  15  17
ENDBRANCH   7  15
TORSDOF 4
ENDMDL
MODEL 2
REMARK VINA RESULT:       0.7      2.075      2.974
REMARK  Name = 75536974
REMARK  4 active torsions:
REMARK  status: ('A' for Active; 'I' for Inactive)
REMARK    1  A    between atoms: S_1  and  N_6
REMARK    2  A    between atoms: S_1  and  C_16
REMARK    3  A    between atoms: N_7  and  C_15
REMARK    4  A    between atoms: C_15  and  C_17
REMARK                            x       y       z     vdW  Elec       q    Type
REMARK                         _______ _______ _______ _____ _____    ______ ____
ROOT
ATOM      2  O   UNL     1      -0.499  -2.574  23.825  0.00  0.00    -0.252 OA
ATOM      5  N   UNL     1      -1.339  -0.534  24.635  0.00  0.00    -0.278 N 
ATOM      6  N   UNL     1      -3.237   1.407  25.302  0.00  0.00    -0.173 NA
ATOM      7  N   UNL     1       0.465  -0.488  23.296  0.00  0.00    -0.279 N 
ATOM      9  C   UNL     1      -0.939   0.860  24.612  0.00  0.00    +0.111 C 
ATOM     10  C   UNL     1      -2.144   1.753  24.334  0.00  0.00    +0.133 C 
ATOM     11  C   UNL     1       0.148   0.909  23.541  0.00  0.00    +0.133 C 
ATOM     12  C   UNL     1      -2.470  -0.943  25.444  0.00  0.00    +0.127 C 
ATOM     13  C   UNL     1      -3.661  -0.028  25.175  0.00  0.00    +0.128 C 
ATOM     14  C   UNL     1      -0.461  -1.352  23.912  0.00  0.00    +0.305 C 
ENDROOT
BRANCH   6   1
ATOM      1  S   UNL     1      -4.520   2.541  25.391  0.00  0.00    +0.061 S 
ATOM      3  O   UNL     1      -4.933   2.676  26.770  0.00  0.00    -0.153 OA
ATOM      4  O   UNL     1      -5.479   2.246  24.349  0.00  0.00    -0.153 OA
BRANCH   1  16
ATOM     16  C   UNL     1      -3.659   4.014  24.937  0.00  0.00    +0.105 A 
ATOM     18  C   UNL     1      -4.130   4.799  23.885  0.00  0.00    +0.028 A 
ATOM     19  C   UNL     1      -2.508   4.390  25.627  0.00  0.00    +0.028 A 
ATOM     22  C   UNL     1      -3.449   5.962  23.524  0.00  0.00    +0.002 A 
ATOM     23  C   UNL     1      -1.826   5.552  25.267  0.00  0.00    +0.002 A 
ATOM     25  C   UNL     1      -2.297   6.338  24.215  0.00  0.00    +0.000 A 
ENDBRANCH   1  16
ENDBRANCH   6   1
BRANCH   7  15
ATOM     15  C   UNL     1       1.535  -0.886  22.410  0.00  0.00    +0.146 C 
BRANCH  15  17
ATOM      8  N   UNL     1       4.540   1.293  23.137  0.00  0.00    -0.263 NA
ATOM     17  C   UNL     1       2.878  -0.450  22.921  0.00  0.00    -0.012 A 
ATOM     20  C   UNL     1       3.695  -1.327  23.626  0.00  0.00    +0.008 A 
ATOM     21  C   UNL     1       3.342   0.837  22.705  0.00  0.00    +0.115 A 
ATOM     24  C   UNL     1       4.934  -0.895  24.087  0.00  0.00    +0.020 A 
ATOM     26  C   UNL     1       5.306   0.413  23.819  0.00  0.00    +0.111 A 
ENDBRANCH  15  17
ENDBRANCH   7  15
TORSDOF 4
ENDMDL
MODEL 3
REMARK VINA RESULT:       1.3      2.448      3.703
REMARK  Name = 75536974
REMARK  4 active torsions:
REMARK  status: ('A' for Active; 'I' for Inactive)
REMARK    1  A    between atoms: S_1  and  N_6
REMARK    2  A    between atoms: S_1  and  C_16
REMARK    3  A    between atoms: N_7  and  C_15
REMARK    4  A    between atoms: C_15  and  C_17
REMARK                            x       y       z     vdW  Elec       q    Type
REMARK                         _______ _______ _______ _____ _____    ______ ____
ROOT
ATOM      2  O   UNL     1      -1.665  -3.206  23.521  0.00  0.00    -0.252 OA
ATOM      5  N   UNL     1      -2.821  -1.617  24.810  0.00  0.00    -0.278 N 
ATOM      6  N   UNL     1      -4.611   0.453  25.380  0.00  0.00    -0.173 NA
ATOM      7  N   UNL     1      -0.603  -1.822  25.107  0.00  0.00    -0.279 N 
ATOM      9  C   UNL     1      -2.518  -0.725  25.914  0.00  0.00    +0.111 C 
ATOM     10  C   UNL     1      -3.153   0.642  25.682  0.00  0.00    +0.133 C 
ATOM     11  C   UNL     1      -0.992  -0.716  25.965  0.00  0.00    +0.133 C 
ATOM     12  C   UNL     1      -4.191  -1.764  24.362  0.00  0.00    +0.127 C 
ATOM     13  C   UNL     1      -4.823  -0.391  24.156  0.00  0.00    +0.128 C 
ATOM     14  C   UNL     1      -1.694  -2.328  24.374  0.00  0.00    +0.305 C 
ENDROOT
BRANCH   6   1
ATOM      1  S   UNL     1      -5.562   1.877  25.457  0.00  0.00    +0.061 S 
ATOM      3  O   UNL     1      -6.111   2.004  26.790  0.00  0.00    -0.153 OA
ATOM      4  O   UNL     1      -6.415   1.935  24.290  0.00  0.00    -0.153 OA
BRANCH   1  16
ATOM     16  C   UNL     1      -4.302   3.099  25.272  0.00  0.00    +0.105 A 
ATOM     18  C   UNL     1      -3.814   3.409  24.003  0.00  0.00    +0.028 A 
ATOM     19  C   UNL     1      -3.792   3.751  26.394  0.00  0.00    +0.028 A 
ATOM     22  C   UNL     1      -2.816   4.372  23.856  0.00  0.00    +0.002 A 
ATOM     23  C   UNL     1      -2.793   4.714  26.248  0.00  0.00    +0.002 A 
ATOM     25  C   UNL     1      -2.305   5.024  24.978  0.00  0.00    +0.000 A 
ENDBRANCH   1  16
ENDBRANCH   6   1
BRANCH   7  15
ATOM     15  C   UNL     1       0.777  -2.229  24.961  0.00  0.00    +0.146 C 
BRANCH  15  17
ATOM      8  N   UNL     1       3.658  -0.626  23.108  0.00  0.00    -0.263 NA
ATOM     17  C   UNL     1       1.539  -1.311  24.050  0.00  0.00    -0.012 A 
ATOM     20  C   UNL     1       0.886  -0.323  23.319  0.00  0.00    +0.008 A 
ATOM     21  C   UNL     1       2.913  -1.420  23.909  0.00  0.00    +0.115 A 
ATOM     24  C   UNL     1       1.619   0.513  22.484  0.00  0.00    +0.020 A 
ATOM     26  C   UNL     1       2.990   0.322  22.414  0.00  0.00    +0.111 A 
ENDBRANCH  15  17
ENDBRANCH   7  15
TORSDOF 4
ENDMDL
MODEL 4
REMARK VINA RESULT:       1.5      2.032      2.414
REMARK  Name = 75536974
REMARK  4 active torsions:
REMARK  status: ('A' for Active; 'I' for Inactive)
REMARK    1  A    between atoms: S_1  and  N_6
REMARK    2  A    between atoms: S_1  and  C_16
REMARK    3  A    between atoms: N_7  and  C_15
REMARK    4  A    between atoms: C_15  and  C_17
REMARK                            x       y       z     vdW  Elec       q    Type
REMARK                         _______ _______ _______ _____ _____    ______ ____
ROOT
ATOM      2  O   UNL     1       1.182  -1.990  24.537  0.00  0.00    -0.252 OA
ATOM      5  N   UNL     1      -0.596  -0.477  24.802  0.00  0.00    -0.278 N 
ATOM      6  N   UNL     1      -3.219   0.395  25.225  0.00  0.00    -0.173 NA
ATOM      7  N   UNL     1       0.861  -0.127  23.128  0.00  0.00    -0.279 N 
ATOM      9  C   UNL     1      -1.007   0.787  24.220  0.00  0.00    +0.111 C 
ATOM     10  C   UNL     1      -2.510   0.789  23.962  0.00  0.00    +0.133 C 
ATOM     11  C   UNL     1      -0.147   0.905  22.963  0.00  0.00    +0.133 C 
ATOM     12  C   UNL     1      -1.308  -1.003  25.949  0.00  0.00    +0.127 C 
ATOM     13  C   UNL     1      -2.811  -0.974  25.689  0.00  0.00    +0.128 C 
ATOM     14  C   UNL     1       0.562  -0.989  24.201  0.00  0.00    +0.305 C 
ENDROOT
BRANCH   6   1
ATOM      1  S   UNL     1      -4.906   0.697  25.240  0.00  0.00    +0.061 S 
ATOM      3  O   UNL     1      -5.419   0.428  26.566  0.00  0.00    -0.153 OA
ATOM      4  O   UNL     1      -5.502   0.089  24.071  0.00  0.00    -0.153 OA
BRANCH   1  16
ATOM     16  C   UNL     1      -4.907   2.446  25.004  0.00  0.00    +0.105 A 
ATOM     18  C   UNL     1      -5.822   3.242  25.693  0.00  0.00    +0.028 A 
ATOM     19  C   UNL     1      -3.996   3.033  24.126  0.00  0.00    +0.028 A 
ATOM     22  C   UNL     1      -5.826   4.624  25.504  0.00  0.00    +0.002 A 
ATOM     23  C   UNL     1      -3.999   4.415  23.936  0.00  0.00    +0.002 A 
ATOM     25  C   UNL     1      -4.914   5.210  24.626  0.00  0.00    +0.000 A 
ENDBRANCH   1  16
ENDBRANCH   6   1
BRANCH   7  15
ATOM     15  C   UNL     1       1.952  -0.288  22.192  0.00  0.00    +0.146 C 
BRANCH  15  17
ATOM      8  N   UNL     1       5.016  -1.354  24.138  0.00  0.00    -0.263 NA
ATOM     17  C   UNL     1       3.289  -0.228  22.874  0.00  0.00    -0.012 A 
ATOM     20  C   UNL     1       4.033   0.947  22.890  0.00  0.00    +0.008 A 
ATOM     21  C   UNL     1       3.820  -1.341  23.506  0.00  0.00    +0.115 A 
ATOM     24  C   UNL     1       5.267   0.972  23.529  0.00  0.00    +0.020 A 
ATOM     26  C   UNL     1       5.710  -0.195  24.133  0.00  0.00    +0.111 A 
ENDBRANCH  15  17
ENDBRANCH   7  15
TORSDOF 4
ENDMDL
MODEL 5
REMARK VINA RESULT:       2.0      2.221      2.731
REMARK  Name = 75536974
REMARK  4 active torsions:
REMARK  status: ('A' for Active; 'I' for Inactive)
REMARK    1  A    between atoms: S_1  and  N_6
REMARK    2  A    between atoms: S_1  and  C_16
REMARK    3  A    between atoms: N_7  and  C_15
REMARK    4  A    between atoms: C_15  and  C_17
REMARK                            x       y       z     vdW  Elec       q    Type
REMARK                         _______ _______ _______ _____ _____    ______ ____
ROOT
ATOM      2  O   UNL     1       2.387   1.802  23.880  0.00  0.00    -0.252 OA
ATOM      5  N   UNL     1       0.145   1.144  23.634  0.00  0.00    -0.278 N 
ATOM      6  N   UNL     1      -2.426   0.358  24.402  0.00  0.00    -0.173 NA
ATOM      7  N   UNL     1       1.689   0.182  22.314  0.00  0.00    -0.279 N 
ATOM      9  C   UNL     1      -0.621   0.305  22.731  0.00  0.00    +0.111 C 
ATOM     10  C   UNL     1      -1.620  -0.542  23.511  0.00  0.00    +0.133 C 
ATOM     11  C   UNL     1       0.446  -0.495  21.987  0.00  0.00    +0.133 C 
ATOM     12  C   UNL     1      -0.545   1.952  24.619  0.00  0.00    +0.127 C 
ATOM     13  C   UNL     1      -1.558   1.100  25.377  0.00  0.00    +0.128 C 
ATOM     14  C   UNL     1       1.515   1.130  23.342  0.00  0.00    +0.305 C 
ENDROOT
BRANCH   6   1
ATOM      1  S   UNL     1      -3.835  -0.352  25.073  0.00  0.00    +0.061 S 
ATOM      3  O   UNL     1      -3.501  -0.940  26.352  0.00  0.00    -0.153 OA
ATOM      4  O   UNL     1      -4.505  -1.123  24.049  0.00  0.00    -0.153 OA
BRANCH   1  16
ATOM     16  C   UNL     1      -4.794   1.098  25.377  0.00  0.00    +0.105 A 
ATOM     18  C   UNL     1      -4.405   2.319  24.826  0.00  0.00    +0.028 A 
ATOM     19  C   UNL     1      -5.937   1.025  26.171  0.00  0.00    +0.028 A 
ATOM     22  C   UNL     1      -5.160   3.467  25.069  0.00  0.00    +0.002 A 
ATOM     23  C   UNL     1      -6.693   2.172  26.415  0.00  0.00    +0.002 A 
ATOM     25  C   UNL     1      -6.304   3.393  25.864  0.00  0.00    +0.000 A 
ENDBRANCH   1  16
ENDBRANCH   6   1
BRANCH   7  15
ATOM     15  C   UNL     1       2.950  -0.201  21.721  0.00  0.00    +0.146 C 
BRANCH  15  17
ATOM      8  N   UNL     1       5.134  -1.669  24.437  0.00  0.00    -0.263 NA
ATOM     17  C   UNL     1       4.037  -0.331  22.748  0.00  0.00    -0.012 A 
ATOM     20  C   UNL     1       4.934   0.707  22.978  0.00  0.00    +0.008 A 
ATOM     21  C   UNL     1       4.179  -1.488  23.497  0.00  0.00    +0.115 A 
ATOM     24  C   UNL     1       5.930   0.558  23.936  0.00  0.00    +0.020 A 
ATOM     26  C   UNL     1       5.987  -0.639  24.633  0.00  0.00    +0.111 A 
ENDBRANCH  15  17
ENDBRANCH   7  15
TORSDOF 4
ENDMDL
