MODEL 1
REMARK VINA RESULT:      -3.2      0.000      0.000
REMARK  Name = 26743246
REMARK  10 active torsions:
REMARK  status: ('A' for Active; 'I' for Inactive)
REMARK    1  A    between atoms: N_4  and  C_24
REMARK    2  A    between atoms: C_6  and  C_10
REMARK    3  A    between atoms: C_7  and  C_12
REMARK    4  A    between atoms: C_10  and  C_20
REMARK    5  A    between atoms: C_11  and  C_16
REMARK    6  A    between atoms: C_12  and  C_22
REMARK    7  A    between atoms: C_16  and  C_21
REMARK    8  A    between atoms: C_24  and  C_25
REMARK    9  A    between atoms: C_24  and  C_26
REMARK   10  A    between atoms: C_24  and  C_27
REMARK                            x       y       z     vdW  Elec       q    Type
REMARK                         _______ _______ _______ _____ _____    ______ ____
ROOT
ATOM      3  N   UNL     1       2.957   0.757  22.154  0.00  0.00    -0.316 NA
ATOM      6  C   UNL     1       1.126   1.387  23.709  0.00  0.00    +0.012 C 
ATOM      7  C   UNL     1       0.295   0.156  23.278  0.00  0.00    +0.004 C 
ATOM      8  C   UNL     1       0.731  -0.275  21.867  0.00  0.00    +0.019 C 
ATOM      9  C   UNL     1       2.635   1.148  23.527  0.00  0.00    +0.085 C 
ATOM     13  C   UNL     1       2.244  -0.455  21.753  0.00  0.00    +0.081 C 
ATOM     28  H   UNL     1       3.961   0.599  22.075  0.00  0.00    +0.122 HD
ENDROOT
BRANCH   6  10
ATOM     10  C   UNL     1       0.824   1.845  25.136  0.00  0.00    +0.064 C 
BRANCH  10  20
ATOM      1  O   UNL     1      -1.274   4.740  24.710  0.00  0.00    -0.359 OA
ATOM      5  N   UNL     1      -0.107   4.021  24.477  0.00  0.00    -0.083 NA
ATOM     20  C   UNL     1      -0.260   2.883  25.160  0.00  0.00    +0.084 A 
ATOM     21  C   UNL     1      -2.090   4.020  25.521  0.00  0.00    +0.138 A 
ATOM     23  C   UNL     1      -1.491   2.828  25.838  0.00  0.00    +0.071 A 
BRANCH  21  16
ATOM     16  C   UNL     1      -3.375   4.635  25.872  0.00  0.00    +0.080 C 
BRANCH  16  11
ATOM     11  C   UNL     1      -4.580   3.823  25.400  0.00  0.00    -0.004 C 
ATOM     14  C   UNL     1      -4.174   2.851  24.284  0.00  0.00    +0.004 C 
ATOM     15  C   UNL     1      -5.220   3.070  26.574  0.00  0.00    +0.004 C 
ATOM     17  C   UNL     1      -5.350   1.990  23.831  0.00  0.00    +0.000 C 
ATOM     18  C   UNL     1      -6.395   2.208  26.118  0.00  0.00    +0.000 C 
ATOM     19  C   UNL     1      -5.989   1.249  25.002  0.00  0.00    +0.000 C 
ENDBRANCH  16  11
ENDBRANCH  21  16
ENDBRANCH  10  20
ENDBRANCH   6  10
BRANCH   7  12
ATOM     12  C   UNL     1       0.374  -1.023  24.256  0.00  0.00    +0.099 C 
BRANCH  12  22
ATOM      2  O   UNL     1      -0.973  -1.009  26.265  0.00  0.00    -0.276 OA
ATOM      4  N   UNL     1      -1.953  -1.582  24.237  0.00  0.00    -0.311 N 
ATOM     22  C   UNL     1      -0.901  -1.194  25.053  0.00  0.00    +0.214 C 
ATOM     29  H   UNL     1      -1.779  -1.707  23.243  0.00  0.00    +0.149 HD
BRANCH   4  24
ATOM     24  C   UNL     1      -3.291  -1.820  24.732  0.00  0.00    +0.026 C 
ATOM     25  C   UNL     1      -3.403  -3.271  25.211  0.00  0.00    +0.031 C 
ATOM     26  C   UNL     1      -3.569  -0.866  25.899  0.00  0.00    +0.031 C 
ATOM     27  C   UNL     1      -4.299  -1.570  23.606  0.00  0.00    +0.031 C 
ENDBRANCH   4  24
ENDBRANCH  12  22
ENDBRANCH   7  12
TORSDOF 7
ENDMDL
MODEL 2
REMARK VINA RESULT:      -3.1      2.042      6.371
REMARK  Name = 26743246
REMARK  10 active torsions:
REMARK  status: ('A' for Active; 'I' for Inactive)
REMARK    1  A    between atoms: N_4  and  C_24
REMARK    2  A    between atoms: C_6  and  C_10
REMARK    3  A    between atoms: C_7  and  C_12
REMARK    4  A    between atoms: C_10  and  C_20
REMARK    5  A    between atoms: C_11  and  C_16
REMARK    6  A    between atoms: C_12  and  C_22
REMARK    7  A    between atoms: C_16  and  C_21
REMARK    8  A    between atoms: C_24  and  C_25
REMARK    9  A    between atoms: C_24  and  C_26
REMARK   10  A    between atoms: C_24  and  C_27
REMARK                            x       y       z     vdW  Elec       q    Type
REMARK                         _______ _______ _______ _____ _____    ______ ____
ROOT
ATOM      3  N   UNL     1      -1.692   5.237  24.825  0.00  0.00    -0.316 NA
ATOM      6  C   UNL     1      -1.845   3.011  25.916  0.00  0.00    +0.012 C 
ATOM      7  C   UNL     1      -3.306   2.844  25.437  0.00  0.00    +0.004 C 
ATOM      8  C   UNL     1      -3.919   4.235  25.197  0.00  0.00    +0.019 C 
ATOM      9  C   UNL     1      -1.043   3.935  24.983  0.00  0.00    +0.085 C 
ATOM     13  C   UNL     1      -3.048   5.108  24.295  0.00  0.00    +0.081 C 
ATOM     28  H   UNL     1      -1.137   5.816  24.195  0.00  0.00    +0.122 HD
ENDROOT
BRANCH   6  10
ATOM     10  C   UNL     1      -1.120   1.679  26.105  0.00  0.00    +0.064 C 
BRANCH  10  20
ATOM      1  O   UNL     1       1.615   1.814  23.767  0.00  0.00    -0.359 OA
ATOM      5  N   UNL     1       0.876   2.327  24.827  0.00  0.00    -0.083 NA
ATOM     20  C   UNL     1      -0.110   1.446  25.019  0.00  0.00    +0.084 A 
ATOM     21  C   UNL     1       1.056   0.648  23.354  0.00  0.00    +0.138 A 
ATOM     23  C   UNL     1      -0.046   0.368  24.119  0.00  0.00    +0.071 A 
BRANCH  21  16
ATOM     16  C   UNL     1       1.715  -0.034  22.233  0.00  0.00    +0.080 C 
BRANCH  16  11
ATOM     11  C   UNL     1       3.184  -0.355  22.504  0.00  0.00    -0.004 C 
ATOM     14  C   UNL     1       3.968   0.925  22.822  0.00  0.00    +0.004 C 
ATOM     15  C   UNL     1       3.315  -1.373  23.644  0.00  0.00    +0.004 C 
ATOM     17  C   UNL     1       5.429   0.625  23.148  0.00  0.00    +0.000 C 
ATOM     18  C   UNL     1       4.777  -1.671  23.969  0.00  0.00    +0.000 C 
ATOM     19  C   UNL     1       5.555  -0.394  24.276  0.00  0.00    +0.000 C 
ENDBRANCH  16  11
ENDBRANCH  21  16
ENDBRANCH  10  20
ENDBRANCH   6  10
BRANCH   7  12
ATOM     12  C   UNL     1      -3.458   1.960  24.192  0.00  0.00    +0.099 C 
BRANCH  12  22
ATOM      2  O   UNL     1      -5.075   0.329  24.950  0.00  0.00    -0.276 OA
ATOM      4  N   UNL     1      -2.954  -0.376  24.314  0.00  0.00    -0.311 N 
ATOM     22  C   UNL     1      -3.945   0.568  24.533  0.00  0.00    +0.214 C 
ATOM     29  H   UNL     1      -2.050  -0.064  23.966  0.00  0.00    +0.149 HD
BRANCH   4  24
ATOM     24  C   UNL     1      -3.142  -1.789  24.557  0.00  0.00    +0.026 C 
ATOM     25  C   UNL     1      -4.315  -2.297  23.713  0.00  0.00    +0.031 C 
ATOM     26  C   UNL     1      -1.862  -2.537  24.171  0.00  0.00    +0.031 C 
ATOM     27  C   UNL     1      -3.444  -2.011  26.043  0.00  0.00    +0.031 C 
ENDBRANCH   4  24
ENDBRANCH  12  22
ENDBRANCH   7  12
TORSDOF 7
ENDMDL
MODEL 3
REMARK VINA RESULT:      -2.8      2.144      6.497
REMARK  Name = 26743246
REMARK  10 active torsions:
REMARK  status: ('A' for Active; 'I' for Inactive)
REMARK    1  A    between atoms: N_4  and  C_24
REMARK    2  A    between atoms: C_6  and  C_10
REMARK    3  A    between atoms: C_7  and  C_12
REMARK    4  A    between atoms: C_10  and  C_20
REMARK    5  A    between atoms: C_11  and  C_16
REMARK    6  A    between atoms: C_12  and  C_22
REMARK    7  A    between atoms: C_16  and  C_21
REMARK    8  A    between atoms: C_24  and  C_25
REMARK    9  A    between atoms: C_24  and  C_26
REMARK   10  A    between atoms: C_24  and  C_27
REMARK                            x       y       z     vdW  Elec       q    Type
REMARK                         _______ _______ _______ _____ _____    ______ ____
ROOT
ATOM      3  N   UNL     1      -5.736   4.115  25.744  0.00  0.00    -0.316 NA
ATOM      6  C   UNL     1      -3.350   3.439  25.612  0.00  0.00    +0.012 C 
ATOM      7  C   UNL     1      -3.750   1.980  25.292  0.00  0.00    +0.004 C 
ATOM      8  C   UNL     1      -5.162   1.714  25.841  0.00  0.00    +0.019 C 
ATOM      9  C   UNL     1      -4.432   4.437  25.164  0.00  0.00    +0.085 C 
ATOM     13  C   UNL     1      -6.173   2.767  25.386  0.00  0.00    +0.081 C 
ATOM     28  H   UNL     1      -6.426   4.791  25.419  0.00  0.00    +0.122 HD
ENDROOT
BRANCH   6  10
ATOM     10  C   UNL     1      -1.989   3.828  25.034  0.00  0.00    +0.064 C 
BRANCH  10  20
ATOM      1  O   UNL     1      -0.148   0.736  25.122  0.00  0.00    -0.359 OA
ATOM      5  N   UNL     1      -0.954   1.704  25.708  0.00  0.00    -0.083 NA
ATOM     20  C   UNL     1      -1.147   2.618  24.752  0.00  0.00    +0.084 A 
ATOM     21  C   UNL     1       0.120   1.092  23.840  0.00  0.00    +0.138 A 
ATOM     23  C   UNL     1      -0.493   2.283  23.554  0.00  0.00    +0.071 A 
BRANCH  21  16
ATOM     16  C   UNL     1       0.966   0.174  23.068  0.00  0.00    +0.080 C 
BRANCH  16  11
ATOM     11  C   UNL     1       2.417   0.147  23.546  0.00  0.00    -0.004 C 
ATOM     14  C   UNL     1       2.988  -1.275  23.465  0.00  0.00    +0.004 C 
ATOM     15  C   UNL     1       3.274   1.128  22.736  0.00  0.00    +0.004 C 
ATOM     17  C   UNL     1       4.454  -1.319  23.889  0.00  0.00    +0.000 C 
ATOM     18  C   UNL     1       4.740   1.080  23.160  0.00  0.00    +0.000 C 
ATOM     19  C   UNL     1       5.302  -0.337  23.086  0.00  0.00    +0.000 C 
ENDBRANCH  16  11
ENDBRANCH  21  16
ENDBRANCH  10  20
ENDBRANCH   6  10
BRANCH   7  12
ATOM     12  C   UNL     1      -3.669   1.622  23.802  0.00  0.00    +0.099 C 
BRANCH  12  22
ATOM      2  O   UNL     1      -3.609  -0.402  22.480  0.00  0.00    -0.276 OA
ATOM      4  N   UNL     1      -3.179  -0.515  24.761  0.00  0.00    -0.311 N 
ATOM     22  C   UNL     1      -3.489   0.136  23.578  0.00  0.00    +0.214 C 
ATOM     29  H   UNL     1      -3.106   0.032  25.615  0.00  0.00    +0.149 HD
BRANCH   4  24
ATOM     24  C   UNL     1      -2.956  -1.941  24.842  0.00  0.00    +0.026 C 
ATOM     25  C   UNL     1      -1.566  -2.269  24.285  0.00  0.00    +0.031 C 
ATOM     26  C   UNL     1      -3.042  -2.378  26.308  0.00  0.00    +0.031 C 
ATOM     27  C   UNL     1      -4.025  -2.669  24.019  0.00  0.00    +0.031 C 
ENDBRANCH   4  24
ENDBRANCH  12  22
ENDBRANCH   7  12
TORSDOF 7
ENDMDL
MODEL 4
REMARK VINA RESULT:      -2.2      1.816      5.238
REMARK  Name = 26743246
REMARK  10 active torsions:
REMARK  status: ('A' for Active; 'I' for Inactive)
REMARK    1  A    between atoms: N_4  and  C_24
REMARK    2  A    between atoms: C_6  and  C_10
REMARK    3  A    between atoms: C_7  and  C_12
REMARK    4  A    between atoms: C_10  and  C_20
REMARK    5  A    between atoms: C_11  and  C_16
REMARK    6  A    between atoms: C_12  and  C_22
REMARK    7  A    between atoms: C_16  and  C_21
REMARK    8  A    between atoms: C_24  and  C_25
REMARK    9  A    between atoms: C_24  and  C_26
REMARK   10  A    between atoms: C_24  and  C_27
REMARK                            x       y       z     vdW  Elec       q    Type
REMARK                         _______ _______ _______ _____ _____    ______ ____
ROOT
ATOM      3  N   UNL     1      -1.022   5.764  25.075  0.00  0.00    -0.316 NA
ATOM      6  C   UNL     1      -0.129   3.479  24.689  0.00  0.00    +0.012 C 
ATOM      7  C   UNL     1      -1.501   2.852  25.033  0.00  0.00    +0.004 C 
ATOM      8  C   UNL     1      -2.285   3.822  25.934  0.00  0.00    +0.019 C 
ATOM      9  C   UNL     1      -0.278   4.911  24.148  0.00  0.00    +0.085 C 
ATOM     13  C   UNL     1      -2.356   5.233  25.351  0.00  0.00    +0.081 C 
ATOM     28  H   UNL     1      -1.107   6.699  24.678  0.00  0.00    +0.122 HD
ENDROOT
BRANCH   6  10
ATOM     10  C   UNL     1       0.696   2.624  23.727  0.00  0.00    +0.064 C 
BRANCH  10  20
ATOM      1  O   UNL     1       0.519  -0.968  23.571  0.00  0.00    -0.359 OA
ATOM      5  N   UNL     1       0.897   0.267  23.061  0.00  0.00    -0.083 NA
ATOM     20  C   UNL     1       0.458   1.159  23.954  0.00  0.00    +0.084 A 
ATOM     21  C   UNL     1      -0.133  -0.787  24.748  0.00  0.00    +0.138 A 
ATOM     23  C   UNL     1      -0.199   0.551  25.037  0.00  0.00    +0.071 A 
BRANCH  21  16
ATOM     16  C   UNL     1      -0.607  -1.998  25.429  0.00  0.00    +0.080 C 
BRANCH  16  11
ATOM     11  C   UNL     1      -2.114  -2.211  25.298  0.00  0.00    -0.004 C 
ATOM     14  C   UNL     1      -2.856  -0.869  25.332  0.00  0.00    +0.004 C 
ATOM     15  C   UNL     1      -2.443  -2.985  24.015  0.00  0.00    +0.004 C 
ATOM     17  C   UNL     1      -4.361  -1.051  25.150  0.00  0.00    +0.000 C 
ATOM     18  C   UNL     1      -3.948  -3.164  23.834  0.00  0.00    +0.000 C 
ATOM     19  C   UNL     1      -4.683  -1.827  23.878  0.00  0.00    +0.000 C 
ENDBRANCH  16  11
ENDBRANCH  21  16
ENDBRANCH  10  20
ENDBRANCH   6  10
BRANCH   7  12
ATOM     12  C   UNL     1      -2.332   2.458  23.806  0.00  0.00    +0.099 C 
BRANCH  12  22
ATOM      2  O   UNL     1      -4.383   3.564  23.159  0.00  0.00    -0.276 OA
ATOM      4  N   UNL     1      -4.345   2.268  25.087  0.00  0.00    -0.311 N 
ATOM     22  C   UNL     1      -3.790   2.839  23.953  0.00  0.00    +0.214 C 
ATOM     29  H   UNL     1      -3.758   1.682  25.676  0.00  0.00    +0.149 HD
BRANCH   4  24
ATOM     24  C   UNL     1      -5.724   2.464  25.476  0.00  0.00    +0.026 C 
ATOM     25  C   UNL     1      -5.964   1.807  26.839  0.00  0.00    +0.031 C 
ATOM     26  C   UNL     1      -6.008   3.967  25.567  0.00  0.00    +0.031 C 
ATOM     27  C   UNL     1      -6.641   1.825  24.428  0.00  0.00    +0.031 C 
ENDBRANCH   4  24
ENDBRANCH  12  22
ENDBRANCH   7  12
TORSDOF 7
ENDMDL
MODEL 5
REMARK VINA RESULT:      -0.5      1.924      4.802
REMARK  Name = 26743246
REMARK  10 active torsions:
REMARK  status: ('A' for Active; 'I' for Inactive)
REMARK    1  A    between atoms: N_4  and  C_24
REMARK    2  A    between atoms: C_6  and  C_10
REMARK    3  A    between atoms: C_7  and  C_12
REMARK    4  A    between atoms: C_10  and  C_20
REMARK    5  A    between atoms: C_11  and  C_16
REMARK    6  A    between atoms: C_12  and  C_22
REMARK    7  A    between atoms: C_16  and  C_21
REMARK    8  A    between atoms: C_24  and  C_25
REMARK    9  A    between atoms: C_24  and  C_26
REMARK   10  A    between atoms: C_24  and  C_27
REMARK                            x       y       z     vdW  Elec       q    Type
REMARK                         _______ _______ _______ _____ _____    ______ ____
ROOT
ATOM      3  N   UNL     1      -0.477   2.769  26.974  0.00  0.00    -0.316 NA
ATOM      6  C   UNL     1      -1.694   4.221  25.369  0.00  0.00    +0.012 C 
ATOM      7  C   UNL     1      -0.797   3.738  24.206  0.00  0.00    +0.004 C 
ATOM      8  C   UNL     1       0.544   3.246  24.776  0.00  0.00    +0.019 C 
ATOM      9  C   UNL     1      -1.797   3.167  26.484  0.00  0.00    +0.085 C 
ATOM     13  C   UNL     1       0.361   2.232  25.904  0.00  0.00    +0.081 C 
ATOM     28  H   UNL     1      -0.587   2.065  27.704  0.00  0.00    +0.122 HD
ENDROOT
BRANCH   6  10
ATOM     10  C   UNL     1      -3.087   4.657  24.911  0.00  0.00    +0.064 C 
BRANCH  10  20
ATOM      1  O   UNL     1      -5.775   2.405  25.725  0.00  0.00    -0.359 OA
ATOM      5  N   UNL     1      -5.062   3.585  25.904  0.00  0.00    -0.083 NA
ATOM     20  C   UNL     1      -4.072   3.529  25.007  0.00  0.00    +0.084 A 
ATOM     21  C   UNL     1      -5.198   1.678  24.734  0.00  0.00    +0.138 A 
ATOM     23  C   UNL     1      -4.109   2.350  24.243  0.00  0.00    +0.071 A 
BRANCH  21  16
ATOM     16  C   UNL     1      -5.829   0.392  24.412  0.00  0.00    +0.080 C 
BRANCH  16  11
ATOM     11  C   UNL     1      -5.007  -0.812  24.869  0.00  0.00    -0.004 C 
ATOM     14  C   UNL     1      -4.464  -1.587  23.661  0.00  0.00    +0.004 C 
ATOM     15  C   UNL     1      -3.864  -0.369  25.792  0.00  0.00    +0.004 C 
ATOM     17  C   UNL     1      -3.595  -2.765  24.092  0.00  0.00    +0.000 C 
ATOM     18  C   UNL     1      -2.995  -1.550  26.220  0.00  0.00    +0.000 C 
ATOM     19  C   UNL     1      -2.465  -2.323  25.016  0.00  0.00    +0.000 C 
ENDBRANCH  16  11
ENDBRANCH  21  16
ENDBRANCH  10  20
ENDBRANCH   6  10
BRANCH   7  12
ATOM     12  C   UNL     1      -1.443   2.660  23.326  0.00  0.00    +0.099 C 
BRANCH  12  22
ATOM      2  O   UNL     1      -1.244   0.403  24.171  0.00  0.00    -0.276 OA
ATOM      4  N   UNL     1       0.411   1.249  22.776  0.00  0.00    -0.311 N 
ATOM     22  C   UNL     1      -0.776   1.311  23.489  0.00  0.00    +0.214 C 
ATOM     29  H   UNL     1       0.704   2.065  22.244  0.00  0.00    +0.149 HD
BRANCH   4  24
ATOM     24  C   UNL     1       1.258   0.078  22.753  0.00  0.00    +0.026 C 
ATOM     25  C   UNL     1       2.712   0.499  22.995  0.00  0.00    +0.031 C 
ATOM     26  C   UNL     1       0.807  -0.887  23.853  0.00  0.00    +0.031 C 
ATOM     27  C   UNL     1       1.142  -0.604  21.385  0.00  0.00    +0.031 C 
ENDBRANCH   4  24
ENDBRANCH  12  22
ENDBRANCH   7  12
TORSDOF 7
ENDMDL
MODEL 6
REMARK VINA RESULT:      -0.3      2.127      6.688
REMARK  Name = 26743246
REMARK  10 active torsions:
REMARK  status: ('A' for Active; 'I' for Inactive)
REMARK    1  A    between atoms: N_4  and  C_24
REMARK    2  A    between atoms: C_6  and  C_10
REMARK    3  A    between atoms: C_7  and  C_12
REMARK    4  A    between atoms: C_10  and  C_20
REMARK    5  A    between atoms: C_11  and  C_16
REMARK    6  A    between atoms: C_12  and  C_22
REMARK    7  A    between atoms: C_16  and  C_21
REMARK    8  A    between atoms: C_24  and  C_25
REMARK    9  A    between atoms: C_24  and  C_26
REMARK   10  A    between atoms: C_24  and  C_27
REMARK                            x       y       z     vdW  Elec       q    Type
REMARK                         _______ _______ _______ _____ _____    ______ ____
ROOT
ATOM      3  N   UNL     1      -0.182   4.948  24.523  0.00  0.00    -0.316 NA
ATOM      6  C   UNL     1      -1.381   3.156  25.756  0.00  0.00    +0.012 C 
ATOM      7  C   UNL     1      -2.688   3.982  25.745  0.00  0.00    +0.004 C 
ATOM      8  C   UNL     1      -2.340   5.474  25.605  0.00  0.00    +0.019 C 
ATOM      9  C   UNL     1      -0.471   3.515  24.568  0.00  0.00    +0.085 C 
ATOM     13  C   UNL     1      -1.403   5.746  24.429  0.00  0.00    +0.081 C 
ATOM     28  H   UNL     1       0.414   5.147  23.720  0.00  0.00    +0.122 HD
ENDROOT
BRANCH   6  10
ATOM     10  C   UNL     1      -1.624   1.647  25.810  0.00  0.00    +0.064 C 
BRANCH  10  20
ATOM      1  O   UNL     1       0.071  -0.728  23.702  0.00  0.00    -0.359 OA
ATOM      5  N   UNL     1      -0.958  -0.361  24.562  0.00  0.00    -0.083 NA
ATOM     20  C   UNL     1      -0.702   0.911  24.883  0.00  0.00    +0.084 A 
ATOM     21  C   UNL     1       0.910   0.324  23.532  0.00  0.00    +0.138 A 
ATOM     23  C   UNL     1       0.463   1.394  24.262  0.00  0.00    +0.071 A 
BRANCH  21  16
ATOM     16  C   UNL     1       2.061   0.109  22.647  0.00  0.00    +0.080 C 
BRANCH  16  11
ATOM     11  C   UNL     1       3.389   0.024  23.397  0.00  0.00    -0.004 C 
ATOM     14  C   UNL     1       3.916  -1.418  23.405  0.00  0.00    +0.004 C 
ATOM     15  C   UNL     1       4.421   0.979  22.784  0.00  0.00    +0.004 C 
ATOM     17  C   UNL     1       5.269  -1.520  24.104  0.00  0.00    +0.000 C 
ATOM     18  C   UNL     1       5.774   0.874  23.484  0.00  0.00    +0.000 C 
ATOM     19  C   UNL     1       6.290  -0.562  23.497  0.00  0.00    +0.000 C 
ENDBRANCH  16  11
ENDBRANCH  21  16
ENDBRANCH  10  20
ENDBRANCH   6  10
BRANCH   7  12
ATOM     12  C   UNL     1      -3.688   3.553  24.663  0.00  0.00    +0.099 C 
BRANCH  12  22
ATOM      2  O   UNL     1      -5.373   2.309  25.873  0.00  0.00    -0.276 OA
ATOM      4  N   UNL     1      -3.993   1.197  24.371  0.00  0.00    -0.311 N 
ATOM     22  C   UNL     1      -4.458   2.310  25.054  0.00  0.00    +0.214 C 
ATOM     29  H   UNL     1      -3.226   1.313  23.713  0.00  0.00    +0.149 HD
BRANCH   4  24
ATOM     24  C   UNL     1      -4.545  -0.127  24.550  0.00  0.00    +0.026 C 
ATOM     25  C   UNL     1      -4.056  -1.037  23.418  0.00  0.00    +0.031 C 
ATOM     26  C   UNL     1      -4.081  -0.684  25.899  0.00  0.00    +0.031 C 
ATOM     27  C   UNL     1      -6.075  -0.046  24.520  0.00  0.00    +0.031 C 
ENDBRANCH   4  24
ENDBRANCH  12  22
ENDBRANCH   7  12
TORSDOF 7
ENDMDL
