MODEL 1
REMARK VINA RESULT:       8.4      0.000      0.000
REMARK  Name = 45783894
REMARK  12 active torsions:
REMARK  status: ('A' for Active; 'I' for Inactive)
REMARK    1  A    between atoms: S_1  and  N_6
REMARK    2  A    between atoms: S_1  and  C_27
REMARK    3  A    between atoms: O_5  and  C_34
REMARK    4  A    between atoms: O_5  and  C_38
REMARK    5  A    between atoms: N_6  and  C_17
REMARK    6  A    between atoms: C_10  and  C_14
REMARK    7  A    between atoms: C_11  and  C_17
REMARK    8  A    between atoms: C_13  and  C_18
REMARK    9  A    between atoms: C_14  and  C_19
REMARK   10  A    between atoms: C_14  and  C_20
REMARK   11  A    between atoms: C_15  and  C_21
REMARK   12  A    between atoms: C_18  and  C_22
REMARK                            x       y       z     vdW  Elec       q    Type
REMARK                         _______ _______ _______ _____ _____    ______ ____
ROOT
ATOM     10  C   UNL     1      -3.455   1.983  23.797  0.00  0.00    +0.000 C 
ATOM     11  C   UNL     1      -4.229   3.224  24.305  0.00  0.00    +0.030 C 
ATOM     12  C   UNL     1      -4.397   0.777  23.674  0.00  0.00    +0.012 C 
ATOM     13  C   UNL     1      -5.063   0.419  25.016  0.00  0.00    +0.023 C 
ATOM     15  C   UNL     1      -5.620   1.646  25.712  0.00  0.00    -0.073 C 
ATOM     16  C   UNL     1      -5.245   2.892  25.371  0.00  0.00    -0.023 C 
ATOM     21  C   UNL     1      -6.653   1.408  26.779  0.00  0.00    +0.039 C 
ENDROOT
BRANCH  10  14
ATOM     14  C   UNL     1      -2.775   2.249  22.449  0.00  0.00    -0.013 C 
ATOM     19  C   UNL     1      -3.643   3.159  21.586  0.00  0.00    +0.007 C 
ATOM     20  C   UNL     1      -2.487   0.935  21.730  0.00  0.00    +0.007 C 
ENDBRANCH  10  14
BRANCH  11  17
ATOM     17  C   UNL     1      -3.270   4.298  24.832  0.00  0.00    +0.113 C 
BRANCH  17   6
ATOM      6  N   UNL     1      -2.220   3.652  25.636  0.00  0.00    -0.189 NA
ATOM     39  H   UNL     1      -2.444   3.456  26.619  0.00  0.00    +0.148 HD
BRANCH   6   1
ATOM      1  S   UNL     1      -0.580   3.849  25.222  0.00  0.00    +0.058 S 
ATOM      3  O   UNL     1      -0.289   5.263  25.077  0.00  0.00    -0.153 OA
ATOM      4  O   UNL     1      -0.243   2.922  24.158  0.00  0.00    -0.153 OA
BRANCH   1  27
ATOM     27  C   UNL     1       0.232   3.273  26.683  0.00  0.00    +0.105 A 
ATOM     29  C   UNL     1      -0.504   2.646  27.688  0.00  0.00    +0.032 A 
ATOM     30  C   UNL     1       1.608   3.448  26.831  0.00  0.00    +0.032 A 
ATOM     32  C   UNL     1       0.136   2.194  28.842  0.00  0.00    +0.047 A 
ATOM     33  C   UNL     1       2.248   2.997  27.985  0.00  0.00    +0.047 A 
ATOM     34  C   UNL     1       1.511   2.369  28.990  0.00  0.00    +0.120 A 
BRANCH  34   5
ATOM      5  O   UNL     1       2.136   1.928  30.117  0.00  0.00    -0.495 OA
ATOM     38  C   UNL     1       1.383   1.952  31.328  0.00  0.00    +0.277 C 
ENDBRANCH  34   5
ENDBRANCH   1  27
ENDBRANCH   6   1
ENDBRANCH  17   6
ENDBRANCH  11  17
BRANCH  13  18
ATOM     18  C   UNL     1      -4.094  -0.337  25.931  0.00  0.00    +0.103 C 
BRANCH  18  22
ATOM      2  O   UNL     1      -3.923  -2.463  24.889  0.00  0.00    -0.276 OA
ATOM      7  N   UNL     1      -2.062  -1.080  24.747  0.00  0.00    -0.298 N 
ATOM      8  N   UNL     1       0.559  -0.450  23.693  0.00  0.00    -0.312 N 
ATOM      9  N   UNL     1       2.813   0.186  24.003  0.00  0.00    -0.240 NA
ATOM     22  C   UNL     1      -3.363  -1.394  25.141  0.00  0.00    +0.216 C 
ATOM     23  C   UNL     1      -1.401   0.195  25.039  0.00  0.00    +0.126 C 
ATOM     24  C   UNL     1      -1.286  -2.053  23.984  0.00  0.00    +0.126 C 
ATOM     25  C   UNL     1       0.123   0.097  24.980  0.00  0.00    +0.125 C 
ATOM     26  C   UNL     1      -0.335  -1.379  22.997  0.00  0.00    +0.125 C 
ATOM     28  C   UNL     1       1.805  -0.127  23.158  0.00  0.00    +0.121 A 
ATOM     31  C   UNL     1       1.927  -0.148  21.778  0.00  0.00    +0.043 A 
ATOM     35  C   UNL     1       3.164   0.172  21.229  0.00  0.00    +0.005 A 
ATOM     36  C   UNL     1       4.000   0.492  23.433  0.00  0.00    +0.113 A 
ATOM     37  C   UNL     1       4.226   0.499  22.067  0.00  0.00    +0.020 A 
ENDBRANCH  18  22
ENDBRANCH  13  18
TORSDOF 8
ENDMDL
MODEL 2
REMARK VINA RESULT:       9.8      2.638      4.989
REMARK  Name = 45783894
REMARK  12 active torsions:
REMARK  status: ('A' for Active; 'I' for Inactive)
REMARK    1  A    between atoms: S_1  and  N_6
REMARK    2  A    between atoms: S_1  and  C_27
REMARK    3  A    between atoms: O_5  and  C_34
REMARK    4  A    between atoms: O_5  and  C_38
REMARK    5  A    between atoms: N_6  and  C_17
REMARK    6  A    between atoms: C_10  and  C_14
REMARK    7  A    between atoms: C_11  and  C_17
REMARK    8  A    between atoms: C_13  and  C_18
REMARK    9  A    between atoms: C_14  and  C_19
REMARK   10  A    between atoms: C_14  and  C_20
REMARK   11  A    between atoms: C_15  and  C_21
REMARK   12  A    between atoms: C_18  and  C_22
REMARK                            x       y       z     vdW  Elec       q    Type
REMARK                         _______ _______ _______ _____ _____    ______ ____
ROOT
ATOM     10  C   UNL     1      -2.488   3.480  24.601  0.00  0.00    +0.000 C 
ATOM     11  C   UNL     1      -3.760   4.339  24.398  0.00  0.00    +0.030 C 
ATOM     12  C   UNL     1      -1.652   3.447  23.313  0.00  0.00    +0.012 C 
ATOM     13  C   UNL     1      -2.441   2.875  22.120  0.00  0.00    +0.023 C 
ATOM     15  C   UNL     1      -3.823   3.489  22.014  0.00  0.00    -0.073 C 
ATOM     16  C   UNL     1      -4.391   4.151  23.038  0.00  0.00    -0.023 C 
ATOM     21  C   UNL     1      -4.520   3.363  20.687  0.00  0.00    +0.039 C 
ENDROOT
BRANCH  10  14
ATOM     14  C   UNL     1      -1.632   3.995  25.762  0.00  0.00    -0.013 C 
ATOM     19  C   UNL     1      -0.910   5.277  25.361  0.00  0.00    +0.007 C 
ATOM     20  C   UNL     1      -0.636   2.928  26.204  0.00  0.00    +0.007 C 
ENDBRANCH  10  14
BRANCH  11  17
ATOM     17  C   UNL     1      -4.801   4.055  25.487  0.00  0.00    +0.113 C 
BRANCH  17   6
ATOM      6  N   UNL     1      -4.645   2.667  25.950  0.00  0.00    -0.189 NA
ATOM     39  H   UNL     1      -3.685   2.314  26.041  0.00  0.00    +0.148 HD
BRANCH   6   1
ATOM      1  S   UNL     1      -5.885   1.530  25.684  0.00  0.00    +0.058 S 
ATOM      3  O   UNL     1      -6.619   1.894  24.486  0.00  0.00    -0.153 OA
ATOM      4  O   UNL     1      -6.592   1.297  26.929  0.00  0.00    -0.153 OA
BRANCH   1  27
ATOM     27  C   UNL     1      -4.961   0.065  25.332  0.00  0.00    +0.105 A 
ATOM     29  C   UNL     1      -5.115  -0.578  24.104  0.00  0.00    +0.032 A 
ATOM     30  C   UNL     1      -4.082  -0.449  26.284  0.00  0.00    +0.032 A 
ATOM     32  C   UNL     1      -4.387  -1.736  23.827  0.00  0.00    +0.047 A 
ATOM     33  C   UNL     1      -3.355  -1.608  26.008  0.00  0.00    +0.047 A 
ATOM     34  C   UNL     1      -3.508  -2.250  24.779  0.00  0.00    +0.120 A 
BRANCH  34   5
ATOM      5  O   UNL     1      -2.798  -3.381  24.509  0.00  0.00    -0.495 OA
ATOM     38  C   UNL     1      -1.486  -3.210  23.975  0.00  0.00    +0.277 C 
ENDBRANCH  34   5
ENDBRANCH   1  27
ENDBRANCH   6   1
ENDBRANCH  17   6
ENDBRANCH  11  17
BRANCH  13  18
ATOM     18  C   UNL     1      -2.524   1.347  22.192  0.00  0.00    +0.103 C 
BRANCH  18  22
ATOM      2  O   UNL     1      -2.643   0.666  24.464  0.00  0.00    -0.276 OA
ATOM      7  N   UNL     1      -0.535   0.670  23.485  0.00  0.00    -0.298 N 
ATOM      8  N   UNL     1       2.287   0.031  23.532  0.00  0.00    -0.312 N 
ATOM      9  N   UNL     1       4.551   0.652  23.268  0.00  0.00    -0.240 NA
ATOM     22  C   UNL     1      -1.917   0.862  23.486  0.00  0.00    +0.216 C 
ATOM     23  C   UNL     1       0.324   0.893  22.319  0.00  0.00    +0.126 C 
ATOM     24  C   UNL     1       0.128   0.206  24.700  0.00  0.00    +0.126 C 
ATOM     25  C   UNL     1       1.786   1.126  22.698  0.00  0.00    +0.125 C 
ATOM     26  C   UNL     1       1.335  -0.677  24.392  0.00  0.00    +0.125 C 
ATOM     28  C   UNL     1       3.639  -0.309  23.537  0.00  0.00    +0.121 A 
ATOM     31  C   UNL     1       3.961  -1.627  23.822  0.00  0.00    +0.043 A 
ATOM     35  C   UNL     1       5.304  -1.981  23.830  0.00  0.00    +0.005 A 
ATOM     36  C   UNL     1       5.848   0.270  23.286  0.00  0.00    +0.113 A 
ATOM     37  C   UNL     1       6.273  -1.020  23.558  0.00  0.00    +0.020 A 
ENDBRANCH  18  22
ENDBRANCH  13  18
TORSDOF 8
ENDMDL
MODEL 3
REMARK VINA RESULT:      10.0      3.135      6.006
REMARK  Name = 45783894
REMARK  12 active torsions:
REMARK  status: ('A' for Active; 'I' for Inactive)
REMARK    1  A    between atoms: S_1  and  N_6
REMARK    2  A    between atoms: S_1  and  C_27
REMARK    3  A    between atoms: O_5  and  C_34
REMARK    4  A    between atoms: O_5  and  C_38
REMARK    5  A    between atoms: N_6  and  C_17
REMARK    6  A    between atoms: C_10  and  C_14
REMARK    7  A    between atoms: C_11  and  C_17
REMARK    8  A    between atoms: C_13  and  C_18
REMARK    9  A    between atoms: C_14  and  C_19
REMARK   10  A    between atoms: C_14  and  C_20
REMARK   11  A    between atoms: C_15  and  C_21
REMARK   12  A    between atoms: C_18  and  C_22
REMARK                            x       y       z     vdW  Elec       q    Type
REMARK                         _______ _______ _______ _____ _____    ______ ____
ROOT
ATOM     10  C   UNL     1      -2.466   2.826  23.641  0.00  0.00    +0.000 C 
ATOM     11  C   UNL     1      -0.951   3.116  23.509  0.00  0.00    +0.030 C 
ATOM     12  C   UNL     1      -3.271   4.131  23.555  0.00  0.00    +0.012 C 
ATOM     13  C   UNL     1      -2.870   5.137  24.651  0.00  0.00    +0.023 C 
ATOM     15  C   UNL     1      -1.365   5.276  24.762  0.00  0.00    -0.073 C 
ATOM     16  C   UNL     1      -0.522   4.370  24.234  0.00  0.00    -0.023 C 
ATOM     21  C   UNL     1      -0.848   6.506  25.457  0.00  0.00    +0.039 C 
ENDROOT
BRANCH  10  14
ATOM     14  C   UNL     1      -2.953   1.845  22.570  0.00  0.00    -0.013 C 
ATOM     19  C   UNL     1      -2.201   0.523  22.678  0.00  0.00    +0.007 C 
ATOM     20  C   UNL     1      -2.788   2.450  21.179  0.00  0.00    +0.007 C 
ENDBRANCH  10  14
BRANCH  11  17
ATOM     17  C   UNL     1      -0.114   1.930  24.003  0.00  0.00    +0.113 C 
BRANCH  17   6
ATOM      6  N   UNL     1       0.776   1.485  22.919  0.00  0.00    -0.189 NA
ATOM     39  H   UNL     1       0.819   2.078  22.081  0.00  0.00    +0.148 HD
BRANCH   6   1
ATOM      1  S   UNL     1       1.147  -0.168  22.738  0.00  0.00    +0.058 S 
ATOM      3  O   UNL     1       0.977  -0.547  21.348  0.00  0.00    -0.153 OA
ATOM      4  O   UNL     1       0.485  -0.921  23.786  0.00  0.00    -0.153 OA
BRANCH   1  27
ATOM     27  C   UNL     1       2.877  -0.190  23.101  0.00  0.00    +0.105 A 
ATOM     29  C   UNL     1       3.656   0.941  22.855  0.00  0.00    +0.032 A 
ATOM     30  C   UNL     1       3.463  -1.339  23.632  0.00  0.00    +0.032 A 
ATOM     32  C   UNL     1       5.021   0.922  23.139  0.00  0.00    +0.047 A 
ATOM     33  C   UNL     1       4.829  -1.358  23.915  0.00  0.00    +0.047 A 
ATOM     34  C   UNL     1       5.607  -0.226  23.669  0.00  0.00    +0.120 A 
BRANCH  34   5
ATOM      5  O   UNL     1       6.940  -0.244  23.947  0.00  0.00    -0.495 OA
ATOM     38  C   UNL     1       7.823  -0.553  22.869  0.00  0.00    +0.277 C 
ENDBRANCH  34   5
ENDBRANCH   1  27
ENDBRANCH   6   1
ENDBRANCH  17   6
ENDBRANCH  11  17
BRANCH  13  18
ATOM     18  C   UNL     1      -3.487   4.758  26.002  0.00  0.00    +0.103 C 
BRANCH  18  22
ATOM      2  O   UNL     1      -5.828   4.451  25.753  0.00  0.00    -0.276 OA
ATOM      7  N   UNL     1      -4.508   2.543  25.636  0.00  0.00    -0.298 N 
ATOM      8  N   UNL     1      -4.169  -0.281  25.101  0.00  0.00    -0.312 N 
ATOM      9  N   UNL     1      -3.402  -2.426  25.728  0.00  0.00    -0.240 NA
ATOM     22  C   UNL     1      -4.719   3.914  25.784  0.00  0.00    +0.216 C 
ATOM     23  C   UNL     1      -3.188   1.908  25.664  0.00  0.00    +0.126 C 
ATOM     24  C   UNL     1      -5.650   1.657  25.427  0.00  0.00    +0.126 C 
ATOM     25  C   UNL     1      -3.255   0.420  26.006  0.00  0.00    +0.125 C 
ATOM     26  C   UNL     1      -5.296   0.467  24.538  0.00  0.00    +0.125 C 
ATOM     28  C   UNL     1      -3.995  -1.633  24.808  0.00  0.00    +0.121 A 
ATOM     31  C   UNL     1      -4.450  -2.078  23.577  0.00  0.00    +0.043 A 
ATOM     35  C   UNL     1      -4.283  -3.423  23.270  0.00  0.00    +0.005 A 
ATOM     36  C   UNL     1      -3.259  -3.728  25.394  0.00  0.00    +0.113 A 
ATOM     37  C   UNL     1      -3.678  -4.271  24.192  0.00  0.00    +0.020 A 
ENDBRANCH  18  22
ENDBRANCH  13  18
TORSDOF 8
ENDMDL
MODEL 4
REMARK VINA RESULT:      10.8      2.892      5.584
REMARK  Name = 45783894
REMARK  12 active torsions:
REMARK  status: ('A' for Active; 'I' for Inactive)
REMARK    1  A    between atoms: S_1  and  N_6
REMARK    2  A    between atoms: S_1  and  C_27
REMARK    3  A    between atoms: O_5  and  C_34
REMARK    4  A    between atoms: O_5  and  C_38
REMARK    5  A    between atoms: N_6  and  C_17
REMARK    6  A    between atoms: C_10  and  C_14
REMARK    7  A    between atoms: C_11  and  C_17
REMARK    8  A    between atoms: C_13  and  C_18
REMARK    9  A    between atoms: C_14  and  C_19
REMARK   10  A    between atoms: C_14  and  C_20
REMARK   11  A    between atoms: C_15  and  C_21
REMARK   12  A    between atoms: C_18  and  C_22
REMARK                            x       y       z     vdW  Elec       q    Type
REMARK                         _______ _______ _______ _____ _____    ______ ____
ROOT
ATOM     10  C   UNL     1      -2.637  -1.472  24.739  0.00  0.00    +0.000 C 
ATOM     11  C   UNL     1      -3.099  -0.052  25.147  0.00  0.00    +0.030 C 
ATOM     12  C   UNL     1      -1.290  -1.807  25.395  0.00  0.00    +0.012 C 
ATOM     13  C   UNL     1      -0.186  -0.805  25.005  0.00  0.00    +0.023 C 
ATOM     15  C   UNL     1      -0.661   0.629  25.127  0.00  0.00    -0.073 C 
ATOM     16  C   UNL     1      -1.966   0.946  25.202  0.00  0.00    -0.023 C 
ATOM     21  C   UNL     1       0.403   1.690  25.205  0.00  0.00    +0.039 C 
ENDROOT
BRANCH  10  14
ATOM     14  C   UNL     1      -3.674  -2.537  25.112  0.00  0.00    -0.013 C 
ATOM     19  C   UNL     1      -3.007  -3.693  25.849  0.00  0.00    +0.007 C 
ATOM     20  C   UNL     1      -4.398  -3.035  23.865  0.00  0.00    +0.007 C 
ENDBRANCH  10  14
BRANCH  11  17
ATOM     17  C   UNL     1      -4.191   0.468  24.204  0.00  0.00    +0.113 C 
BRANCH  17   6
ATOM      6  N   UNL     1      -5.470   0.514  24.930  0.00  0.00    -0.189 NA
ATOM     39  H   UNL     1      -6.124  -0.262  24.768  0.00  0.00    +0.148 HD
BRANCH   6   1
ATOM      1  S   UNL     1      -6.121   2.008  25.425  0.00  0.00    +0.058 S 
ATOM      3  O   UNL     1      -6.522   1.917  26.817  0.00  0.00    -0.153 OA
ATOM      4  O   UNL     1      -7.062   2.472  24.424  0.00  0.00    -0.153 OA
BRANCH   1  27
ATOM     27  C   UNL     1      -4.707   3.065  25.333  0.00  0.00    +0.105 A 
ATOM     29  C   UNL     1      -4.069   3.478  26.503  0.00  0.00    +0.032 A 
ATOM     30  C   UNL     1      -4.233   3.488  24.092  0.00  0.00    +0.032 A 
ATOM     32  C   UNL     1      -2.955   4.315  26.431  0.00  0.00    +0.047 A 
ATOM     33  C   UNL     1      -3.119   4.325  24.020  0.00  0.00    +0.047 A 
ATOM     34  C   UNL     1      -2.480   4.737  25.189  0.00  0.00    +0.120 A 
BRANCH  34   5
ATOM      5  O   UNL     1      -1.393   5.554  25.119  0.00  0.00    -0.495 OA
ATOM     38  C   UNL     1      -0.250   5.053  24.427  0.00  0.00    +0.277 C 
ENDBRANCH  34   5
ENDBRANCH   1  27
ENDBRANCH   6   1
ENDBRANCH  17   6
ENDBRANCH  11  17
BRANCH  13  18
ATOM     18  C   UNL     1       0.346  -1.089  23.596  0.00  0.00    +0.103 C 
BRANCH  18  22
ATOM      2  O   UNL     1       0.465   1.116  22.723  0.00  0.00    -0.276 OA
ATOM      7  N   UNL     1       2.482   0.004  23.029  0.00  0.00    -0.298 N 
ATOM      8  N   UNL     1       5.376  -0.035  23.088  0.00  0.00    -0.312 N 
ATOM      9  N   UNL     1       7.443  -0.986  22.452  0.00  0.00    -0.240 NA
ATOM     22  C   UNL     1       1.093   0.115  23.078  0.00  0.00    +0.216 C 
ATOM     23  C   UNL     1       3.227  -1.182  23.460  0.00  0.00    +0.126 C 
ATOM     24  C   UNL     1       3.278   1.125  22.534  0.00  0.00    +0.126 C 
ATOM     25  C   UNL     1       4.620  -1.264  22.836  0.00  0.00    +0.125 C 
ATOM     26  C   UNL     1       4.632   1.218  23.233  0.00  0.00    +0.125 C 
ATOM     28  C   UNL     1       6.768  -0.048  23.154  0.00  0.00    +0.121 A 
ATOM     31  C   UNL     1       7.374   0.916  23.945  0.00  0.00    +0.043 A 
ATOM     35  C   UNL     1       8.762   0.916  24.020  0.00  0.00    +0.005 A 
ATOM     36  C   UNL     1       8.792  -0.953  22.550  0.00  0.00    +0.113 A 
ATOM     37  C   UNL     1       9.492  -0.033  23.312  0.00  0.00    +0.020 A 
ENDBRANCH  18  22
ENDBRANCH  13  18
TORSDOF 8
ENDMDL
MODEL 5
REMARK VINA RESULT:      11.2      2.210      5.834
REMARK  Name = 45783894
REMARK  12 active torsions:
REMARK  status: ('A' for Active; 'I' for Inactive)
REMARK    1  A    between atoms: S_1  and  N_6
REMARK    2  A    between atoms: S_1  and  C_27
REMARK    3  A    between atoms: O_5  and  C_34
REMARK    4  A    between atoms: O_5  and  C_38
REMARK    5  A    between atoms: N_6  and  C_17
REMARK    6  A    between atoms: C_10  and  C_14
REMARK    7  A    between atoms: C_11  and  C_17
REMARK    8  A    between atoms: C_13  and  C_18
REMARK    9  A    between atoms: C_14  and  C_19
REMARK   10  A    between atoms: C_14  and  C_20
REMARK   11  A    between atoms: C_15  and  C_21
REMARK   12  A    between atoms: C_18  and  C_22
REMARK                            x       y       z     vdW  Elec       q    Type
REMARK                         _______ _______ _______ _____ _____    ______ ____
ROOT
ATOM     10  C   UNL     1      -4.389   1.701  24.694  0.00  0.00    +0.000 C 
ATOM     11  C   UNL     1      -3.978   0.234  24.419  0.00  0.00    +0.030 C 
ATOM     12  C   UNL     1      -4.821   2.391  23.392  0.00  0.00    +0.012 C 
ATOM     13  C   UNL     1      -3.701   2.389  22.333  0.00  0.00    +0.023 C 
ATOM     15  C   UNL     1      -3.060   1.023  22.196  0.00  0.00    -0.073 C 
ATOM     16  C   UNL     1      -3.205   0.068  23.132  0.00  0.00    -0.023 C 
ATOM     21  C   UNL     1      -2.282   0.764  20.934  0.00  0.00    +0.039 C 
ENDROOT
BRANCH  10  14
ATOM     14  C   UNL     1      -5.518   1.791  25.726  0.00  0.00    -0.013 C 
ATOM     19  C   UNL     1      -6.870   1.570  25.057  0.00  0.00    +0.007 C 
ATOM     20  C   UNL     1      -5.481   3.139  26.439  0.00  0.00    +0.007 C 
ENDBRANCH  10  14
BRANCH  11  17
ATOM     17  C   UNL     1      -3.161  -0.340  25.582  0.00  0.00    +0.113 C 
BRANCH  17   6
ATOM      6  N   UNL     1      -1.729  -0.234  25.262  0.00  0.00    -0.189 NA
ATOM     39  H   UNL     1      -1.405   0.659  24.872  0.00  0.00    +0.148 HD
BRANCH   6   1
ATOM      1  S   UNL     1      -0.828  -1.632  24.891  0.00  0.00    +0.058 S 
ATOM      3  O   UNL     1      -1.553  -2.423  23.914  0.00  0.00    -0.153 OA
ATOM      4  O   UNL     1      -0.365  -2.240  26.124  0.00  0.00    -0.153 OA
BRANCH   1  27
ATOM     27  C   UNL     1       0.591  -0.945  24.091  0.00  0.00    +0.105 A 
ATOM     29  C   UNL     1       0.481   0.252  23.384  0.00  0.00    +0.032 A 
ATOM     30  C   UNL     1       1.819  -1.602  24.164  0.00  0.00    +0.032 A 
ATOM     32  C   UNL     1       1.600   0.794  22.751  0.00  0.00    +0.047 A 
ATOM     33  C   UNL     1       2.937  -1.062  23.530  0.00  0.00    +0.047 A 
ATOM     34  C   UNL     1       2.827   0.137  22.824  0.00  0.00    +0.120 A 
BRANCH  34   5
ATOM      5  O   UNL     1       3.920   0.665  22.206  0.00  0.00    -0.495 OA
ATOM     38  C   UNL     1       5.180   0.485  22.850  0.00  0.00    +0.277 C 
ENDBRANCH  34   5
ENDBRANCH   1  27
ENDBRANCH   6   1
ENDBRANCH  17   6
ENDBRANCH  11  17
BRANCH  13  18
ATOM     18  C   UNL     1      -2.650   3.461  22.639  0.00  0.00    +0.103 C 
BRANCH  18  22
ATOM      2  O   UNL     1      -3.904   4.668  24.253  0.00  0.00    -0.276 OA
ATOM      7  N   UNL     1      -1.878   3.777  24.960  0.00  0.00    -0.298 N 
ATOM      8  N   UNL     1       0.026   3.138  27.045  0.00  0.00    -0.312 N 
ATOM      9  N   UNL     1       2.219   3.174  27.922  0.00  0.00    -0.240 NA
ATOM     22  C   UNL     1      -2.878   4.025  24.019  0.00  0.00    +0.216 C 
ATOM     23  C   UNL     1      -0.664   3.004  24.683  0.00  0.00    +0.126 C 
ATOM     24  C   UNL     1      -2.022   4.293  26.318  0.00  0.00    +0.126 C 
ATOM     25  C   UNL     1       0.470   3.314  25.660  0.00  0.00    +0.125 C 
ATOM     26  C   UNL     1      -1.388   3.367  27.353  0.00  0.00    +0.125 C 
ATOM     28  C   UNL     1       0.927   2.797  28.052  0.00  0.00    +0.121 A 
ATOM     31  C   UNL     1       0.431   2.084  29.132  0.00  0.00    +0.043 A 
ATOM     35  C   UNL     1       1.318   1.735  30.143  0.00  0.00    +0.005 A 
ATOM     36  C   UNL     1       3.051   2.818  28.927  0.00  0.00    +0.113 A 
ATOM     37  C   UNL     1       2.655   2.107  30.046  0.00  0.00    +0.020 A 
ENDBRANCH  18  22
ENDBRANCH  13  18
TORSDOF 8
ENDMDL
MODEL 6
REMARK VINA RESULT:      11.8      2.311      3.927
REMARK  Name = 45783894
REMARK  12 active torsions:
REMARK  status: ('A' for Active; 'I' for Inactive)
REMARK    1  A    between atoms: S_1  and  N_6
REMARK    2  A    between atoms: S_1  and  C_27
REMARK    3  A    between atoms: O_5  and  C_34
REMARK    4  A    between atoms: O_5  and  C_38
REMARK    5  A    between atoms: N_6  and  C_17
REMARK    6  A    between atoms: C_10  and  C_14
REMARK    7  A    between atoms: C_11  and  C_17
REMARK    8  A    between atoms: C_13  and  C_18
REMARK    9  A    between atoms: C_14  and  C_19
REMARK   10  A    between atoms: C_14  and  C_20
REMARK   11  A    between atoms: C_15  and  C_21
REMARK   12  A    between atoms: C_18  and  C_22
REMARK                            x       y       z     vdW  Elec       q    Type
REMARK                         _______ _______ _______ _____ _____    ______ ____
ROOT
ATOM     10  C   UNL     1      -3.703   0.277  24.518  0.00  0.00    +0.000 C 
ATOM     11  C   UNL     1      -2.506   1.185  24.892  0.00  0.00    +0.030 C 
ATOM     12  C   UNL     1      -4.238  -0.446  25.763  0.00  0.00    +0.012 C 
ATOM     13  C   UNL     1      -3.161  -1.314  26.440  0.00  0.00    +0.023 C 
ATOM     15  C   UNL     1      -1.854  -0.565  26.602  0.00  0.00    -0.073 C 
ATOM     16  C   UNL     1      -1.584   0.558  25.911  0.00  0.00    -0.023 C 
ATOM     21  C   UNL     1      -0.881  -1.111  27.610  0.00  0.00    +0.039 C 
ENDROOT
BRANCH  10  14
ATOM     14  C   UNL     1      -4.833   1.071  23.854  0.00  0.00    -0.013 C 
ATOM     19  C   UNL     1      -4.263   2.220  23.029  0.00  0.00    +0.007 C 
ATOM     20  C   UNL     1      -5.807   1.591  24.906  0.00  0.00    +0.007 C 
ENDBRANCH  10  14
BRANCH  11  17
ATOM     17  C   UNL     1      -1.700   1.579  23.649  0.00  0.00    +0.113 C 
BRANCH  17   6
ATOM      6  N   UNL     1      -0.380   2.075  24.070  0.00  0.00    -0.189 NA
ATOM     39  H   UNL     1       0.326   1.369  24.312  0.00  0.00    +0.148 HD
BRANCH   6   1
ATOM      1  S   UNL     1      -0.230   3.619  24.776  0.00  0.00    +0.058 S 
ATOM      3  O   UNL     1       0.201   4.566  23.766  0.00  0.00    -0.153 OA
ATOM      4  O   UNL     1       0.499   3.501  26.025  0.00  0.00    -0.153 OA
BRANCH   1  27
ATOM     27  C   UNL     1      -1.908   3.990  25.191  0.00  0.00    +0.105 A 
ATOM     29  C   UNL     1      -2.386   3.715  26.472  0.00  0.00    +0.032 A 
ATOM     30  C   UNL     1      -2.753   4.555  24.236  0.00  0.00    +0.032 A 
ATOM     32  C   UNL     1      -3.711   4.006  26.799  0.00  0.00    +0.047 A 
ATOM     33  C   UNL     1      -4.078   4.845  24.562  0.00  0.00    +0.047 A 
ATOM     34  C   UNL     1      -4.556   4.571  25.844  0.00  0.00    +0.120 A 
BRANCH  34   5
ATOM      5  O   UNL     1      -5.849   4.855  26.163  0.00  0.00    -0.495 OA
ATOM     38  C   UNL     1      -6.634   5.508  25.166  0.00  0.00    +0.277 C 
ENDBRANCH  34   5
ENDBRANCH   1  27
ENDBRANCH   6   1
ENDBRANCH  17   6
ENDBRANCH  11  17
BRANCH  13  18
ATOM     18  C   UNL     1      -2.950  -2.627  25.678  0.00  0.00    +0.103 C 
BRANCH  18  22
ATOM      2  O   UNL     1      -3.310  -2.398  23.342  0.00  0.00    -0.276 OA
ATOM      7  N   UNL     1      -1.151  -2.011  24.107  0.00  0.00    -0.298 N 
ATOM      8  N   UNL     1       1.570  -1.117  23.687  0.00  0.00    -0.312 N 
ATOM      9  N   UNL     1       3.903  -1.451  23.848  0.00  0.00    -0.240 NA
ATOM     22  C   UNL     1      -2.498  -2.335  24.268  0.00  0.00    +0.216 C 
ATOM     23  C   UNL     1      -0.190  -1.927  25.210  0.00  0.00    +0.126 C 
ATOM     24  C   UNL     1      -0.634  -1.720  22.773  0.00  0.00    +0.126 C 
ATOM     25  C   UNL     1       1.258  -2.080  24.745  0.00  0.00    +0.125 C 
ATOM     26  C   UNL     1       0.484  -0.680  22.807  0.00  0.00    +0.125 C 
ATOM     28  C   UNL     1       2.870  -0.652  23.497  0.00  0.00    +0.121 A 
ATOM     31  C   UNL     1       3.018   0.614  22.954  0.00  0.00    +0.043 A 
ATOM     35  C   UNL     1       4.308   1.092  22.758  0.00  0.00    +0.005 A 
ATOM     36  C   UNL     1       5.143  -0.952  23.642  0.00  0.00    +0.113 A 
ATOM     37  C   UNL     1       5.397   0.298  23.106  0.00  0.00    +0.020 A 
ENDBRANCH  18  22
ENDBRANCH  13  18
TORSDOF 8
ENDMDL
MODEL 7
REMARK VINA RESULT:      12.3      2.397      5.850
REMARK  Name = 45783894
REMARK  12 active torsions:
REMARK  status: ('A' for Active; 'I' for Inactive)
REMARK    1  A    between atoms: S_1  and  N_6
REMARK    2  A    between atoms: S_1  and  C_27
REMARK    3  A    between atoms: O_5  and  C_34
REMARK    4  A    between atoms: O_5  and  C_38
REMARK    5  A    between atoms: N_6  and  C_17
REMARK    6  A    between atoms: C_10  and  C_14
REMARK    7  A    between atoms: C_11  and  C_17
REMARK    8  A    between atoms: C_13  and  C_18
REMARK    9  A    between atoms: C_14  and  C_19
REMARK   10  A    between atoms: C_14  and  C_20
REMARK   11  A    between atoms: C_15  and  C_21
REMARK   12  A    between atoms: C_18  and  C_22
REMARK                            x       y       z     vdW  Elec       q    Type
REMARK                         _______ _______ _______ _____ _____    ______ ____
ROOT
ATOM     10  C   UNL     1      -3.072   0.823  24.802  0.00  0.00    +0.000 C 
ATOM     11  C   UNL     1      -2.060  -0.088  24.065  0.00  0.00    +0.030 C 
ATOM     12  C   UNL     1      -4.203   1.246  23.853  0.00  0.00    +0.012 C 
ATOM     13  C   UNL     1      -3.676   2.002  22.619  0.00  0.00    +0.023 C 
ATOM     15  C   UNL     1      -2.492   1.295  21.989  0.00  0.00    -0.073 C 
ATOM     16  C   UNL     1      -1.790   0.354  22.646  0.00  0.00    -0.023 C 
ATOM     21  C   UNL     1      -2.161   1.663  20.569  0.00  0.00    +0.039 C 
ENDROOT
BRANCH  10  14
ATOM     14  C   UNL     1      -3.663   0.135  26.037  0.00  0.00    -0.013 C 
ATOM     19  C   UNL     1      -3.522  -1.379  25.920  0.00  0.00    +0.007 C 
ATOM     20  C   UNL     1      -5.125   0.530  26.219  0.00  0.00    +0.007 C 
ENDBRANCH  10  14
BRANCH  11  17
ATOM     17  C   UNL     1      -0.735  -0.178  24.832  0.00  0.00    +0.113 C 
BRANCH  17   6
ATOM      6  N   UNL     1       0.291  -0.759  23.952  0.00  0.00    -0.189 NA
ATOM     39  H   UNL     1       0.814  -1.563  24.318  0.00  0.00    +0.148 HD
BRANCH   6   1
ATOM      1  S   UNL     1       1.043   0.201  22.762  0.00  0.00    +0.058 S 
ATOM      3  O   UNL     1       0.726   1.596  23.003  0.00  0.00    -0.153 OA
ATOM      4  O   UNL     1       0.807  -0.386  21.458  0.00  0.00    -0.153 OA
BRANCH   1  27
ATOM     27  C   UNL     1       2.755  -0.040  23.134  0.00  0.00    +0.105 A 
ATOM     29  C   UNL     1       3.198  -1.276  23.605  0.00  0.00    +0.032 A 
ATOM     30  C   UNL     1       3.660   1.006  22.959  0.00  0.00    +0.032 A 
ATOM     32  C   UNL     1       4.548  -1.466  23.901  0.00  0.00    +0.047 A 
ATOM     33  C   UNL     1       5.010   0.816  23.256  0.00  0.00    +0.047 A 
ATOM     34  C   UNL     1       5.453  -0.420  23.726  0.00  0.00    +0.120 A 
BRANCH  34   5
ATOM      5  O   UNL     1       6.771  -0.606  24.015  0.00  0.00    -0.495 OA
ATOM     38  C   UNL     1       7.677  -0.648  22.913  0.00  0.00    +0.277 C 
ENDBRANCH  34   5
ENDBRANCH   1  27
ENDBRANCH   6   1
ENDBRANCH  17   6
ENDBRANCH  11  17
BRANCH  13  18
ATOM     18  C   UNL     1      -3.326   3.453  22.967  0.00  0.00    +0.103 C 
BRANCH  18  22
ATOM      2  O   UNL     1      -4.668   3.982  24.853  0.00  0.00    -0.276 OA
ATOM      7  N   UNL     1      -2.417   3.574  25.256  0.00  0.00    -0.298 N 
ATOM      8  N   UNL     1      -0.199   3.139  27.065  0.00  0.00    -0.312 N 
ATOM      9  N   UNL     1       1.992   3.626  27.802  0.00  0.00    -0.240 NA
ATOM     22  C   UNL     1      -3.542   3.693  24.441  0.00  0.00    +0.216 C 
ATOM     23  C   UNL     1      -1.082   3.220  24.766  0.00  0.00    +0.126 C 
ATOM     24  C   UNL     1      -2.542   3.795  26.694  0.00  0.00    +0.126 C 
ATOM     25  C   UNL     1       0.032   3.660  25.716  0.00  0.00    +0.125 C 
ATOM     26  C   UNL     1      -1.582   2.918  27.494  0.00  0.00    +0.125 C 
ATOM     28  C   UNL     1       0.863   2.893  27.933  0.00  0.00    +0.121 A 
ATOM     31  C   UNL     1       0.688   1.901  28.885  0.00  0.00    +0.043 A 
ATOM     35  C   UNL     1       1.738   1.644  29.758  0.00  0.00    +0.005 A 
ATOM     36  C   UNL     1       2.992   3.348  28.670  0.00  0.00    +0.113 A 
ATOM     37  C   UNL     1       2.916   2.378  29.655  0.00  0.00    +0.020 A 
ENDBRANCH  18  22
ENDBRANCH  13  18
TORSDOF 8
ENDMDL
MODEL 8
REMARK VINA RESULT:      12.3      2.323      5.914
REMARK  Name = 45783894
REMARK  12 active torsions:
REMARK  status: ('A' for Active; 'I' for Inactive)
REMARK    1  A    between atoms: S_1  and  N_6
REMARK    2  A    between atoms: S_1  and  C_27
REMARK    3  A    between atoms: O_5  and  C_34
REMARK    4  A    between atoms: O_5  and  C_38
REMARK    5  A    between atoms: N_6  and  C_17
REMARK    6  A    between atoms: C_10  and  C_14
REMARK    7  A    between atoms: C_11  and  C_17
REMARK    8  A    between atoms: C_13  and  C_18
REMARK    9  A    between atoms: C_14  and  C_19
REMARK   10  A    between atoms: C_14  and  C_20
REMARK   11  A    between atoms: C_15  and  C_21
REMARK   12  A    between atoms: C_18  and  C_22
REMARK                            x       y       z     vdW  Elec       q    Type
REMARK                         _______ _______ _______ _____ _____    ______ ____
ROOT
ATOM     10  C   UNL     1      -4.488   2.589  25.188  0.00  0.00    +0.000 C 
ATOM     11  C   UNL     1      -4.327   1.117  24.735  0.00  0.00    +0.030 C 
ATOM     12  C   UNL     1      -4.911   3.472  24.005  0.00  0.00    +0.012 C 
ATOM     13  C   UNL     1      -3.891   3.426  22.851  0.00  0.00    +0.023 C 
ATOM     15  C   UNL     1      -3.476   2.006  22.522  0.00  0.00    -0.073 C 
ATOM     16  C   UNL     1      -3.691   0.985  23.371  0.00  0.00    -0.023 C 
ATOM     21  C   UNL     1      -2.848   1.779  21.175  0.00  0.00    +0.039 C 
ENDROOT
BRANCH  10  14
ATOM     14  C   UNL     1      -5.506   2.725  26.325  0.00  0.00    -0.013 C 
ATOM     19  C   UNL     1      -6.468   1.542  26.323  0.00  0.00    +0.007 C 
ATOM     20  C   UNL     1      -6.267   4.042  26.204  0.00  0.00    +0.007 C 
ENDBRANCH  10  14
BRANCH  11  17
ATOM     17  C   UNL     1      -3.518   0.309  25.756  0.00  0.00    +0.113 C 
BRANCH  17   6
ATOM      6  N   UNL     1      -4.083  -1.046  25.853  0.00  0.00    -0.189 NA
ATOM     39  H   UNL     1      -4.459  -1.328  26.766  0.00  0.00    +0.148 HD
BRANCH   6   1
ATOM      1  S   UNL     1      -3.546  -2.276  24.804  0.00  0.00    +0.058 S 
ATOM      3  O   UNL     1      -4.302  -2.215  23.567  0.00  0.00    -0.153 OA
ATOM      4  O   UNL     1      -3.453  -3.522  25.541  0.00  0.00    -0.153 OA
BRANCH   1  27
ATOM     27  C   UNL     1      -1.892  -1.758  24.458  0.00  0.00    +0.105 A 
ATOM     29  C   UNL     1      -1.613  -1.053  23.286  0.00  0.00    +0.032 A 
ATOM     30  C   UNL     1      -0.866  -2.055  25.355  0.00  0.00    +0.032 A 
ATOM     32  C   UNL     1      -0.307  -0.646  23.012  0.00  0.00    +0.047 A 
ATOM     33  C   UNL     1       0.440  -1.648  25.080  0.00  0.00    +0.047 A 
ATOM     34  C   UNL     1       0.718  -0.943  23.909  0.00  0.00    +0.120 A 
BRANCH  34   5
ATOM      5  O   UNL     1       1.993  -0.546  23.641  0.00  0.00    -0.495 OA
ATOM     38  C   UNL     1       2.223   0.090  22.385  0.00  0.00    +0.277 C 
ENDBRANCH  34   5
ENDBRANCH   1  27
ENDBRANCH   6   1
ENDBRANCH  17   6
ENDBRANCH  11  17
BRANCH  13  18
ATOM     18  C   UNL     1      -2.668   4.297  23.159  0.00  0.00    +0.103 C 
BRANCH  18  22
ATOM      2  O   UNL     1      -0.961   3.015  22.122  0.00  0.00    -0.276 OA
ATOM      7  N   UNL     1      -0.873   3.190  24.437  0.00  0.00    -0.298 N 
ATOM      8  N   UNL     1       0.476   2.780  26.965  0.00  0.00    -0.312 N 
ATOM      9  N   UNL     1       0.492   2.004  29.196  0.00  0.00    -0.240 NA
ATOM     22  C   UNL     1      -1.424   3.445  23.181  0.00  0.00    +0.216 C 
ATOM     23  C   UNL     1      -1.418   3.710  25.693  0.00  0.00    +0.126 C 
ATOM     24  C   UNL     1       0.329   2.368  24.543  0.00  0.00    +0.126 C 
ATOM     25  C   UNL     1      -0.984   2.893  26.910  0.00  0.00    +0.125 C 
ATOM     26  C   UNL     1       1.221   2.805  25.704  0.00  0.00    +0.125 C 
ATOM     28  C   UNL     1       1.140   2.617  28.180  0.00  0.00    +0.121 A 
ATOM     31  C   UNL     1       2.436   3.100  28.264  0.00  0.00    +0.043 A 
ATOM     35  C   UNL     1       3.110   2.945  29.469  0.00  0.00    +0.005 A 
ATOM     36  C   UNL     1       1.181   1.871  30.353  0.00  0.00    +0.113 A 
ATOM     37  C   UNL     1       2.478   2.319  30.538  0.00  0.00    +0.020 A 
ENDBRANCH  18  22
ENDBRANCH  13  18
TORSDOF 8
ENDMDL
