MODEL 1
REMARK VINA RESULT:      -0.3      0.000      0.000
REMARK  Name = 45783914
REMARK  12 active torsions:
REMARK  status: ('A' for Active; 'I' for Inactive)
REMARK    1  A    between atoms: O_2  and  C_26
REMARK    2  A    between atoms: N_3  and  C_13
REMARK    3  A    between atoms: N_4  and  C_25
REMARK    4  A    between atoms: C_8  and  C_12
REMARK    5  A    between atoms: C_9  and  C_13
REMARK    6  A    between atoms: C_11  and  C_16
REMARK    7  A    between atoms: C_12  and  C_19
REMARK    8  A    between atoms: C_12  and  C_20
REMARK    9  A    between atoms: C_15  and  C_23
REMARK   10  A    between atoms: C_16  and  C_24
REMARK   11  A    between atoms: C_25  and  C_26
REMARK   12  A    between atoms: C_27  and  C_28
REMARK                            x       y       z     vdW  Elec       q    Type
REMARK                         _______ _______ _______ _____ _____    ______ ____
ROOT
ATOM      8  C   UNL     1      -1.835   3.719  23.911  0.00  0.00    +0.000 C 
ATOM      9  C   UNL     1      -1.135   2.917  25.032  0.00  0.00    +0.029 C 
ATOM     10  C   UNL     1      -3.359   3.680  24.094  0.00  0.00    +0.012 C 
ATOM     11  C   UNL     1      -3.824   4.205  25.468  0.00  0.00    +0.024 C 
ATOM     14  C   UNL     1      -1.722   3.190  26.394  0.00  0.00    -0.023 C 
ATOM     15  C   UNL     1      -2.915   3.775  26.609  0.00  0.00    -0.073 C 
ATOM     23  C   UNL     1      -3.367   4.079  28.012  0.00  0.00    +0.039 C 
ENDROOT
BRANCH   8  12
ATOM     12  C   UNL     1      -1.321   5.164  23.852  0.00  0.00    -0.013 C 
ATOM     19  C   UNL     1      -2.468   6.146  24.074  0.00  0.00    +0.007 C 
ATOM     20  C   UNL     1      -0.218   5.379  24.882  0.00  0.00    +0.007 C 
ENDBRANCH   8  12
BRANCH   9  13
ATOM     13  C   UNL     1      -1.174   1.411  24.760  0.00  0.00    +0.092 C 
BRANCH  13   3
ATOM      3  N   UNL     1       0.152   0.917  24.396  0.00  0.00    -0.299 NA
ATOM      4  N   UNL     1       2.286   0.418  22.510  0.00  0.00    -0.298 NA
ATOM     17  C   UNL     1       0.053  -0.157  23.399  0.00  0.00    +0.100 C 
ATOM     18  C   UNL     1       0.996   2.008  23.893  0.00  0.00    +0.100 C 
ATOM     21  C   UNL     1       1.444  -0.674  23.014  0.00  0.00    +0.100 C 
ATOM     22  C   UNL     1       2.386   1.489  23.508  0.00  0.00    +0.100 C 
BRANCH   4  25
ATOM     25  C   UNL     1       3.613  -0.077  22.144  0.00  0.00    +0.112 C 
BRANCH  25  26
ATOM     26  C   UNL     1       4.652   0.372  23.159  0.00  0.00    +0.171 C 
BRANCH  26   2
ATOM      2  O   UNL     1       4.987  -0.732  23.988  0.00  0.00    -0.394 OA
ATOM     33  H   UNL     1       4.151  -1.107  24.316  0.00  0.00    +0.209 HD
ENDBRANCH  26   2
ENDBRANCH  25  26
ENDBRANCH   4  25
ENDBRANCH  13   3
ENDBRANCH   9  13
BRANCH  11  16
ATOM     16  C   UNL     1      -5.286   3.791  25.683  0.00  0.00    +0.105 C 
BRANCH  16  24
ATOM      1  O   UNL     1      -4.465   1.522  25.313  0.00  0.00    -0.420 OA
ATOM      5  N   UNL     1      -6.622   1.813  24.793  0.00  0.00    -0.112 NA
ATOM      6  N   UNL     1      -6.295   0.494  24.538  0.00  0.00    -0.107 NA
ATOM     24  C   UNL     1      -5.524   2.374  25.245  0.00  0.00    +0.218 A 
ATOM     27  C   UNL     1      -5.028   0.370  24.855  0.00  0.00    +0.248 A 
BRANCH  27  28
ATOM      7  N   UNL     1      -2.471  -2.996  24.682  0.00  0.00    -0.263 NA
ATOM     28  C   UNL     1      -4.161  -0.770  24.795  0.00  0.00    +0.041 A 
ATOM     29  C   UNL     1      -3.105  -0.893  25.694  0.00  0.00    +0.033 A 
ATOM     30  C   UNL     1      -4.371  -1.759  23.841  0.00  0.00    +0.033 A 
ATOM     31  C   UNL     1      -2.297  -2.014  25.595  0.00  0.00    +0.111 A 
ATOM     32  C   UNL     1      -3.506  -2.841  23.825  0.00  0.00    +0.111 A 
ENDBRANCH  27  28
ENDBRANCH  16  24
ENDBRANCH  11  16
TORSDOF 9
ENDMDL
MODEL 2
REMARK VINA RESULT:       1.0      1.998      5.993
REMARK  Name = 45783914
REMARK  12 active torsions:
REMARK  status: ('A' for Active; 'I' for Inactive)
REMARK    1  A    between atoms: O_2  and  C_26
REMARK    2  A    between atoms: N_3  and  C_13
REMARK    3  A    between atoms: N_4  and  C_25
REMARK    4  A    between atoms: C_8  and  C_12
REMARK    5  A    between atoms: C_9  and  C_13
REMARK    6  A    between atoms: C_11  and  C_16
REMARK    7  A    between atoms: C_12  and  C_19
REMARK    8  A    between atoms: C_12  and  C_20
REMARK    9  A    between atoms: C_15  and  C_23
REMARK   10  A    between atoms: C_16  and  C_24
REMARK   11  A    between atoms: C_25  and  C_26
REMARK   12  A    between atoms: C_27  and  C_28
REMARK                            x       y       z     vdW  Elec       q    Type
REMARK                         _______ _______ _______ _____ _____    ______ ____
ROOT
ATOM      8  C   UNL     1      -2.619   2.951  25.699  0.00  0.00    +0.000 C 
ATOM      9  C   UNL     1      -4.113   3.045  25.313  0.00  0.00    +0.029 C 
ATOM     10  C   UNL     1      -1.861   2.063  24.701  0.00  0.00    +0.012 C 
ATOM     11  C   UNL     1      -1.985   2.543  23.239  0.00  0.00    +0.024 C 
ATOM     14  C   UNL     1      -4.318   3.257  23.834  0.00  0.00    -0.023 C 
ATOM     15  C   UNL     1      -3.377   3.050  22.894  0.00  0.00    -0.073 C 
ATOM     23  C   UNL     1      -3.661   3.376  21.453  0.00  0.00    +0.039 C 
ENDROOT
BRANCH   8  12
ATOM     12  C   UNL     1      -1.978   4.342  25.801  0.00  0.00    -0.013 C 
ATOM     19  C   UNL     1      -0.726   4.415  24.931  0.00  0.00    +0.007 C 
ATOM     20  C   UNL     1      -2.980   5.419  25.400  0.00  0.00    +0.007 C 
ENDBRANCH   8  12
BRANCH   9  13
ATOM     13  C   UNL     1      -4.892   1.803  25.757  0.00  0.00    +0.092 C 
BRANCH  13   3
ATOM      3  N   UNL     1      -4.204   0.584  25.337  0.00  0.00    -0.299 NA
ATOM      4  N   UNL     1      -4.054  -2.271  24.910  0.00  0.00    -0.298 NA
ATOM     17  C   UNL     1      -4.063  -0.349  26.462  0.00  0.00    +0.100 C 
ATOM     18  C   UNL     1      -4.912  -0.058  24.224  0.00  0.00    +0.100 C 
ATOM     21  C   UNL     1      -3.344  -1.629  26.022  0.00  0.00    +0.100 C 
ATOM     22  C   UNL     1      -4.192  -1.338  23.785  0.00  0.00    +0.100 C 
BRANCH   4  25
ATOM     25  C   UNL     1      -3.367  -3.492  24.491  0.00  0.00    +0.112 C 
BRANCH  25  26
ATOM     26  C   UNL     1      -2.011  -3.164  23.885  0.00  0.00    +0.171 C 
BRANCH  26   2
ATOM      2  O   UNL     1      -1.069  -3.004  24.937  0.00  0.00    -0.394 OA
ATOM     33  H   UNL     1      -0.230  -2.726  24.529  0.00  0.00    +0.209 HD
ENDBRANCH  26   2
ENDBRANCH  25  26
ENDBRANCH   4  25
ENDBRANCH  13   3
ENDBRANCH   9  13
BRANCH  11  16
ATOM     16  C   UNL     1      -1.515   1.415  22.311  0.00  0.00    +0.105 C 
BRANCH  16  24
ATOM      1  O   UNL     1       0.815   0.792  22.692  0.00  0.00    -0.420 OA
ATOM      5  N   UNL     1      -0.664  -0.448  23.826  0.00  0.00    -0.112 NA
ATOM      6  N   UNL     1       0.604  -0.906  24.134  0.00  0.00    -0.107 NA
ATOM     24  C   UNL     1      -0.492   0.543  22.982  0.00  0.00    +0.218 A 
ATOM     27  C   UNL     1       1.434  -0.154  23.450  0.00  0.00    +0.248 A 
BRANCH  27  28
ATOM      7  N   UNL     1       5.659  -0.212  23.245  0.00  0.00    -0.263 NA
ATOM     28  C   UNL     1       2.866  -0.174  23.380  0.00  0.00    +0.041 A 
ATOM     29  C   UNL     1       3.556   0.921  22.870  0.00  0.00    +0.033 A 
ATOM     30  C   UNL     1       3.571  -1.287  23.822  0.00  0.00    +0.033 A 
ATOM     31  C   UNL     1       4.939   0.853  22.824  0.00  0.00    +0.111 A 
ATOM     32  C   UNL     1       4.954  -1.257  23.733  0.00  0.00    +0.111 A 
ENDBRANCH  27  28
ENDBRANCH  16  24
ENDBRANCH  11  16
TORSDOF 9
ENDMDL
MODEL 3
REMARK VINA RESULT:       1.0      1.571      4.898
REMARK  Name = 45783914
REMARK  12 active torsions:
REMARK  status: ('A' for Active; 'I' for Inactive)
REMARK    1  A    between atoms: O_2  and  C_26
REMARK    2  A    between atoms: N_3  and  C_13
REMARK    3  A    between atoms: N_4  and  C_25
REMARK    4  A    between atoms: C_8  and  C_12
REMARK    5  A    between atoms: C_9  and  C_13
REMARK    6  A    between atoms: C_11  and  C_16
REMARK    7  A    between atoms: C_12  and  C_19
REMARK    8  A    between atoms: C_12  and  C_20
REMARK    9  A    between atoms: C_15  and  C_23
REMARK   10  A    between atoms: C_16  and  C_24
REMARK   11  A    between atoms: C_25  and  C_26
REMARK   12  A    between atoms: C_27  and  C_28
REMARK                            x       y       z     vdW  Elec       q    Type
REMARK                         _______ _______ _______ _____ _____    ______ ____
ROOT
ATOM      8  C   UNL     1      -1.354  -0.293  25.405  0.00  0.00    +0.000 C 
ATOM      9  C   UNL     1      -1.250  -0.632  23.899  0.00  0.00    +0.029 C 
ATOM     10  C   UNL     1      -2.762   0.218  25.743  0.00  0.00    +0.012 C 
ATOM     11  C   UNL     1      -3.881  -0.773  25.361  0.00  0.00    +0.024 C 
ATOM     14  C   UNL     1      -2.451  -1.387  23.390  0.00  0.00    -0.023 C 
ATOM     15  C   UNL     1      -3.631  -1.471  24.033  0.00  0.00    -0.073 C 
ATOM     23  C   UNL     1      -4.738  -2.324  23.475  0.00  0.00    +0.039 C 
ENDROOT
BRANCH   8  12
ATOM     12  C   UNL     1      -0.978  -1.499  26.277  0.00  0.00    -0.013 C 
ATOM     19  C   UNL     1       0.138  -2.304  25.618  0.00  0.00    +0.007 C 
ATOM     20  C   UNL     1      -0.563  -1.038  27.670  0.00  0.00    +0.007 C 
ENDBRANCH   8  12
BRANCH   9  13
ATOM     13  C   UNL     1      -1.046   0.625  23.049  0.00  0.00    +0.092 C 
BRANCH  13   3
ATOM      3  N   UNL     1       0.361   0.784  22.689  0.00  0.00    -0.299 NA
ATOM      4  N   UNL     1       3.180   0.236  23.016  0.00  0.00    -0.298 NA
ATOM     17  C   UNL     1       1.124   1.356  23.805  0.00  0.00    +0.100 C 
ATOM     18  C   UNL     1       0.941  -0.500  22.275  0.00  0.00    +0.100 C 
ATOM     21  C   UNL     1       2.601   1.520  23.429  0.00  0.00    +0.100 C 
ATOM     22  C   UNL     1       2.418  -0.334  21.899  0.00  0.00    +0.100 C 
BRANCH   4  25
ATOM     25  C   UNL     1       4.589   0.394  22.657  0.00  0.00    +0.112 C 
BRANCH  25  26
ATOM     26  C   UNL     1       5.488  -0.081  23.787  0.00  0.00    +0.171 C 
BRANCH  26   2
ATOM      2  O   UNL     1       5.007  -1.334  24.256  0.00  0.00    -0.394 OA
ATOM     33  H   UNL     1       5.725  -1.978  24.135  0.00  0.00    +0.209 HD
ENDBRANCH  26   2
ENDBRANCH  25  26
ENDBRANCH   4  25
ENDBRANCH  13   3
ENDBRANCH   9  13
BRANCH  11  16
ATOM     16  C   UNL     1      -5.225  -0.033  25.401  0.00  0.00    +0.105 C 
BRANCH  16  24
ATOM      1  O   UNL     1      -3.761   1.911  25.210  0.00  0.00    -0.420 OA
ATOM      5  N   UNL     1      -5.921   2.415  25.506  0.00  0.00    -0.112 NA
ATOM      6  N   UNL     1      -5.214   3.600  25.415  0.00  0.00    -0.107 NA
ATOM     24  C   UNL     1      -5.033   1.456  25.381  0.00  0.00    +0.218 A 
ATOM     27  C   UNL     1      -3.958   3.257  25.242  0.00  0.00    +0.248 A 
BRANCH  27  28
ATOM      7  N   UNL     1      -0.498   5.645  24.777  0.00  0.00    -0.263 NA
ATOM     28  C   UNL     1      -2.785   4.066  25.086  0.00  0.00    +0.041 A 
ATOM     29  C   UNL     1      -1.551   3.469  24.849  0.00  0.00    +0.033 A 
ATOM     30  C   UNL     1      -2.877   5.451  25.168  0.00  0.00    +0.033 A 
ATOM     31  C   UNL     1      -0.449   4.296  24.704  0.00  0.00    +0.111 A 
ATOM     32  C   UNL     1      -1.714   6.189  25.009  0.00  0.00    +0.111 A 
ENDBRANCH  27  28
ENDBRANCH  16  24
ENDBRANCH  11  16
TORSDOF 9
ENDMDL
MODEL 4
REMARK VINA RESULT:       1.4      2.080      7.272
REMARK  Name = 45783914
REMARK  12 active torsions:
REMARK  status: ('A' for Active; 'I' for Inactive)
REMARK    1  A    between atoms: O_2  and  C_26
REMARK    2  A    between atoms: N_3  and  C_13
REMARK    3  A    between atoms: N_4  and  C_25
REMARK    4  A    between atoms: C_8  and  C_12
REMARK    5  A    between atoms: C_9  and  C_13
REMARK    6  A    between atoms: C_11  and  C_16
REMARK    7  A    between atoms: C_12  and  C_19
REMARK    8  A    between atoms: C_12  and  C_20
REMARK    9  A    between atoms: C_15  and  C_23
REMARK   10  A    between atoms: C_16  and  C_24
REMARK   11  A    between atoms: C_25  and  C_26
REMARK   12  A    between atoms: C_27  and  C_28
REMARK                            x       y       z     vdW  Elec       q    Type
REMARK                         _______ _______ _______ _____ _____    ______ ____
ROOT
ATOM      8  C   UNL     1      -4.223  -1.095  23.814  0.00  0.00    +0.000 C 
ATOM      9  C   UNL     1      -4.453  -0.693  25.290  0.00  0.00    +0.029 C 
ATOM     10  C   UNL     1      -3.099  -0.251  23.196  0.00  0.00    +0.012 C 
ATOM     11  C   UNL     1      -1.767  -0.346  23.969  0.00  0.00    +0.024 C 
ATOM     14  C   UNL     1      -3.163  -0.512  26.049  0.00  0.00    -0.023 C 
ATOM     15  C   UNL     1      -1.953  -0.367  25.478  0.00  0.00    -0.073 C 
ATOM     23  C   UNL     1      -0.717  -0.279  26.333  0.00  0.00    +0.039 C 
ENDROOT
BRANCH   8  12
ATOM     12  C   UNL     1      -3.925  -2.595  23.683  0.00  0.00    -0.013 C 
ATOM     19  C   UNL     1      -3.495  -3.171  25.029  0.00  0.00    +0.007 C 
ATOM     20  C   UNL     1      -5.144  -3.334  23.143  0.00  0.00    +0.007 C 
ENDBRANCH   8  12
BRANCH   9  13
ATOM     13  C   UNL     1      -5.289   0.585  25.404  0.00  0.00    +0.092 C 
BRANCH  13   3
ATOM      3  N   UNL     1      -4.439   1.769  25.306  0.00  0.00    -0.299 NA
ATOM      4  N   UNL     1      -3.930   4.520  24.577  0.00  0.00    -0.298 NA
ATOM     17  C   UNL     1      -4.255   2.165  23.904  0.00  0.00    +0.100 C 
ATOM     18  C   UNL     1      -5.001   2.881  26.083  0.00  0.00    +0.100 C 
ATOM     21  C   UNL     1      -3.366   3.409  23.800  0.00  0.00    +0.100 C 
ATOM     22  C   UNL     1      -4.111   4.124  25.978  0.00  0.00    +0.100 C 
BRANCH   4  25
ATOM     25  C   UNL     1      -3.080   5.706  24.477  0.00  0.00    +0.112 C 
BRANCH  25  26
ATOM     26  C   UNL     1      -1.839   5.551  25.342  0.00  0.00    +0.171 C 
BRANCH  26   2
ATOM      2  O   UNL     1      -0.733   5.248  24.502  0.00  0.00    -0.394 OA
ATOM     33  H   UNL     1      -0.836   4.323  24.218  0.00  0.00    +0.209 HD
ENDBRANCH  26   2
ENDBRANCH  25  26
ENDBRANCH   4  25
ENDBRANCH  13   3
ENDBRANCH   9  13
BRANCH  11  16
ATOM     16  C   UNL     1      -0.845   0.786  23.498  0.00  0.00    +0.105 C 
BRANCH  16  24
ATOM      1  O   UNL     1       1.552   0.332  23.587  0.00  0.00    -0.420 OA
ATOM      5  N   UNL     1       0.569  -0.305  21.681  0.00  0.00    -0.112 NA
ATOM      6  N   UNL     1       1.912  -0.621  21.595  0.00  0.00    -0.107 NA
ATOM     24  C   UNL     1       0.404   0.248  22.861  0.00  0.00    +0.218 A 
ATOM     27  C   UNL     1       2.446  -0.231  22.729  0.00  0.00    +0.248 A 
BRANCH  27  28
ATOM      7  N   UNL     1       6.440  -0.450  24.105  0.00  0.00    -0.263 NA
ATOM     28  C   UNL     1       3.800  -0.306  23.195  0.00  0.00    +0.041 A 
ATOM     29  C   UNL     1       4.642   0.795  23.074  0.00  0.00    +0.033 A 
ATOM     30  C   UNL     1       4.277  -1.478  23.770  0.00  0.00    +0.033 A 
ATOM     31  C   UNL     1       5.941   0.672  23.539  0.00  0.00    +0.111 A 
ATOM     32  C   UNL     1       5.593  -1.499  24.205  0.00  0.00    +0.111 A 
ENDBRANCH  27  28
ENDBRANCH  16  24
ENDBRANCH  11  16
TORSDOF 9
ENDMDL
MODEL 5
REMARK VINA RESULT:       1.9      1.466      4.835
REMARK  Name = 45783914
REMARK  12 active torsions:
REMARK  status: ('A' for Active; 'I' for Inactive)
REMARK    1  A    between atoms: O_2  and  C_26
REMARK    2  A    between atoms: N_3  and  C_13
REMARK    3  A    between atoms: N_4  and  C_25
REMARK    4  A    between atoms: C_8  and  C_12
REMARK    5  A    between atoms: C_9  and  C_13
REMARK    6  A    between atoms: C_11  and  C_16
REMARK    7  A    between atoms: C_12  and  C_19
REMARK    8  A    between atoms: C_12  and  C_20
REMARK    9  A    between atoms: C_15  and  C_23
REMARK   10  A    between atoms: C_16  and  C_24
REMARK   11  A    between atoms: C_25  and  C_26
REMARK   12  A    between atoms: C_27  and  C_28
REMARK                            x       y       z     vdW  Elec       q    Type
REMARK                         _______ _______ _______ _____ _____    ______ ____
ROOT
ATOM      8  C   UNL     1      -2.983  -1.466  25.483  0.00  0.00    +0.000 C 
ATOM      9  C   UNL     1      -2.163  -0.499  24.598  0.00  0.00    +0.029 C 
ATOM     10  C   UNL     1      -4.107  -0.711  26.206  0.00  0.00    +0.012 C 
ATOM     11  C   UNL     1      -5.056   0.037  25.247  0.00  0.00    +0.024 C 
ATOM     14  C   UNL     1      -3.034   0.452  23.817  0.00  0.00    -0.023 C 
ATOM     15  C   UNL     1      -4.331   0.695  24.083  0.00  0.00    -0.073 C 
ATOM     23  C   UNL     1      -5.132   1.599  23.185  0.00  0.00    +0.039 C 
ENDROOT
BRANCH   8  12
ATOM     12  C   UNL     1      -3.540  -2.638  24.663  0.00  0.00    -0.013 C 
ATOM     19  C   UNL     1      -4.584  -2.141  23.667  0.00  0.00    +0.007 C 
ATOM     20  C   UNL     1      -2.412  -3.369  23.945  0.00  0.00    +0.007 C 
ENDBRANCH   8  12
BRANCH   9  13
ATOM     13  C   UNL     1      -1.154   0.305  25.423  0.00  0.00    +0.092 C 
BRANCH  13   3
ATOM      3  N   UNL     1       0.176   0.239  24.820  0.00  0.00    -0.299 NA
ATOM      4  N   UNL     1       1.986   0.276  22.566  0.00  0.00    -0.298 NA
ATOM     17  C   UNL     1       0.278  -0.905  23.906  0.00  0.00    +0.100 C 
ATOM     18  C   UNL     1       0.492   1.488  24.117  0.00  0.00    +0.100 C 
ATOM     21  C   UNL     1       1.671  -0.973  23.270  0.00  0.00    +0.100 C 
ATOM     22  C   UNL     1       1.886   1.418  23.482  0.00  0.00    +0.100 C 
BRANCH   4  25
ATOM     25  C   UNL     1       3.316   0.209  21.962  0.00  0.00    +0.112 C 
BRANCH  25  26
ATOM     26  C   UNL     1       4.361   0.792  22.899  0.00  0.00    +0.171 C 
BRANCH  26   2
ATOM      2  O   UNL     1       4.946  -0.267  23.645  0.00  0.00    -0.394 OA
ATOM     33  H   UNL     1       5.368  -0.867  23.006  0.00  0.00    +0.209 HD
ENDBRANCH  26   2
ENDBRANCH  25  26
ENDBRANCH   4  25
ENDBRANCH  13   3
ENDBRANCH   9  13
BRANCH  11  16
ATOM     16  C   UNL     1      -5.896   1.029  26.063  0.00  0.00    +0.105 C 
BRANCH  16  24
ATOM      1  O   UNL     1      -4.028   2.554  25.686  0.00  0.00    -0.420 OA
ATOM      5  N   UNL     1      -5.981   3.575  26.076  0.00  0.00    -0.112 NA
ATOM      6  N   UNL     1      -5.020   4.550  25.881  0.00  0.00    -0.107 NA
ATOM     24  C   UNL     1      -5.357   2.426  25.952  0.00  0.00    +0.218 A 
ATOM     27  C   UNL     1      -3.897   3.908  25.657  0.00  0.00    +0.248 A 
BRANCH  27  28
ATOM      7  N   UNL     1      -0.007   5.372  24.869  0.00  0.00    -0.263 NA
ATOM     28  C   UNL     1      -2.578   4.405  25.390  0.00  0.00    +0.041 A 
ATOM     29  C   UNL     1      -1.469   3.594  25.610  0.00  0.00    +0.033 A 
ATOM     30  C   UNL     1      -2.403   5.698  24.911  0.00  0.00    +0.033 A 
ATOM     31  C   UNL     1      -0.217   4.121  25.336  0.00  0.00    +0.111 A 
ATOM     32  C   UNL     1      -1.108   6.131  24.669  0.00  0.00    +0.111 A 
ENDBRANCH  27  28
ENDBRANCH  16  24
ENDBRANCH  11  16
TORSDOF 9
ENDMDL
MODEL 6
REMARK VINA RESULT:       2.3      2.578      5.192
REMARK  Name = 45783914
REMARK  12 active torsions:
REMARK  status: ('A' for Active; 'I' for Inactive)
REMARK    1  A    between atoms: O_2  and  C_26
REMARK    2  A    between atoms: N_3  and  C_13
REMARK    3  A    between atoms: N_4  and  C_25
REMARK    4  A    between atoms: C_8  and  C_12
REMARK    5  A    between atoms: C_9  and  C_13
REMARK    6  A    between atoms: C_11  and  C_16
REMARK    7  A    between atoms: C_12  and  C_19
REMARK    8  A    between atoms: C_12  and  C_20
REMARK    9  A    between atoms: C_15  and  C_23
REMARK   10  A    between atoms: C_16  and  C_24
REMARK   11  A    between atoms: C_25  and  C_26
REMARK   12  A    between atoms: C_27  and  C_28
REMARK                            x       y       z     vdW  Elec       q    Type
REMARK                         _______ _______ _______ _____ _____    ______ ____
ROOT
ATOM      8  C   UNL     1      -4.655   1.742  26.011  0.00  0.00    +0.000 C 
ATOM      9  C   UNL     1      -4.307   0.671  24.951  0.00  0.00    +0.029 C 
ATOM     10  C   UNL     1      -3.628   2.883  25.979  0.00  0.00    +0.012 C 
ATOM     11  C   UNL     1      -3.500   3.552  24.594  0.00  0.00    +0.024 C 
ATOM     14  C   UNL     1      -3.914   1.273  23.625  0.00  0.00    -0.023 C 
ATOM     15  C   UNL     1      -3.562   2.559  23.444  0.00  0.00    -0.073 C 
ATOM     23  C   UNL     1      -3.271   3.077  22.061  0.00  0.00    +0.039 C 
ENDROOT
BRANCH   8  12
ATOM     12  C   UNL     1      -6.082   2.276  25.820  0.00  0.00    -0.013 C 
ATOM     19  C   UNL     1      -6.065   3.794  25.667  0.00  0.00    +0.007 C 
ATOM     20  C   UNL     1      -6.739   1.617  24.612  0.00  0.00    +0.007 C 
ENDBRANCH   8  12
BRANCH   9  13
ATOM     13  C   UNL     1      -3.191  -0.260  25.433  0.00  0.00    +0.092 C 
BRANCH  13   3
ATOM      3  N   UNL     1      -1.942   0.023  24.729  0.00  0.00    -0.299 NA
ATOM      4  N   UNL     1       0.220  -0.673  22.940  0.00  0.00    -0.298 NA
ATOM     17  C   UNL     1      -0.891  -0.919  25.134  0.00  0.00    +0.100 C 
ATOM     18  C   UNL     1      -2.140  -0.024  23.275  0.00  0.00    +0.100 C 
ATOM     21  C   UNL     1       0.419  -0.626  24.394  0.00  0.00    +0.100 C 
ATOM     22  C   UNL     1      -0.829   0.270  22.537  0.00  0.00    +0.100 C 
BRANCH   4  25
ATOM     25  C   UNL     1       1.470  -0.392  22.237  0.00  0.00    +0.112 C 
BRANCH  25  26
ATOM     26  C   UNL     1       2.549   0.047  23.214  0.00  0.00    +0.171 C 
BRANCH  26   2
ATOM      2  O   UNL     1       2.622   1.467  23.205  0.00  0.00    -0.394 OA
ATOM     33  H   UNL     1       2.653   1.756  24.134  0.00  0.00    +0.209 HD
ENDBRANCH  26   2
ENDBRANCH  25  26
ENDBRANCH   4  25
ENDBRANCH  13   3
ENDBRANCH   9  13
BRANCH  11  16
ATOM     16  C   UNL     1      -2.224   4.405  24.577  0.00  0.00    +0.105 C 
BRANCH  16  24
ATOM      1  O   UNL     1      -0.711   3.681  26.351  0.00  0.00    -0.420 OA
ATOM      5  N   UNL     1      -0.223   2.848  24.333  0.00  0.00    -0.112 NA
ATOM      6  N   UNL     1       0.706   2.359  25.234  0.00  0.00    -0.107 NA
ATOM     24  C   UNL     1      -1.030   3.613  25.030  0.00  0.00    +0.218 A 
ATOM     27  C   UNL     1       0.382   2.872  26.398  0.00  0.00    +0.248 A 
BRANCH  27  28
ATOM      7  N   UNL     1       2.176   2.401  30.199  0.00  0.00    -0.263 NA
ATOM     28  C   UNL     1       0.990   2.713  27.687  0.00  0.00    +0.041 A 
ATOM     29  C   UNL     1       0.212   2.373  28.789  0.00  0.00    +0.033 A 
ATOM     30  C   UNL     1       2.359   2.898  27.840  0.00  0.00    +0.033 A 
ATOM     31  C   UNL     1       0.848   2.231  30.012  0.00  0.00    +0.111 A 
ATOM     32  C   UNL     1       2.899   2.732  29.106  0.00  0.00    +0.111 A 
ENDBRANCH  27  28
ENDBRANCH  16  24
ENDBRANCH  11  16
TORSDOF 9
ENDMDL
MODEL 7
REMARK VINA RESULT:       2.5      1.950      5.406
REMARK  Name = 45783914
REMARK  12 active torsions:
REMARK  status: ('A' for Active; 'I' for Inactive)
REMARK    1  A    between atoms: O_2  and  C_26
REMARK    2  A    between atoms: N_3  and  C_13
REMARK    3  A    between atoms: N_4  and  C_25
REMARK    4  A    between atoms: C_8  and  C_12
REMARK    5  A    between atoms: C_9  and  C_13
REMARK    6  A    between atoms: C_11  and  C_16
REMARK    7  A    between atoms: C_12  and  C_19
REMARK    8  A    between atoms: C_12  and  C_20
REMARK    9  A    between atoms: C_15  and  C_23
REMARK   10  A    between atoms: C_16  and  C_24
REMARK   11  A    between atoms: C_25  and  C_26
REMARK   12  A    between atoms: C_27  and  C_28
REMARK                            x       y       z     vdW  Elec       q    Type
REMARK                         _______ _______ _______ _____ _____    ______ ____
ROOT
ATOM      8  C   UNL     1      -4.464   2.928  25.295  0.00  0.00    +0.000 C 
ATOM      9  C   UNL     1      -4.176   3.547  23.907  0.00  0.00    +0.029 C 
ATOM     10  C   UNL     1      -3.150   2.583  26.012  0.00  0.00    +0.012 C 
ATOM     11  C   UNL     1      -2.207   3.794  26.175  0.00  0.00    +0.024 C 
ATOM     14  C   UNL     1      -3.067   4.568  23.946  0.00  0.00    -0.023 C 
ATOM     15  C   UNL     1      -2.186   4.702  24.955  0.00  0.00    -0.073 C 
ATOM     23  C   UNL     1      -1.170   5.812  24.932  0.00  0.00    +0.039 C 
ENDROOT
BRANCH   8  12
ATOM     12  C   UNL     1      -5.336   3.856  26.152  0.00  0.00    -0.013 C 
ATOM     19  C   UNL     1      -5.965   4.943  25.285  0.00  0.00    +0.007 C 
ATOM     20  C   UNL     1      -6.411   3.054  26.878  0.00  0.00    +0.007 C 
ENDBRANCH   8  12
BRANCH   9  13
ATOM     13  C   UNL     1      -3.837   2.474  22.868  0.00  0.00    +0.092 C 
BRANCH  13   3
ATOM      3  N   UNL     1      -3.503   1.210  23.520  0.00  0.00    -0.299 NA
ATOM      4  N   UNL     1      -3.764  -1.646  23.887  0.00  0.00    -0.298 NA
ATOM     17  C   UNL     1      -4.686   0.630  24.169  0.00  0.00    +0.100 C 
ATOM     18  C   UNL     1      -2.929   0.262  22.558  0.00  0.00    +0.100 C 
ATOM     21  C   UNL     1      -4.338  -0.698  24.850  0.00  0.00    +0.100 C 
ATOM     22  C   UNL     1      -2.581  -1.065  23.241  0.00  0.00    +0.100 C 
BRANCH   4  25
ATOM     25  C   UNL     1      -3.432  -2.911  24.539  0.00  0.00    +0.112 C 
BRANCH  25  26
ATOM     26  C   UNL     1      -1.940  -3.189  24.444  0.00  0.00    +0.171 C 
BRANCH  26   2
ATOM      2  O   UNL     1      -1.282  -2.507  25.504  0.00  0.00    -0.394 OA
ATOM     33  H   UNL     1      -1.973  -2.180  26.105  0.00  0.00    +0.209 HD
ENDBRANCH  26   2
ENDBRANCH  25  26
ENDBRANCH   4  25
ENDBRANCH  13   3
ENDBRANCH   9  13
BRANCH  11  16
ATOM     16  C   UNL     1      -0.813   3.281  26.560  0.00  0.00    +0.105 C 
BRANCH  16  24
ATOM      1  O   UNL     1       0.505   2.127  24.860  0.00  0.00    -0.420 OA
ATOM      5  N   UNL     1      -0.960   0.817  25.930  0.00  0.00    -0.112 NA
ATOM      6  N   UNL     1      -0.288   0.039  25.004  0.00  0.00    -0.107 NA
ATOM     24  C   UNL     1      -0.464   2.027  25.811  0.00  0.00    +0.218 A 
ATOM     27  C   UNL     1       0.556   0.846  24.404  0.00  0.00    +0.248 A 
BRANCH  27  28
ATOM      7  N   UNL     1       3.361   0.087  21.330  0.00  0.00    -0.263 NA
ATOM     28  C   UNL     1       1.507   0.589  23.361  0.00  0.00    +0.041 A 
ATOM     29  C   UNL     1       2.778   1.150  23.422  0.00  0.00    +0.033 A 
ATOM     30  C   UNL     1       1.162  -0.221  22.286  0.00  0.00    +0.033 A 
ATOM     31  C   UNL     1       3.660   0.871  22.390  0.00  0.00    +0.111 A 
ATOM     32  C   UNL     1       2.116  -0.439  21.305  0.00  0.00    +0.111 A 
ENDBRANCH  27  28
ENDBRANCH  16  24
ENDBRANCH  11  16
TORSDOF 9
ENDMDL
MODEL 8
REMARK VINA RESULT:       3.4      1.472      1.899
REMARK  Name = 45783914
REMARK  12 active torsions:
REMARK  status: ('A' for Active; 'I' for Inactive)
REMARK    1  A    between atoms: O_2  and  C_26
REMARK    2  A    between atoms: N_3  and  C_13
REMARK    3  A    between atoms: N_4  and  C_25
REMARK    4  A    between atoms: C_8  and  C_12
REMARK    5  A    between atoms: C_9  and  C_13
REMARK    6  A    between atoms: C_11  and  C_16
REMARK    7  A    between atoms: C_12  and  C_19
REMARK    8  A    between atoms: C_12  and  C_20
REMARK    9  A    between atoms: C_15  and  C_23
REMARK   10  A    between atoms: C_16  and  C_24
REMARK   11  A    between atoms: C_25  and  C_26
REMARK   12  A    between atoms: C_27  and  C_28
REMARK                            x       y       z     vdW  Elec       q    Type
REMARK                         _______ _______ _______ _____ _____    ______ ____
ROOT
ATOM      8  C   UNL     1      -0.791   3.521  24.526  0.00  0.00    +0.000 C 
ATOM      9  C   UNL     1      -0.993   3.141  26.011  0.00  0.00    +0.029 C 
ATOM     10  C   UNL     1      -2.114   3.402  23.755  0.00  0.00    +0.012 C 
ATOM     11  C   UNL     1      -3.249   4.258  24.354  0.00  0.00    +0.024 C 
ATOM     14  C   UNL     1      -2.246   3.742  26.597  0.00  0.00    -0.023 C 
ATOM     15  C   UNL     1      -3.258   4.257  25.875  0.00  0.00    -0.073 C 
ATOM     23  C   UNL     1      -4.425   4.911  26.565  0.00  0.00    +0.039 C 
ENDROOT
BRANCH   8  12
ATOM     12  C   UNL     1      -0.192   4.927  24.385  0.00  0.00    -0.013 C 
ATOM     19  C   UNL     1       0.202   5.194  22.935  0.00  0.00    +0.007 C 
ATOM     20  C   UNL     1      -1.180   5.978  24.879  0.00  0.00    +0.007 C 
ENDBRANCH   8  12
BRANCH   9  13
ATOM     13  C   UNL     1      -1.024   1.622  26.207  0.00  0.00    +0.092 C 
BRANCH  13   3
ATOM      3  N   UNL     1      -0.031   0.971  25.355  0.00  0.00    -0.299 NA
ATOM      4  N   UNL     1       1.184   0.392  22.796  0.00  0.00    -0.298 NA
ATOM     17  C   UNL     1      -0.680   0.076  24.389  0.00  0.00    +0.100 C 
ATOM     18  C   UNL     1       0.794   1.967  24.659  0.00  0.00    +0.100 C 
ATOM     21  C   UNL     1       0.360  -0.605  23.492  0.00  0.00    +0.100 C 
ATOM     22  C   UNL     1       1.833   1.284  23.764  0.00  0.00    +0.100 C 
BRANCH   4  25
ATOM     25  C   UNL     1       2.176  -0.260  21.943  0.00  0.00    +0.112 C 
BRANCH  25  26
ATOM     26  C   UNL     1       1.522  -1.326  21.078  0.00  0.00    +0.171 C 
BRANCH  26   2
ATOM      2  O   UNL     1       0.754  -0.685  20.067  0.00  0.00    -0.394 OA
ATOM     33  H   UNL     1       0.867  -1.203  19.252  0.00  0.00    +0.209 HD
ENDBRANCH  26   2
ENDBRANCH  25  26
ENDBRANCH   4  25
ENDBRANCH  13   3
ENDBRANCH   9  13
BRANCH  11  16
ATOM     16  C   UNL     1      -4.582   3.797  23.750  0.00  0.00    +0.105 C 
BRANCH  16  24
ATOM      1  O   UNL     1      -4.176   1.429  24.185  0.00  0.00    -0.420 OA
ATOM      5  N   UNL     1      -6.127   2.185  24.978  0.00  0.00    -0.112 NA
ATOM      6  N   UNL     1      -6.029   0.842  25.293  0.00  0.00    -0.107 NA
ATOM     24  C   UNL     1      -5.023   2.484  24.332  0.00  0.00    +0.218 A 
ATOM     27  C   UNL     1      -4.875   0.443  24.810  0.00  0.00    +0.248 A 
BRANCH  27  28
ATOM      7  N   UNL     1      -3.029  -3.361  24.899  0.00  0.00    -0.263 NA
ATOM     28  C   UNL     1      -4.250  -0.847  24.841  0.00  0.00    +0.041 A 
ATOM     29  C   UNL     1      -4.420  -1.730  23.780  0.00  0.00    +0.033 A 
ATOM     30  C   UNL     1      -3.471  -1.219  25.930  0.00  0.00    +0.033 A 
ATOM     31  C   UNL     1      -3.794  -2.964  23.857  0.00  0.00    +0.111 A 
ATOM     32  C   UNL     1      -2.888  -2.477  25.911  0.00  0.00    +0.111 A 
ENDBRANCH  27  28
ENDBRANCH  16  24
ENDBRANCH  11  16
TORSDOF 9
ENDMDL
MODEL 9
REMARK VINA RESULT:       3.6      1.857      5.459
REMARK  Name = 45783914
REMARK  12 active torsions:
REMARK  status: ('A' for Active; 'I' for Inactive)
REMARK    1  A    between atoms: O_2  and  C_26
REMARK    2  A    between atoms: N_3  and  C_13
REMARK    3  A    between atoms: N_4  and  C_25
REMARK    4  A    between atoms: C_8  and  C_12
REMARK    5  A    between atoms: C_9  and  C_13
REMARK    6  A    between atoms: C_11  and  C_16
REMARK    7  A    between atoms: C_12  and  C_19
REMARK    8  A    between atoms: C_12  and  C_20
REMARK    9  A    between atoms: C_15  and  C_23
REMARK   10  A    between atoms: C_16  and  C_24
REMARK   11  A    between atoms: C_25  and  C_26
REMARK   12  A    between atoms: C_27  and  C_28
REMARK                            x       y       z     vdW  Elec       q    Type
REMARK                         _______ _______ _______ _____ _____    ______ ____
ROOT
ATOM      8  C   UNL     1      -5.361   3.594  25.711  0.00  0.00    +0.000 C 
ATOM      9  C   UNL     1      -5.446   2.305  24.862  0.00  0.00    +0.029 C 
ATOM     10  C   UNL     1      -3.914   3.852  26.154  0.00  0.00    +0.012 C 
ATOM     11  C   UNL     1      -2.922   3.947  24.975  0.00  0.00    +0.024 C 
ATOM     14  C   UNL     1      -4.336   2.205  23.847  0.00  0.00    -0.023 C 
ATOM     15  C   UNL     1      -3.207   2.938  23.873  0.00  0.00    -0.073 C 
ATOM     23  C   UNL     1      -2.201   2.820  22.760  0.00  0.00    +0.039 C 
ENDROOT
BRANCH   8  12
ATOM     12  C   UNL     1      -5.933   4.802  24.955  0.00  0.00    -0.013 C 
ATOM     19  C   UNL     1      -6.609   5.765  25.927  0.00  0.00    +0.007 C 
ATOM     20  C   UNL     1      -4.833   5.507  24.170  0.00  0.00    +0.007 C 
ENDBRANCH   8  12
BRANCH   9  13
ATOM     13  C   UNL     1      -5.443   1.049  25.738  0.00  0.00    +0.092 C 
BRANCH  13   3
ATOM      3  N   UNL     1      -4.377   0.136  25.329  0.00  0.00    -0.299 NA
ATOM      4  N   UNL     1      -3.287  -2.497  24.842  0.00  0.00    -0.298 NA
ATOM     17  C   UNL     1      -3.992  -0.746  26.437  0.00  0.00    +0.100 C 
ATOM     18  C   UNL     1      -4.787  -0.655  24.162  0.00  0.00    +0.100 C 
ATOM     21  C   UNL     1      -2.877  -1.706  26.008  0.00  0.00    +0.100 C 
ATOM     22  C   UNL     1      -3.670  -1.614  23.734  0.00  0.00    +0.100 C 
BRANCH   4  25
ATOM     25  C   UNL     1      -2.222  -3.411  24.434  0.00  0.00    +0.112 C 
BRANCH  25  26
ATOM     26  C   UNL     1      -0.966  -2.639  24.060  0.00  0.00    +0.171 C 
BRANCH  26   2
ATOM      2  O   UNL     1      -0.152  -2.506  25.218  0.00  0.00    -0.394 OA
ATOM     33  H   UNL     1       0.755  -2.335  24.910  0.00  0.00    +0.209 HD
ENDBRANCH  26   2
ENDBRANCH  25  26
ENDBRANCH   4  25
ENDBRANCH  13   3
ENDBRANCH   9  13
BRANCH  11  16
ATOM     16  C   UNL     1      -1.494   3.840  25.526  0.00  0.00    +0.105 C 
BRANCH  16  24
ATOM      1  O   UNL     1       0.110   2.480  24.285  0.00  0.00    -0.420 OA
ATOM      5  N   UNL     1      -1.168   1.320  25.709  0.00  0.00    -0.112 NA
ATOM      6  N   UNL     1      -0.314   0.432  25.080  0.00  0.00    -0.107 NA
ATOM     24  C   UNL     1      -0.885   2.503  25.214  0.00  0.00    +0.218 A 
ATOM     27  C   UNL     1       0.413   1.154  24.259  0.00  0.00    +0.248 A 
BRANCH  27  28
ATOM      7  N   UNL     1       3.492   0.015  21.591  0.00  0.00    -0.263 NA
ATOM     28  C   UNL     1       1.457   0.767  23.355  0.00  0.00    +0.041 A 
ATOM     29  C   UNL     1       1.195  -0.138  22.332  0.00  0.00    +0.033 A 
ATOM     30  C   UNL     1       2.734   1.296  23.497  0.00  0.00    +0.033 A 
ATOM     31  C   UNL     1       2.237  -0.479  21.485  0.00  0.00    +0.111 A 
ATOM     32  C   UNL     1       3.708   0.891  22.597  0.00  0.00    +0.111 A 
ENDBRANCH  27  28
ENDBRANCH  16  24
ENDBRANCH  11  16
TORSDOF 9
ENDMDL
