MODEL 1
REMARK VINA RESULT:      -3.9      0.000      0.000
REMARK  Name = 75536781
REMARK  8 active torsions:
REMARK  status: ('A' for Active; 'I' for Inactive)
REMARK    1  A    between atoms: O_2  and  C_9
REMARK    2  A    between atoms: N_4  and  C_8
REMARK    3  A    between atoms: N_4  and  C_13
REMARK    4  A    between atoms: N_5  and  C_12
REMARK    5  A    between atoms: N_6  and  C_21
REMARK    6  A    between atoms: C_10  and  C_12
REMARK    7  A    between atoms: C_13  and  C_14
REMARK    8  A    between atoms: C_18  and  C_24
REMARK                            x       y       z     vdW  Elec       q    Type
REMARK                         _______ _______ _______ _____ _____    ______ ____
ROOT
ATOM      1  O   UNL     1      -3.363   4.542  24.116  0.00  0.00    -0.371 OA
ATOM      8  C   UNL     1      -4.842   2.702  24.285  0.00  0.00    +0.111 C 
ATOM      9  C   UNL     1      -4.790   3.385  25.640  0.00  0.00    +0.164 C 
ATOM     10  C   UNL     1      -3.665   4.411  25.517  0.00  0.00    +0.165 C 
ATOM     11  C   UNL     1      -4.326   3.796  23.364  0.00  0.00    +0.181 C 
ENDROOT
BRANCH   9   2
ATOM      2  O   UNL     1      -6.031   4.071  25.828  0.00  0.00    -0.388 OA
ATOM     29  H   UNL     1      -6.655   3.726  25.167  0.00  0.00    +0.210 HD
ENDBRANCH   9   2
BRANCH   8   4
ATOM      4  N   UNL     1      -3.967   1.532  24.237  0.00  0.00    -0.305 NA
ATOM     28  H   UNL     1      -3.835   1.249  23.266  0.00  0.00    +0.123 HD
BRANCH   4  13
ATOM     13  C   UNL     1      -4.545   0.415  24.973  0.00  0.00    +0.116 C 
BRANCH  13  14
ATOM     14  C   UNL     1      -3.823  -0.877  24.691  0.00  0.00    -0.032 A 
ATOM     16  C   UNL     1      -2.503  -1.044  25.107  0.00  0.00    +0.023 A 
ATOM     17  C   UNL     1      -4.477  -1.906  24.013  0.00  0.00    +0.005 A 
ATOM     18  C   UNL     1      -1.836  -2.241  24.846  0.00  0.00    +0.052 A 
ATOM     19  C   UNL     1      -3.810  -3.103  23.752  0.00  0.00    +0.002 A 
ATOM     20  C   UNL     1      -2.489  -3.270  24.169  0.00  0.00    +0.019 A 
BRANCH  18  24
ATOM      7  N   UNL     1       0.616  -2.556  25.621  0.00  0.00    -0.191 NA
ATOM     24  C   UNL     1      -0.483  -2.414  25.273  0.00  0.00    +0.099 C 
ENDBRANCH  18  24
ENDBRANCH  13  14
ENDBRANCH   4  13
ENDBRANCH   8   4
BRANCH  10  12
ATOM     12  C   UNL     1      -2.392   4.007  26.245  0.00  0.00    +0.140 C 
BRANCH  12   5
ATOM      3  O   UNL     1      -0.165   3.706  24.470  0.00  0.00    -0.253 OA
ATOM      5  N   UNL     1      -1.866   2.776  25.731  0.00  0.00    -0.297 N 
ATOM      6  N   UNL     1      -0.481   1.381  24.529  0.00  0.00    -0.269 N 
ATOM     15  C   UNL     1      -0.765   2.708  24.861  0.00  0.00    +0.304 C 
ATOM     30  H   UNL     1      -2.319   1.909  26.004  0.00  0.00    +0.150 HD
ATOM     31  H   UNL     1      -1.080   0.669  24.941  0.00  0.00    +0.156 HD
BRANCH   6  21
ATOM     21  C   UNL     1       0.545   0.898  23.684  0.00  0.00    +0.035 A 
ATOM     22  C   UNL     1       1.840   1.402  23.800  0.00  0.00    +0.023 A 
ATOM     23  C   UNL     1       0.260  -0.084  22.734  0.00  0.00    +0.023 A 
ATOM     25  C   UNL     1       2.851   0.925  22.965  0.00  0.00    +0.002 A 
ATOM     26  C   UNL     1       1.271  -0.560  21.899  0.00  0.00    +0.002 A 
ATOM     27  C   UNL     1       2.567  -0.056  22.015  0.00  0.00    +0.000 A 
ENDBRANCH   6  21
ENDBRANCH  12   5
ENDBRANCH  10  12
TORSDOF 8
ENDMDL
MODEL 2
REMARK VINA RESULT:      -3.7      1.734      2.550
REMARK  Name = 75536781
REMARK  8 active torsions:
REMARK  status: ('A' for Active; 'I' for Inactive)
REMARK    1  A    between atoms: O_2  and  C_9
REMARK    2  A    between atoms: N_4  and  C_8
REMARK    3  A    between atoms: N_4  and  C_13
REMARK    4  A    between atoms: N_5  and  C_12
REMARK    5  A    between atoms: N_6  and  C_21
REMARK    6  A    between atoms: C_10  and  C_12
REMARK    7  A    between atoms: C_13  and  C_14
REMARK    8  A    between atoms: C_18  and  C_24
REMARK                            x       y       z     vdW  Elec       q    Type
REMARK                         _______ _______ _______ _____ _____    ______ ____
ROOT
ATOM      1  O   UNL     1      -3.112   3.269  22.784  0.00  0.00    -0.371 OA
ATOM      8  C   UNL     1      -4.024   3.027  24.955  0.00  0.00    +0.111 C 
ATOM      9  C   UNL     1      -2.582   2.555  24.999  0.00  0.00    +0.164 C 
ATOM     10  C   UNL     1      -2.134   2.531  23.539  0.00  0.00    +0.165 C 
ATOM     11  C   UNL     1      -4.035   3.876  23.694  0.00  0.00    +0.181 C 
ENDROOT
BRANCH   9   2
ATOM      2  O   UNL     1      -1.823   3.541  25.705  0.00  0.00    -0.388 OA
ATOM     29  H   UNL     1      -2.228   3.643  26.583  0.00  0.00    +0.210 HD
ENDBRANCH   9   2
BRANCH   8   4
ATOM      4  N   UNL     1      -4.954   1.907  24.832  0.00  0.00    -0.305 NA
ATOM     28  H   UNL     1      -5.908   2.244  24.964  0.00  0.00    +0.123 HD
BRANCH   4  13
ATOM     13  C   UNL     1      -4.679   0.884  25.833  0.00  0.00    +0.116 C 
BRANCH  13  14
ATOM     14  C   UNL     1      -4.058  -0.345  25.224  0.00  0.00    -0.032 A 
ATOM     16  C   UNL     1      -2.758  -0.715  25.569  0.00  0.00    +0.023 A 
ATOM     17  C   UNL     1      -4.784  -1.114  24.314  0.00  0.00    +0.005 A 
ATOM     18  C   UNL     1      -2.184  -1.854  25.005  0.00  0.00    +0.052 A 
ATOM     19  C   UNL     1      -4.210  -2.253  23.750  0.00  0.00    +0.002 A 
ATOM     20  C   UNL     1      -2.910  -2.623  24.095  0.00  0.00    +0.019 A 
BRANCH  18  24
ATOM      7  N   UNL     1       0.228  -2.544  25.647  0.00  0.00    -0.191 NA
ATOM     24  C   UNL     1      -0.853  -2.235  25.358  0.00  0.00    +0.099 C 
ENDBRANCH  18  24
ENDBRANCH  13  14
ENDBRANCH   4  13
ENDBRANCH   8   4
BRANCH  10  12
ATOM     12  C   UNL     1      -2.036   1.129  22.956  0.00  0.00    +0.140 C 
BRANCH  12   5
ATOM      3  O   UNL     1       0.330   0.605  24.482  0.00  0.00    -0.253 OA
ATOM      5  N   UNL     1      -0.723   0.869  22.440  0.00  0.00    -0.297 N 
ATOM      6  N   UNL     1       1.532   0.401  22.477  0.00  0.00    -0.269 N 
ATOM     15  C   UNL     1       0.393   0.620  23.255  0.00  0.00    +0.304 C 
ATOM     30  H   UNL     1      -0.593   0.876  21.433  0.00  0.00    +0.150 HD
ATOM     31  H   UNL     1       1.411   0.449  21.468  0.00  0.00    +0.156 HD
BRANCH   6  21
ATOM     21  C   UNL     1       2.846   0.119  22.920  0.00  0.00    +0.035 A 
ATOM     22  C   UNL     1       3.159  -1.147  23.412  0.00  0.00    +0.023 A 
ATOM     23  C   UNL     1       3.827   1.109  22.863  0.00  0.00    +0.023 A 
ATOM     25  C   UNL     1       4.455  -1.425  23.849  0.00  0.00    +0.002 A 
ATOM     26  C   UNL     1       5.123   0.832  23.301  0.00  0.00    +0.002 A 
ATOM     27  C   UNL     1       5.436  -0.435  23.793  0.00  0.00    +0.000 A 
ENDBRANCH   6  21
ENDBRANCH  12   5
ENDBRANCH  10  12
TORSDOF 8
ENDMDL
MODEL 3
REMARK VINA RESULT:      -3.0      1.734      4.657
REMARK  Name = 75536781
REMARK  8 active torsions:
REMARK  status: ('A' for Active; 'I' for Inactive)
REMARK    1  A    between atoms: O_2  and  C_9
REMARK    2  A    between atoms: N_4  and  C_8
REMARK    3  A    between atoms: N_4  and  C_13
REMARK    4  A    between atoms: N_5  and  C_12
REMARK    5  A    between atoms: N_6  and  C_21
REMARK    6  A    between atoms: C_10  and  C_12
REMARK    7  A    between atoms: C_13  and  C_14
REMARK    8  A    between atoms: C_18  and  C_24
REMARK                            x       y       z     vdW  Elec       q    Type
REMARK                         _______ _______ _______ _____ _____    ______ ____
ROOT
ATOM      1  O   UNL     1      -4.050   4.427  26.094  0.00  0.00    -0.371 OA
ATOM      8  C   UNL     1      -1.730   3.991  25.924  0.00  0.00    +0.111 C 
ATOM      9  C   UNL     1      -2.136   4.830  24.726  0.00  0.00    +0.164 C 
ATOM     10  C   UNL     1      -3.661   4.883  24.785  0.00  0.00    +0.165 C 
ATOM     11  C   UNL     1      -2.873   4.255  26.891  0.00  0.00    +0.181 C 
ENDROOT
BRANCH   9   2
ATOM      2  O   UNL     1      -1.614   6.147  24.920  0.00  0.00    -0.388 OA
ATOM     29  H   UNL     1      -2.252   6.771  24.533  0.00  0.00    +0.210 HD
ENDBRANCH   9   2
BRANCH   8   4
ATOM      4  N   UNL     1      -1.654   2.571  25.588  0.00  0.00    -0.305 NA
ATOM     28  H   UNL     1      -2.342   2.057  26.139  0.00  0.00    +0.123 HD
BRANCH   4  13
ATOM     13  C   UNL     1      -0.331   2.033  25.876  0.00  0.00    +0.116 C 
BRANCH  13  14
ATOM     14  C   UNL     1       0.135   1.083  24.804  0.00  0.00    -0.032 A 
ATOM     16  C   UNL     1       1.362   1.289  24.174  0.00  0.00    +0.023 A 
ATOM     17  C   UNL     1      -0.662  -0.003  24.442  0.00  0.00    +0.005 A 
ATOM     18  C   UNL     1       1.793   0.409  23.182  0.00  0.00    +0.052 A 
ATOM     19  C   UNL     1      -0.231  -0.883  23.450  0.00  0.00    +0.002 A 
ATOM     20  C   UNL     1       0.996  -0.678  22.820  0.00  0.00    +0.019 A 
BRANCH  18  24
ATOM      7  N   UNL     1       4.072   0.786  22.012  0.00  0.00    -0.191 NA
ATOM     24  C   UNL     1       3.050   0.617  22.536  0.00  0.00    +0.099 C 
ENDBRANCH  18  24
ENDBRANCH  13  14
ENDBRANCH   4  13
ENDBRANCH   8   4
BRANCH  10  12
ATOM     12  C   UNL     1      -4.341   3.999  23.750  0.00  0.00    +0.140 C 
BRANCH  12   5
ATOM      3  O   UNL     1      -2.984   1.513  23.330  0.00  0.00    -0.253 OA
ATOM      5  N   UNL     1      -4.696   2.725  24.305  0.00  0.00    -0.297 N 
ATOM      6  N   UNL     1      -4.554   0.464  24.724  0.00  0.00    -0.269 N 
ATOM     15  C   UNL     1      -3.978   1.545  24.052  0.00  0.00    +0.304 C 
ATOM     30  H   UNL     1      -5.514   2.673  24.904  0.00  0.00    +0.150 HD
ATOM     31  H   UNL     1      -5.380   0.663  25.283  0.00  0.00    +0.156 HD
BRANCH   6  21
ATOM     21  C   UNL     1      -4.130  -0.885  24.725  0.00  0.00    +0.035 A 
ATOM     22  C   UNL     1      -3.448  -1.401  25.826  0.00  0.00    +0.023 A 
ATOM     23  C   UNL     1      -4.394  -1.699  23.623  0.00  0.00    +0.023 A 
ATOM     25  C   UNL     1      -3.028  -2.732  25.826  0.00  0.00    +0.002 A 
ATOM     26  C   UNL     1      -3.974  -3.030  23.623  0.00  0.00    +0.002 A 
ATOM     27  C   UNL     1      -3.292  -3.546  24.724  0.00  0.00    +0.000 A 
ENDBRANCH   6  21
ENDBRANCH  12   5
ENDBRANCH  10  12
TORSDOF 8
ENDMDL
MODEL 4
REMARK VINA RESULT:      -2.4      2.499      4.749
REMARK  Name = 75536781
REMARK  8 active torsions:
REMARK  status: ('A' for Active; 'I' for Inactive)
REMARK    1  A    between atoms: O_2  and  C_9
REMARK    2  A    between atoms: N_4  and  C_8
REMARK    3  A    between atoms: N_4  and  C_13
REMARK    4  A    between atoms: N_5  and  C_12
REMARK    5  A    between atoms: N_6  and  C_21
REMARK    6  A    between atoms: C_10  and  C_12
REMARK    7  A    between atoms: C_13  and  C_14
REMARK    8  A    between atoms: C_18  and  C_24
REMARK                            x       y       z     vdW  Elec       q    Type
REMARK                         _______ _______ _______ _____ _____    ______ ____
ROOT
ATOM      1  O   UNL     1      -2.696  -0.345  25.551  0.00  0.00    -0.371 OA
ATOM      8  C   UNL     1      -4.877  -0.102  24.664  0.00  0.00    +0.111 C 
ATOM      9  C   UNL     1      -4.060  -0.916  23.677  0.00  0.00    +0.164 C 
ATOM     10  C   UNL     1      -2.628  -0.843  24.202  0.00  0.00    +0.165 C 
ATOM     11  C   UNL     1      -4.070  -0.262  25.943  0.00  0.00    +0.181 C 
ENDROOT
BRANCH   9   2
ATOM      2  O   UNL     1      -4.516  -2.269  23.747  0.00  0.00    -0.388 OA
ATOM     29  H   UNL     1      -5.453  -2.273  23.487  0.00  0.00    +0.210 HD
ENDBRANCH   9   2
BRANCH   8   4
ATOM      4  N   UNL     1      -4.952   1.304  24.272  0.00  0.00    -0.305 NA
ATOM     28  H   UNL     1      -4.201   1.511  23.612  0.00  0.00    +0.123 HD
BRANCH   4  13
ATOM     13  C   UNL     1      -4.809   2.179  25.429  0.00  0.00    +0.116 C 
BRANCH  13  14
ATOM     14  C   UNL     1      -3.571   3.033  25.337  0.00  0.00    -0.032 A 
ATOM     16  C   UNL     1      -2.383   2.607  25.931  0.00  0.00    +0.023 A 
ATOM     17  C   UNL     1      -3.614   4.250  24.656  0.00  0.00    +0.005 A 
ATOM     18  C   UNL     1      -1.238   3.398  25.844  0.00  0.00    +0.052 A 
ATOM     19  C   UNL     1      -2.468   5.041  24.569  0.00  0.00    +0.002 A 
ATOM     20  C   UNL     1      -1.280   4.615  25.163  0.00  0.00    +0.019 A 
BRANCH  18  24
ATOM      7  N   UNL     1       0.971   2.609  26.943  0.00  0.00    -0.191 NA
ATOM     24  C   UNL     1      -0.020   2.963  26.450  0.00  0.00    +0.099 C 
ENDBRANCH  18  24
ENDBRANCH  13  14
ENDBRANCH   4  13
ENDBRANCH   8   4
BRANCH  10  12
ATOM     12  C   UNL     1      -1.730   0.083  23.395  0.00  0.00    +0.140 C 
BRANCH  12   5
ATOM      3  O   UNL     1       0.828   1.239  23.961  0.00  0.00    -0.253 OA
ATOM      5  N   UNL     1      -0.448  -0.513  23.154  0.00  0.00    -0.297 N 
ATOM      6  N   UNL     1       1.848  -0.698  23.116  0.00  0.00    -0.269 N 
ATOM     15  C   UNL     1       0.769   0.119  23.460  0.00  0.00    +0.304 C 
ATOM     30  H   UNL     1      -0.419  -1.436  22.731  0.00  0.00    +0.150 HD
ATOM     31  H   UNL     1       1.624  -1.602  22.708  0.00  0.00    +0.156 HD
BRANCH   6  21
ATOM     21  C   UNL     1       3.228  -0.424  23.266  0.00  0.00    +0.035 A 
ATOM     22  C   UNL     1       4.068  -1.371  23.852  0.00  0.00    +0.023 A 
ATOM     23  C   UNL     1       3.747   0.794  22.828  0.00  0.00    +0.023 A 
ATOM     25  C   UNL     1       5.428  -1.100  24.000  0.00  0.00    +0.002 A 
ATOM     26  C   UNL     1       5.108   1.066  22.976  0.00  0.00    +0.002 A 
ATOM     27  C   UNL     1       5.948   0.119  23.562  0.00  0.00    +0.000 A 
ENDBRANCH   6  21
ENDBRANCH  12   5
ENDBRANCH  10  12
TORSDOF 8
ENDMDL
MODEL 5
REMARK VINA RESULT:      -1.4      2.526      5.099
REMARK  Name = 75536781
REMARK  8 active torsions:
REMARK  status: ('A' for Active; 'I' for Inactive)
REMARK    1  A    between atoms: O_2  and  C_9
REMARK    2  A    between atoms: N_4  and  C_8
REMARK    3  A    between atoms: N_4  and  C_13
REMARK    4  A    between atoms: N_5  and  C_12
REMARK    5  A    between atoms: N_6  and  C_21
REMARK    6  A    between atoms: C_10  and  C_12
REMARK    7  A    between atoms: C_13  and  C_14
REMARK    8  A    between atoms: C_18  and  C_24
REMARK                            x       y       z     vdW  Elec       q    Type
REMARK                         _______ _______ _______ _____ _____    ______ ____
ROOT
ATOM      1  O   UNL     1      -4.274  -0.171  25.667  0.00  0.00    -0.371 OA
ATOM      8  C   UNL     1      -3.659  -0.695  23.442  0.00  0.00    +0.111 C 
ATOM      9  C   UNL     1      -3.359  -1.907  24.307  0.00  0.00    +0.164 C 
ATOM     10  C   UNL     1      -3.569  -1.424  25.741  0.00  0.00    +0.165 C 
ATOM     11  C   UNL     1      -4.650   0.067  24.306  0.00  0.00    +0.181 C 
ENDROOT
BRANCH   9   2
ATOM      2  O   UNL     1      -4.332  -2.909  24.004  0.00  0.00    -0.388 OA
ATOM     29  H   UNL     1      -4.769  -2.647  23.175  0.00  0.00    +0.210 HD
ENDBRANCH   9   2
BRANCH   8   4
ATOM      4  N   UNL     1      -2.460   0.105  23.202  0.00  0.00    -0.305 NA
ATOM     28  H   UNL     1      -1.960   0.236  24.082  0.00  0.00    +0.123 HD
BRANCH   4  13
ATOM     13  C   UNL     1      -2.803   1.415  22.662  0.00  0.00    +0.116 C 
BRANCH  13  14
ATOM     14  C   UNL     1      -2.845   2.471  23.735  0.00  0.00    -0.032 A 
ATOM     16  C   UNL     1      -4.069   2.984  24.164  0.00  0.00    +0.023 A 
ATOM     17  C   UNL     1      -1.657   2.935  24.302  0.00  0.00    +0.005 A 
ATOM     18  C   UNL     1      -4.105   3.960  25.159  0.00  0.00    +0.052 A 
ATOM     19  C   UNL     1      -1.694   3.912  25.296  0.00  0.00    +0.002 A 
ATOM     20  C   UNL     1      -2.918   4.424  25.725  0.00  0.00    +0.019 A 
BRANCH  18  24
ATOM      7  N   UNL     1      -6.378   4.912  25.959  0.00  0.00    -0.191 NA
ATOM     24  C   UNL     1      -5.358   4.486  25.601  0.00  0.00    +0.099 C 
ENDBRANCH  18  24
ENDBRANCH  13  14
ENDBRANCH   4  13
ENDBRANCH   8   4
BRANCH  10  12
ATOM     12  C   UNL     1      -2.272  -1.199  26.504  0.00  0.00    +0.140 C 
BRANCH  12   5
ATOM      3  O   UNL     1      -0.185  -1.897  24.671  0.00  0.00    -0.253 OA
ATOM      5  N   UNL     1      -1.407  -0.293  25.805  0.00  0.00    -0.297 N 
ATOM      6  N   UNL     1       0.278   0.387  24.388  0.00  0.00    -0.269 N 
ATOM     15  C   UNL     1      -0.402  -0.713  24.918  0.00  0.00    +0.304 C 
ATOM     30  H   UNL     1      -1.522   0.702  25.968  0.00  0.00    +0.150 HD
ATOM     31  H   UNL     1      -0.029   1.306  24.699  0.00  0.00    +0.156 HD
BRANCH   6  21
ATOM     21  C   UNL     1       1.349   0.384  23.465  0.00  0.00    +0.035 A 
ATOM     22  C   UNL     1       1.258  -0.365  22.292  0.00  0.00    +0.023 A 
ATOM     23  C   UNL     1       2.498   1.131  23.729  0.00  0.00    +0.023 A 
ATOM     25  C   UNL     1       2.315  -0.369  21.382  0.00  0.00    +0.002 A 
ATOM     26  C   UNL     1       3.556   1.127  22.819  0.00  0.00    +0.002 A 
ATOM     27  C   UNL     1       3.464   0.378  21.646  0.00  0.00    +0.000 A 
ENDBRANCH   6  21
ENDBRANCH  12   5
ENDBRANCH  10  12
TORSDOF 8
ENDMDL
MODEL 6
REMARK VINA RESULT:      -1.1      2.503      4.814
REMARK  Name = 75536781
REMARK  8 active torsions:
REMARK  status: ('A' for Active; 'I' for Inactive)
REMARK    1  A    between atoms: O_2  and  C_9
REMARK    2  A    between atoms: N_4  and  C_8
REMARK    3  A    between atoms: N_4  and  C_13
REMARK    4  A    between atoms: N_5  and  C_12
REMARK    5  A    between atoms: N_6  and  C_21
REMARK    6  A    between atoms: C_10  and  C_12
REMARK    7  A    between atoms: C_13  and  C_14
REMARK    8  A    between atoms: C_18  and  C_24
REMARK                            x       y       z     vdW  Elec       q    Type
REMARK                         _______ _______ _______ _____ _____    ______ ____
ROOT
ATOM      1  O   UNL     1      -3.664  -1.371  26.029  0.00  0.00    -0.371 OA
ATOM      8  C   UNL     1      -4.242  -0.524  23.896  0.00  0.00    +0.111 C 
ATOM      9  C   UNL     1      -4.201  -2.039  23.801  0.00  0.00    +0.164 C 
ATOM     10  C   UNL     1      -3.614  -2.498  25.134  0.00  0.00    +0.165 C 
ATOM     11  C   UNL     1      -4.384  -0.309  25.394  0.00  0.00    +0.181 C 
ENDROOT
BRANCH   9   2
ATOM      2  O   UNL     1      -5.550  -2.504  23.699  0.00  0.00    -0.388 OA
ATOM     29  H   UNL     1      -5.521  -3.388  23.295  0.00  0.00    +0.210 HD
ENDBRANCH   9   2
BRANCH   8   4
ATOM      4  N   UNL     1      -3.007   0.080  23.402  0.00  0.00    -0.305 NA
ATOM     28  H   UNL     1      -2.307   0.074  24.145  0.00  0.00    +0.123 HD
BRANCH   4  13
ATOM     13  C   UNL     1      -3.227   1.459  22.982  0.00  0.00    +0.116 C 
BRANCH  13  14
ATOM     14  C   UNL     1      -2.747   2.443  24.016  0.00  0.00    -0.032 A 
ATOM     16  C   UNL     1      -1.605   2.167  24.766  0.00  0.00    +0.023 A 
ATOM     17  C   UNL     1      -3.445   3.633  24.221  0.00  0.00    +0.005 A 
ATOM     18  C   UNL     1      -1.160   3.080  25.722  0.00  0.00    +0.052 A 
ATOM     19  C   UNL     1      -3.001   4.547  25.176  0.00  0.00    +0.002 A 
ATOM     20  C   UNL     1      -1.859   4.271  25.927  0.00  0.00    +0.019 A 
BRANCH  18  24
ATOM      7  N   UNL     1       0.963   2.570  27.115  0.00  0.00    -0.191 NA
ATOM     24  C   UNL     1       0.011   2.800  26.490  0.00  0.00    +0.099 C 
ENDBRANCH  18  24
ENDBRANCH  13  14
ENDBRANCH   4  13
ENDBRANCH   8   4
BRANCH  10  12
ATOM     12  C   UNL     1      -2.170  -2.965  25.034  0.00  0.00    +0.140 C 
BRANCH  12   5
ATOM      3  O   UNL     1       0.237  -1.463  25.426  0.00  0.00    -0.253 OA
ATOM      5  N   UNL     1      -1.450  -2.225  24.039  0.00  0.00    -0.297 N 
ATOM      6  N   UNL     1       0.204  -0.889  23.150  0.00  0.00    -0.269 N 
ATOM     15  C   UNL     1      -0.272  -1.510  24.308  0.00  0.00    +0.304 C 
ATOM     30  H   UNL     1      -1.818  -2.209  23.092  0.00  0.00    +0.150 HD
ATOM     31  H   UNL     1      -0.340  -1.030  22.302  0.00  0.00    +0.156 HD
BRANCH   6  21
ATOM     21  C   UNL     1       1.357  -0.084  23.007  0.00  0.00    +0.035 A 
ATOM     22  C   UNL     1       1.368   1.216  23.514  0.00  0.00    +0.023 A 
ATOM     23  C   UNL     1       2.484  -0.589  22.358  0.00  0.00    +0.023 A 
ATOM     25  C   UNL     1       2.506   2.010  23.372  0.00  0.00    +0.002 A 
ATOM     26  C   UNL     1       3.622   0.206  22.215  0.00  0.00    +0.002 A 
ATOM     27  C   UNL     1       3.633   1.505  22.723  0.00  0.00    +0.000 A 
ENDBRANCH   6  21
ENDBRANCH  12   5
ENDBRANCH  10  12
TORSDOF 8
ENDMDL
MODEL 7
REMARK VINA RESULT:      -0.5      2.627      6.926
REMARK  Name = 75536781
REMARK  8 active torsions:
REMARK  status: ('A' for Active; 'I' for Inactive)
REMARK    1  A    between atoms: O_2  and  C_9
REMARK    2  A    between atoms: N_4  and  C_8
REMARK    3  A    between atoms: N_4  and  C_13
REMARK    4  A    between atoms: N_5  and  C_12
REMARK    5  A    between atoms: N_6  and  C_21
REMARK    6  A    between atoms: C_10  and  C_12
REMARK    7  A    between atoms: C_13  and  C_14
REMARK    8  A    between atoms: C_18  and  C_24
REMARK                            x       y       z     vdW  Elec       q    Type
REMARK                         _______ _______ _______ _____ _____    ______ ____
ROOT
ATOM      1  O   UNL     1      -1.108  -2.222  23.141  0.00  0.00    -0.371 OA
ATOM      8  C   UNL     1      -0.176  -0.696  24.692  0.00  0.00    +0.111 C 
ATOM      9  C   UNL     1      -0.560  -1.955  25.449  0.00  0.00    +0.164 C 
ATOM     10  C   UNL     1      -1.345  -2.792  24.441  0.00  0.00    +0.165 C 
ATOM     11  C   UNL     1      -0.111  -1.201  23.260  0.00  0.00    +0.181 C 
ENDROOT
BRANCH   9   2
ATOM      2  O   UNL     1       0.647  -2.642  25.789  0.00  0.00    -0.388 OA
ATOM     29  H   UNL     1       1.367  -1.989  25.773  0.00  0.00    +0.210 HD
ENDBRANCH   9   2
BRANCH   8   4
ATOM      4  N   UNL     1      -1.192   0.345  24.828  0.00  0.00    -0.305 NA
ATOM     28  H   UNL     1      -1.216   0.906  23.975  0.00  0.00    +0.123 HD
BRANCH   4  13
ATOM     13  C   UNL     1      -0.898   1.223  25.954  0.00  0.00    +0.116 C 
BRANCH  13  14
ATOM     14  C   UNL     1      -1.065   2.675  25.592  0.00  0.00    -0.032 A 
ATOM     16  C   UNL     1      -0.360   3.212  24.515  0.00  0.00    +0.023 A 
ATOM     17  C   UNL     1      -1.926   3.483  26.335  0.00  0.00    +0.005 A 
ATOM     18  C   UNL     1      -0.517   4.557  24.181  0.00  0.00    +0.052 A 
ATOM     19  C   UNL     1      -2.082   4.828  26.000  0.00  0.00    +0.002 A 
ATOM     20  C   UNL     1      -1.378   5.365  24.923  0.00  0.00    +0.019 A 
BRANCH  18  24
ATOM      7  N   UNL     1       0.788   5.557  22.179  0.00  0.00    -0.191 NA
ATOM     24  C   UNL     1       0.203   5.108  23.077  0.00  0.00    +0.099 C 
ENDBRANCH  18  24
ENDBRANCH  13  14
ENDBRANCH   4  13
ENDBRANCH   8   4
BRANCH  10  12
ATOM     12  C   UNL     1      -2.845  -2.799  24.694  0.00  0.00    +0.140 C 
BRANCH  12   5
ATOM      3  O   UNL     1      -3.564  -0.452  26.169  0.00  0.00    -0.253 OA
ATOM      5  N   UNL     1      -3.467  -1.617  24.173  0.00  0.00    -0.297 N 
ATOM      6  N   UNL     1      -4.385   0.497  24.185  0.00  0.00    -0.269 N 
ATOM     15  C   UNL     1      -3.790  -0.501  24.962  0.00  0.00    +0.304 C 
ATOM     30  H   UNL     1      -3.694  -1.590  23.184  0.00  0.00    +0.150 HD
ATOM     31  H   UNL     1      -4.500   0.295  23.195  0.00  0.00    +0.156 HD
BRANCH   6  21
ATOM     21  C   UNL     1      -4.850   1.764  24.606  0.00  0.00    +0.035 A 
ATOM     22  C   UNL     1      -5.780   1.858  25.641  0.00  0.00    +0.023 A 
ATOM     23  C   UNL     1      -4.377   2.921  23.985  0.00  0.00    +0.023 A 
ATOM     25  C   UNL     1      -6.240   3.108  26.055  0.00  0.00    +0.002 A 
ATOM     26  C   UNL     1      -4.837   4.171  24.399  0.00  0.00    +0.002 A 
ATOM     27  C   UNL     1      -5.767   4.265  25.433  0.00  0.00    +0.000 A 
ENDBRANCH   6  21
ENDBRANCH  12   5
ENDBRANCH  10  12
TORSDOF 8
ENDMDL
MODEL 8
REMARK VINA RESULT:      -0.5      2.459      6.892
REMARK  Name = 75536781
REMARK  8 active torsions:
REMARK  status: ('A' for Active; 'I' for Inactive)
REMARK    1  A    between atoms: O_2  and  C_9
REMARK    2  A    between atoms: N_4  and  C_8
REMARK    3  A    between atoms: N_4  and  C_13
REMARK    4  A    between atoms: N_5  and  C_12
REMARK    5  A    between atoms: N_6  and  C_21
REMARK    6  A    between atoms: C_10  and  C_12
REMARK    7  A    between atoms: C_13  and  C_14
REMARK    8  A    between atoms: C_18  and  C_24
REMARK                            x       y       z     vdW  Elec       q    Type
REMARK                         _______ _______ _______ _____ _____    ______ ____
ROOT
ATOM      1  O   UNL     1      -0.949  -2.404  23.153  0.00  0.00    -0.371 OA
ATOM      8  C   UNL     1      -0.078  -0.732  24.585  0.00  0.00    +0.111 C 
ATOM      9  C   UNL     1      -0.579  -1.875  25.452  0.00  0.00    +0.164 C 
ATOM     10  C   UNL     1      -1.316  -2.801  24.487  0.00  0.00    +0.165 C 
ATOM     11  C   UNL     1       0.080  -1.412  23.235  0.00  0.00    +0.181 C 
ENDROOT
BRANCH   9   2
ATOM      2  O   UNL     1       0.564  -2.557  25.974  0.00  0.00    -0.388 OA
ATOM     29  H   UNL     1       0.361  -2.801  26.893  0.00  0.00    +0.210 HD
ENDBRANCH   9   2
BRANCH   8   4
ATOM      4  N   UNL     1      -1.054   0.353  24.508  0.00  0.00    -0.305 NA
ATOM     28  H   UNL     1      -1.907   0.008  24.065  0.00  0.00    +0.123 HD
BRANCH   4  13
ATOM     13  C   UNL     1      -0.539   1.467  23.721  0.00  0.00    +0.116 C 
BRANCH  13  14
ATOM     14  C   UNL     1      -0.896   2.797  24.331  0.00  0.00    -0.032 A 
ATOM     16  C   UNL     1      -1.718   2.851  25.456  0.00  0.00    +0.023 A 
ATOM     17  C   UNL     1      -0.404   3.975  23.769  0.00  0.00    +0.005 A 
ATOM     18  C   UNL     1      -2.048   4.083  26.021  0.00  0.00    +0.052 A 
ATOM     19  C   UNL     1      -0.734   5.207  24.334  0.00  0.00    +0.002 A 
ATOM     20  C   UNL     1      -1.556   5.261  25.459  0.00  0.00    +0.019 A 
BRANCH  18  24
ATOM      7  N   UNL     1      -3.571   4.185  28.113  0.00  0.00    -0.191 NA
ATOM     24  C   UNL     1      -2.888   4.140  27.174  0.00  0.00    +0.099 C 
ENDBRANCH  18  24
ENDBRANCH  13  14
ENDBRANCH   4  13
ENDBRANCH   8   4
BRANCH  10  12
ATOM     12  C   UNL     1      -2.831  -2.725  24.609  0.00  0.00    +0.140 C 
BRANCH  12   5
ATOM      3  O   UNL     1      -3.781  -0.454  26.074  0.00  0.00    -0.253 OA
ATOM      5  N   UNL     1      -3.337  -1.500  24.059  0.00  0.00    -0.297 N 
ATOM      6  N   UNL     1      -4.221   0.627  24.038  0.00  0.00    -0.269 N 
ATOM     15  C   UNL     1      -3.786  -0.427  24.845  0.00  0.00    +0.304 C 
ATOM     30  H   UNL     1      -3.381  -1.410  23.049  0.00  0.00    +0.150 HD
ATOM     31  H   UNL     1      -4.158   0.487  23.032  0.00  0.00    +0.156 HD
BRANCH   6  21
ATOM     21  C   UNL     1      -4.742   1.877  24.446  0.00  0.00    +0.035 A 
ATOM     22  C   UNL     1      -5.654   1.943  25.498  0.00  0.00    +0.023 A 
ATOM     23  C   UNL     1      -4.342   3.045  23.794  0.00  0.00    +0.023 A 
ATOM     25  C   UNL     1      -6.169   3.176  25.900  0.00  0.00    +0.002 A 
ATOM     26  C   UNL     1      -4.856   4.278  24.196  0.00  0.00    +0.002 A 
ATOM     27  C   UNL     1      -5.769   4.343  25.248  0.00  0.00    +0.000 A 
ENDBRANCH   6  21
ENDBRANCH  12   5
ENDBRANCH  10  12
TORSDOF 8
ENDMDL
MODEL 9
REMARK VINA RESULT:      -0.3      1.276      2.163
REMARK  Name = 75536781
REMARK  8 active torsions:
REMARK  status: ('A' for Active; 'I' for Inactive)
REMARK    1  A    between atoms: O_2  and  C_9
REMARK    2  A    between atoms: N_4  and  C_8
REMARK    3  A    between atoms: N_4  and  C_13
REMARK    4  A    between atoms: N_5  and  C_12
REMARK    5  A    between atoms: N_6  and  C_21
REMARK    6  A    between atoms: C_10  and  C_12
REMARK    7  A    between atoms: C_13  and  C_14
REMARK    8  A    between atoms: C_18  and  C_24
REMARK                            x       y       z     vdW  Elec       q    Type
REMARK                         _______ _______ _______ _____ _____    ______ ____
ROOT
ATOM      1  O   UNL     1      -3.414   4.736  23.914  0.00  0.00    -0.371 OA
ATOM      8  C   UNL     1      -4.454   2.650  24.329  0.00  0.00    +0.111 C 
ATOM      9  C   UNL     1      -4.405   3.416  25.639  0.00  0.00    +0.164 C 
ATOM     10  C   UNL     1      -3.536   4.637  25.345  0.00  0.00    +0.165 C 
ATOM     11  C   UNL     1      -4.274   3.764  23.310  0.00  0.00    +0.181 C 
ENDROOT
BRANCH   9   2
ATOM      2  O   UNL     1      -5.734   3.849  25.939  0.00  0.00    -0.388 OA
ATOM     29  H   UNL     1      -6.342   3.315  25.400  0.00  0.00    +0.210 HD
ENDBRANCH   9   2
BRANCH   8   4
ATOM      4  N   UNL     1      -3.366   1.680  24.231  0.00  0.00    -0.305 NA
ATOM     28  H   UNL     1      -3.498   1.108  23.396  0.00  0.00    +0.123 HD
BRANCH   4  13
ATOM     13  C   UNL     1      -3.337   0.804  25.395  0.00  0.00    +0.116 C 
BRANCH  13  14
ATOM     14  C   UNL     1      -3.092  -0.632  25.012  0.00  0.00    -0.032 A 
ATOM     16  C   UNL     1      -4.070  -1.347  24.321  0.00  0.00    +0.023 A 
ATOM     17  C   UNL     1      -1.885  -1.245  25.348  0.00  0.00    +0.005 A 
ATOM     18  C   UNL     1      -3.840  -2.676  23.966  0.00  0.00    +0.052 A 
ATOM     19  C   UNL     1      -1.656  -2.574  24.992  0.00  0.00    +0.002 A 
ATOM     20  C   UNL     1      -2.634  -3.290  24.301  0.00  0.00    +0.019 A 
BRANCH  18  24
ATOM      7  N   UNL     1      -5.654  -4.007  22.682  0.00  0.00    -0.191 NA
ATOM     24  C   UNL     1      -4.841  -3.410  23.257  0.00  0.00    +0.099 C 
ENDBRANCH  18  24
ENDBRANCH  13  14
ENDBRANCH   4  13
ENDBRANCH   8   4
BRANCH  10  12
ATOM     12  C   UNL     1      -2.138   4.546  25.939  0.00  0.00    +0.140 C 
BRANCH  12   5
ATOM      3  O   UNL     1      -0.182   3.966  23.929  0.00  0.00    -0.253 OA
ATOM      5  N   UNL     1      -1.539   3.271  25.668  0.00  0.00    -0.297 N 
ATOM      6  N   UNL     1      -0.180   1.726  24.631  0.00  0.00    -0.269 N 
ATOM     15  C   UNL     1      -0.582   3.064  24.662  0.00  0.00    +0.304 C 
ATOM     30  H   UNL     1      -1.830   2.475  26.228  0.00  0.00    +0.150 HD
ATOM     31  H   UNL     1      -0.613   1.105  25.311  0.00  0.00    +0.156 HD
BRANCH   6  21
ATOM     21  C   UNL     1       0.761   1.121  23.767  0.00  0.00    +0.035 A 
ATOM     22  C   UNL     1       0.372   0.069  22.937  0.00  0.00    +0.023 A 
ATOM     23  C   UNL     1       2.080   1.577  23.744  0.00  0.00    +0.023 A 
ATOM     25  C   UNL     1       1.302  -0.528  22.085  0.00  0.00    +0.002 A 
ATOM     26  C   UNL     1       3.009   0.980  22.892  0.00  0.00    +0.002 A 
ATOM     27  C   UNL     1       2.620  -0.072  22.063  0.00  0.00    +0.000 A 
ENDBRANCH   6  21
ENDBRANCH  12   5
ENDBRANCH  10  12
TORSDOF 8
ENDMDL
MODEL 10
REMARK VINA RESULT:      -0.2      2.275      5.413
REMARK  Name = 75536781
REMARK  8 active torsions:
REMARK  status: ('A' for Active; 'I' for Inactive)
REMARK    1  A    between atoms: O_2  and  C_9
REMARK    2  A    between atoms: N_4  and  C_8
REMARK    3  A    between atoms: N_4  and  C_13
REMARK    4  A    between atoms: N_5  and  C_12
REMARK    5  A    between atoms: N_6  and  C_21
REMARK    6  A    between atoms: C_10  and  C_12
REMARK    7  A    between atoms: C_13  and  C_14
REMARK    8  A    between atoms: C_18  and  C_24
REMARK                            x       y       z     vdW  Elec       q    Type
REMARK                         _______ _______ _______ _____ _____    ______ ____
ROOT
ATOM      1  O   UNL     1       1.140   2.438  24.688  0.00  0.00    -0.371 OA
ATOM      8  C   UNL     1      -0.897   3.069  23.660  0.00  0.00    +0.111 C 
ATOM      9  C   UNL     1      -0.864   3.686  25.047  0.00  0.00    +0.164 C 
ATOM     10  C   UNL     1       0.357   3.063  25.722  0.00  0.00    +0.165 C 
ATOM     11  C   UNL     1       0.574   2.771  23.416  0.00  0.00    +0.181 C 
ENDROOT
BRANCH   9   2
ATOM      2  O   UNL     1      -0.646   5.091  24.892  0.00  0.00    -0.388 OA
ATOM     29  H   UNL     1      -0.745   5.297  23.947  0.00  0.00    +0.210 HD
ENDBRANCH   9   2
BRANCH   8   4
ATOM      4  N   UNL     1      -1.684   1.838  23.636  0.00  0.00    -0.305 NA
ATOM     28  H   UNL     1      -1.183   1.127  23.102  0.00  0.00    +0.123 HD
BRANCH   4  13
ATOM     13  C   UNL     1      -2.984   2.059  23.013  0.00  0.00    +0.116 C 
BRANCH  13  14
ATOM     14  C   UNL     1      -3.947   2.738  23.950  0.00  0.00    -0.032 A 
ATOM     16  C   UNL     1      -4.728   1.978  24.820  0.00  0.00    +0.023 A 
ATOM     17  C   UNL     1      -4.057   4.128  23.948  0.00  0.00    +0.005 A 
ATOM     18  C   UNL     1      -5.620   2.608  25.689  0.00  0.00    +0.052 A 
ATOM     19  C   UNL     1      -4.948   4.759  24.816  0.00  0.00    +0.002 A 
ATOM     20  C   UNL     1      -5.730   3.999  25.687  0.00  0.00    +0.019 A 
BRANCH  18  24
ATOM      7  N   UNL     1      -7.069   1.200  27.308  0.00  0.00    -0.191 NA
ATOM     24  C   UNL     1      -6.419   1.831  26.582  0.00  0.00    +0.099 C 
ENDBRANCH  18  24
ENDBRANCH  13  14
ENDBRANCH   4  13
ENDBRANCH   8   4
BRANCH  10  12
ATOM     12  C   UNL     1       0.005   2.008  26.760  0.00  0.00    +0.140 C 
BRANCH  12   5
ATOM      3  O   UNL     1      -0.306  -0.392  25.228  0.00  0.00    -0.253 OA
ATOM      5  N   UNL     1      -1.229   1.350  26.437  0.00  0.00    -0.297 N 
ATOM      6  N   UNL     1      -2.629  -0.236  25.525  0.00  0.00    -0.269 N 
ATOM     15  C   UNL     1      -1.301   0.171  25.678  0.00  0.00    +0.304 C 
ATOM     30  H   UNL     1      -2.095   1.765  26.767  0.00  0.00    +0.150 HD
ATOM     31  H   UNL     1      -3.338   0.347  25.964  0.00  0.00    +0.156 HD
BRANCH   6  21
ATOM     21  C   UNL     1      -3.117  -1.368  24.832  0.00  0.00    +0.035 A 
ATOM     22  C   UNL     1      -2.358  -2.537  24.784  0.00  0.00    +0.023 A 
ATOM     23  C   UNL     1      -4.358  -1.314  24.197  0.00  0.00    +0.023 A 
ATOM     25  C   UNL     1      -2.839  -3.653  24.099  0.00  0.00    +0.002 A 
ATOM     26  C   UNL     1      -4.839  -2.430  23.512  0.00  0.00    +0.002 A 
ATOM     27  C   UNL     1      -4.080  -3.600  23.463  0.00  0.00    +0.000 A 
ENDBRANCH   6  21
ENDBRANCH  12   5
ENDBRANCH  10  12
TORSDOF 8
ENDMDL
