MODEL 1
REMARK VINA RESULT:       0.2      0.000      0.000
REMARK  Name = 26761953
REMARK  6 active torsions:
REMARK  status: ('A' for Active; 'I' for Inactive)
REMARK    1  A    between atoms: O_5  and  C_25
REMARK    2  A    between atoms: N_6  and  C_16
REMARK    3  A    between atoms: C_11  and  C_17
REMARK    4  A    between atoms: C_16  and  C_18
REMARK    5  A    between atoms: C_21  and  C_24
REMARK    6  A    between atoms: C_22  and  C_25
REMARK                            x       y       z     vdW  Elec       q    Type
REMARK                         _______ _______ _______ _____ _____    ______ ____
ROOT
ATOM      6  N   UNL     1      -3.785   0.620  24.330  0.00  0.00    -0.278 NA
ATOM      7  N   UNL     1      -4.456  -2.977  23.642  0.00  0.00    -0.347 N 
ATOM      8  N   UNL     1      -3.257  -3.334  25.495  0.00  0.00    -0.240 NA
ATOM     11  C   UNL     1      -2.510   0.403  25.080  0.00  0.00    +0.152 C 
ATOM     12  C   UNL     1      -2.542  -0.932  25.906  0.00  0.00    +0.086 C 
ATOM     13  C   UNL     1      -4.147  -0.449  23.376  0.00  0.00    +0.140 C 
ATOM     14  C   UNL     1      -3.973  -1.765  24.029  0.00  0.00    +0.053 A 
ATOM     15  C   UNL     1      -3.238  -2.009  25.162  0.00  0.00    +0.065 A 
ATOM     19  C   UNL     1      -3.999  -3.892  24.558  0.00  0.00    +0.197 A 
ATOM     31  H   UNL     1      -5.036  -3.172  22.836  0.00  0.00    +0.167 HD
ENDROOT
BRANCH  11  17
ATOM      3  O   UNL     1      -1.361   1.175  23.050  0.00  0.00    -0.336 OA
ATOM      9  N   UNL     1      -0.003   0.220  24.553  0.00  0.00    -0.190 NA
ATOM     10  N   UNL     1      -0.076   1.216  22.495  0.00  0.00    -0.056 NA
ATOM     17  C   UNL     1      -1.230   0.574  24.261  0.00  0.00    +0.245 A 
ATOM     21  C   UNL     1       0.668   0.635  23.441  0.00  0.00    +0.202 A 
BRANCH  21  24
ATOM      1 CL   UNL     1       4.760  -2.454  23.917  0.00  0.00    -0.081 Cl
ATOM      2  F   UNL     1       6.165  -0.048  22.909  0.00  0.00    -0.204 F 
ATOM     24  C   UNL     1       2.085   0.455  23.305  0.00  0.00    +0.024 A 
ATOM     26  C   UNL     1       2.668  -0.768  23.638  0.00  0.00    +0.034 A 
ATOM     27  C   UNL     1       2.879   1.503  22.841  0.00  0.00    +0.014 A 
ATOM     28  C   UNL     1       4.045  -0.942  23.506  0.00  0.00    +0.077 A 
ATOM     29  C   UNL     1       4.258   1.328  22.710  0.00  0.00    +0.040 A 
ATOM     30  C   UNL     1       4.840   0.105  23.041  0.00  0.00    +0.142 A 
ENDBRANCH  21  24
ENDBRANCH  11  17
BRANCH   6  16
ATOM     16  C   UNL     1      -3.899   1.941  23.721  0.00  0.00    +0.160 C 
BRANCH  16  18
ATOM      4  O   UNL     1      -2.373   3.740  24.319  0.00  0.00    -0.461 OA
ATOM     18  C   UNL     1      -3.480   3.033  24.668  0.00  0.00    +0.119 A 
ATOM     20  C   UNL     1      -3.990   3.493  25.860  0.00  0.00    +0.046 A 
ATOM     22  C   UNL     1      -2.174   4.661  25.297  0.00  0.00    +0.131 A 
ATOM     23  C   UNL     1      -3.142   4.550  26.268  0.00  0.00    +0.047 A 
BRANCH  22  25
ATOM     25  C   UNL     1      -1.017   5.551  25.128  0.00  0.00    +0.230 C 
BRANCH  25   5
ATOM      5  O   UNL     1      -0.090   4.985  24.198  0.00  0.00    -0.387 OA
ATOM     32  H   UNL     1      -0.089   5.561  23.413  0.00  0.00    +0.210 HD
ENDBRANCH  25   5
ENDBRANCH  22  25
ENDBRANCH  16  18
ENDBRANCH   6  16
TORSDOF 6
ENDMDL
MODEL 2
REMARK VINA RESULT:       1.0      1.917      4.387
REMARK  Name = 26761953
REMARK  6 active torsions:
REMARK  status: ('A' for Active; 'I' for Inactive)
REMARK    1  A    between atoms: O_5  and  C_25
REMARK    2  A    between atoms: N_6  and  C_16
REMARK    3  A    between atoms: C_11  and  C_17
REMARK    4  A    between atoms: C_16  and  C_18
REMARK    5  A    between atoms: C_21  and  C_24
REMARK    6  A    between atoms: C_22  and  C_25
REMARK                            x       y       z     vdW  Elec       q    Type
REMARK                         _______ _______ _______ _____ _____    ______ ____
ROOT
ATOM      6  N   UNL     1      -4.040   0.707  23.265  0.00  0.00    -0.278 NA
ATOM      7  N   UNL     1      -5.413   2.421  26.273  0.00  0.00    -0.347 N 
ATOM      8  N   UNL     1      -4.722   4.289  25.258  0.00  0.00    -0.240 NA
ATOM     11  C   UNL     1      -3.027   1.755  22.933  0.00  0.00    +0.152 C 
ATOM     12  C   UNL     1      -3.542   3.194  23.294  0.00  0.00    +0.086 C 
ATOM     13  C   UNL     1      -4.456   0.656  24.683  0.00  0.00    +0.140 C 
ATOM     14  C   UNL     1      -4.736   2.028  25.159  0.00  0.00    +0.053 A 
ATOM     15  C   UNL     1      -4.318   3.189  24.556  0.00  0.00    +0.065 A 
ATOM     19  C   UNL     1      -5.378   3.793  26.289  0.00  0.00    +0.197 A 
ATOM     31  H   UNL     1      -5.854   1.823  26.959  0.00  0.00    +0.167 HD
ENDROOT
BRANCH  11  17
ATOM      3  O   UNL     1      -1.433   1.480  24.783  0.00  0.00    -0.336 OA
ATOM      9  N   UNL     1      -0.518   1.238  22.752  0.00  0.00    -0.190 NA
ATOM     10  N   UNL     1      -0.075   1.210  24.996  0.00  0.00    -0.056 NA
ATOM     17  C   UNL     1      -1.609   1.479  23.436  0.00  0.00    +0.245 A 
ATOM     21  C   UNL     1       0.396   1.080  23.752  0.00  0.00    +0.202 A 
BRANCH  21  24
ATOM      1 CL   UNL     1       4.278  -2.300  23.882  0.00  0.00    -0.081 Cl
ATOM      2  F   UNL     1       5.741  -0.026  22.669  0.00  0.00    -0.204 F 
ATOM     24  C   UNL     1       1.773   0.791  23.475  0.00  0.00    +0.024 A 
ATOM     26  C   UNL     1       2.297  -0.466  23.778  0.00  0.00    +0.034 A 
ATOM     27  C   UNL     1       2.589   1.767  22.903  0.00  0.00    +0.014 A 
ATOM     28  C   UNL     1       3.636  -0.746  23.507  0.00  0.00    +0.077 A 
ATOM     29  C   UNL     1       3.929   1.486  22.633  0.00  0.00    +0.040 A 
ATOM     30  C   UNL     1       4.452   0.229  22.935  0.00  0.00    +0.142 A 
ENDBRANCH  21  24
ENDBRANCH  11  17
BRANCH   6  16
ATOM     16  C   UNL     1      -3.711  -0.621  22.757  0.00  0.00    +0.160 C 
BRANCH  16  18
ATOM      4  O   UNL     1      -1.922  -1.618  24.072  0.00  0.00    -0.461 OA
ATOM     18  C   UNL     1      -3.262  -1.546  23.857  0.00  0.00    +0.119 A 
ATOM     20  C   UNL     1      -3.936  -2.369  24.729  0.00  0.00    +0.046 A 
ATOM     22  C   UNL     1      -1.738  -2.497  25.092  0.00  0.00    +0.131 A 
ATOM     23  C   UNL     1      -2.946  -2.986  25.531  0.00  0.00    +0.047 A 
BRANCH  22  25
ATOM     25  C   UNL     1      -0.348  -2.735  25.503  0.00  0.00    +0.230 C 
BRANCH  25   5
ATOM      5  O   UNL     1       0.228  -1.534  26.020  0.00  0.00    -0.387 OA
ATOM     32  H   UNL     1       1.186  -1.588  25.864  0.00  0.00    +0.210 HD
ENDBRANCH  25   5
ENDBRANCH  22  25
ENDBRANCH  16  18
ENDBRANCH   6  16
TORSDOF 6
ENDMDL
MODEL 3
REMARK VINA RESULT:       2.5      3.609      5.308
REMARK  Name = 26761953
REMARK  6 active torsions:
REMARK  status: ('A' for Active; 'I' for Inactive)
REMARK    1  A    between atoms: O_5  and  C_25
REMARK    2  A    between atoms: N_6  and  C_16
REMARK    3  A    between atoms: C_11  and  C_17
REMARK    4  A    between atoms: C_16  and  C_18
REMARK    5  A    between atoms: C_21  and  C_24
REMARK    6  A    between atoms: C_22  and  C_25
REMARK                            x       y       z     vdW  Elec       q    Type
REMARK                         _______ _______ _______ _____ _____    ______ ____
ROOT
ATOM      6  N   UNL     1      -3.453   2.066  23.348  0.00  0.00    -0.278 NA
ATOM      7  N   UNL     1      -5.830   0.966  25.995  0.00  0.00    -0.347 N 
ATOM      8  N   UNL     1      -6.035   3.152  26.418  0.00  0.00    -0.240 NA
ATOM     11  C   UNL     1      -3.057   3.346  24.012  0.00  0.00    +0.152 C 
ATOM     12  C   UNL     1      -4.251   3.979  24.812  0.00  0.00    +0.086 C 
ATOM     13  C   UNL     1      -3.952   1.011  24.255  0.00  0.00    +0.140 C 
ATOM     14  C   UNL     1      -4.924   1.600  25.202  0.00  0.00    +0.053 A 
ATOM     15  C   UNL     1      -5.064   2.937  25.482  0.00  0.00    +0.065 A 
ATOM     19  C   UNL     1      -6.477   1.943  26.709  0.00  0.00    +0.197 A 
ATOM     31  H   UNL     1      -5.996  -0.030  26.054  0.00  0.00    +0.167 HD
ENDROOT
BRANCH  11  17
ATOM      3  O   UNL     1      -0.625   3.669  24.163  0.00  0.00    -0.336 OA
ATOM      9  N   UNL     1      -1.562   2.929  26.058  0.00  0.00    -0.190 NA
ATOM     10  N   UNL     1       0.419   3.536  25.087  0.00  0.00    -0.056 NA
ATOM     17  C   UNL     1      -1.756   3.292  24.815  0.00  0.00    +0.245 A 
ATOM     21  C   UNL     1      -0.213   3.096  26.179  0.00  0.00    +0.202 A 
BRANCH  21  24
ATOM      1 CL   UNL     1       4.251   2.357  28.637  0.00  0.00    -0.081 Cl
ATOM      2  F   UNL     1       2.433   2.004  30.951  0.00  0.00    -0.204 F 
ATOM     24  C   UNL     1       0.473   2.814  27.407  0.00  0.00    +0.024 A 
ATOM     26  C   UNL     1       1.865   2.731  27.425  0.00  0.00    +0.034 A 
ATOM     27  C   UNL     1      -0.253   2.623  28.583  0.00  0.00    +0.014 A 
ATOM     28  C   UNL     1       2.532   2.458  28.620  0.00  0.00    +0.077 A 
ATOM     29  C   UNL     1       0.415   2.350  29.777  0.00  0.00    +0.040 A 
ATOM     30  C   UNL     1       1.807   2.267  29.796  0.00  0.00    +0.142 A 
ENDBRANCH  21  24
ENDBRANCH  11  17
BRANCH   6  16
ATOM     16  C   UNL     1      -2.457   1.545  22.418  0.00  0.00    +0.160 C 
BRANCH  16  18
ATOM      4  O   UNL     1      -0.153   0.799  22.660  0.00  0.00    -0.461 OA
ATOM     18  C   UNL     1      -1.429   0.696  23.117  0.00  0.00    +0.119 A 
ATOM     20  C   UNL     1      -1.498  -0.200  24.159  0.00  0.00    +0.046 A 
ATOM     22  C   UNL     1       0.601  -0.040  23.418  0.00  0.00    +0.131 A 
ATOM     23  C   UNL     1      -0.180  -0.677  24.354  0.00  0.00    +0.047 A 
BRANCH  22  25
ATOM     25  C   UNL     1       2.034  -0.093  23.100  0.00  0.00    +0.230 C 
BRANCH  25   5
ATOM      5  O   UNL     1       2.618   1.205  23.234  0.00  0.00    -0.387 OA
ATOM     32  H   UNL     1       2.876   1.493  22.341  0.00  0.00    +0.210 HD
ENDBRANCH  25   5
ENDBRANCH  22  25
ENDBRANCH  16  18
ENDBRANCH   6  16
TORSDOF 6
ENDMDL
MODEL 4
REMARK VINA RESULT:       2.5      3.707      5.705
REMARK  Name = 26761953
REMARK  6 active torsions:
REMARK  status: ('A' for Active; 'I' for Inactive)
REMARK    1  A    between atoms: O_5  and  C_25
REMARK    2  A    between atoms: N_6  and  C_16
REMARK    3  A    between atoms: C_11  and  C_17
REMARK    4  A    between atoms: C_16  and  C_18
REMARK    5  A    between atoms: C_21  and  C_24
REMARK    6  A    between atoms: C_22  and  C_25
REMARK                            x       y       z     vdW  Elec       q    Type
REMARK                         _______ _______ _______ _____ _____    ______ ____
ROOT
ATOM      6  N   UNL     1      -3.745   1.678  23.429  0.00  0.00    -0.278 NA
ATOM      7  N   UNL     1      -6.209   2.167  26.178  0.00  0.00    -0.347 N 
ATOM      8  N   UNL     1      -5.806   4.344  25.861  0.00  0.00    -0.240 NA
ATOM     11  C   UNL     1      -2.994   2.950  23.661  0.00  0.00    +0.152 C 
ATOM     12  C   UNL     1      -3.940   4.100  24.157  0.00  0.00    +0.086 C 
ATOM     13  C   UNL     1      -4.466   1.146  24.605  0.00  0.00    +0.140 C 
ATOM     14  C   UNL     1      -5.203   2.245  25.264  0.00  0.00    +0.053 A 
ATOM     15  C   UNL     1      -4.970   3.587  25.090  0.00  0.00    +0.065 A 
ATOM     19  C   UNL     1      -6.541   3.458  26.507  0.00  0.00    +0.197 A 
ATOM     31  H   UNL     1      -6.631   1.326  26.548  0.00  0.00    +0.167 HD
ENDROOT
BRANCH  11  17
ATOM      3  O   UNL     1      -0.555   2.688  23.809  0.00  0.00    -0.336 OA
ATOM      9  N   UNL     1      -1.578   2.801  25.798  0.00  0.00    -0.190 NA
ATOM     10  N   UNL     1       0.455   2.580  24.774  0.00  0.00    -0.056 NA
ATOM     17  C   UNL     1      -1.720   2.815  24.496  0.00  0.00    +0.245 A 
ATOM     21  C   UNL     1      -0.227   2.655  25.920  0.00  0.00    +0.202 A 
BRANCH  21  24
ATOM      1 CL   UNL     1       4.139   2.586  28.647  0.00  0.00    -0.081 Cl
ATOM      2  F   UNL     1       2.230   2.400  30.906  0.00  0.00    -0.204 F 
ATOM     24  C   UNL     1       0.410   2.590  27.203  0.00  0.00    +0.024 A 
ATOM     26  C   UNL     1       1.802   2.616  27.293  0.00  0.00    +0.034 A 
ATOM     27  C   UNL     1      -0.362   2.498  28.361  0.00  0.00    +0.014 A 
ATOM     28  C   UNL     1       2.421   2.552  28.542  0.00  0.00    +0.077 A 
ATOM     29  C   UNL     1       0.258   2.434  29.610  0.00  0.00    +0.040 A 
ATOM     30  C   UNL     1       1.649   2.462  29.700  0.00  0.00    +0.142 A 
ENDBRANCH  21  24
ENDBRANCH  11  17
BRANCH   6  16
ATOM     16  C   UNL     1      -2.966   0.639  22.764  0.00  0.00    +0.160 C 
BRANCH  16  18
ATOM      4  O   UNL     1      -1.730  -0.973  24.105  0.00  0.00    -0.461 OA
ATOM     18  C   UNL     1      -2.931  -0.634  23.566  0.00  0.00    +0.119 A 
ATOM     20  C   UNL     1      -3.886  -1.571  23.888  0.00  0.00    +0.046 A 
ATOM     22  C   UNL     1      -1.920  -2.138  24.778  0.00  0.00    +0.131 A 
ATOM     23  C   UNL     1      -3.230  -2.547  24.675  0.00  0.00    +0.047 A 
BRANCH  22  25
ATOM     25  C   UNL     1      -0.742  -2.700  25.451  0.00  0.00    +0.230 C 
BRANCH  25   5
ATOM      5  O   UNL     1       0.178  -1.659  25.789  0.00  0.00    -0.387 OA
ATOM     32  H   UNL     1       0.096  -1.507  26.747  0.00  0.00    +0.210 HD
ENDBRANCH  25   5
ENDBRANCH  22  25
ENDBRANCH  16  18
ENDBRANCH   6  16
TORSDOF 6
ENDMDL
MODEL 5
REMARK VINA RESULT:       2.8      3.667      5.595
REMARK  Name = 26761953
REMARK  6 active torsions:
REMARK  status: ('A' for Active; 'I' for Inactive)
REMARK    1  A    between atoms: O_5  and  C_25
REMARK    2  A    between atoms: N_6  and  C_16
REMARK    3  A    between atoms: C_11  and  C_17
REMARK    4  A    between atoms: C_16  and  C_18
REMARK    5  A    between atoms: C_21  and  C_24
REMARK    6  A    between atoms: C_22  and  C_25
REMARK                            x       y       z     vdW  Elec       q    Type
REMARK                         _______ _______ _______ _____ _____    ______ ____
ROOT
ATOM      6  N   UNL     1      -3.379   2.076  23.321  0.00  0.00    -0.278 NA
ATOM      7  N   UNL     1      -5.844   1.133  25.948  0.00  0.00    -0.347 N 
ATOM      8  N   UNL     1      -6.040   3.340  26.252  0.00  0.00    -0.240 NA
ATOM     11  C   UNL     1      -2.990   3.384  23.930  0.00  0.00    +0.152 C 
ATOM     12  C   UNL     1      -4.201   4.068  24.660  0.00  0.00    +0.086 C 
ATOM     13  C   UNL     1      -3.915   1.072  24.265  0.00  0.00    +0.140 C 
ATOM     14  C   UNL     1      -4.909   1.718  25.151  0.00  0.00    +0.053 A 
ATOM     15  C   UNL     1      -5.044   3.069  25.358  0.00  0.00    +0.065 A 
ATOM     19  C   UNL     1      -6.503   2.152  26.591  0.00  0.00    +0.197 A 
ATOM     31  H   UNL     1      -6.022   0.143  26.053  0.00  0.00    +0.167 HD
ENDROOT
BRANCH  11  17
ATOM      3  O   UNL     1      -0.590   3.848  24.186  0.00  0.00    -0.336 OA
ATOM      9  N   UNL     1      -1.536   2.932  25.998  0.00  0.00    -0.190 NA
ATOM     10  N   UNL     1       0.431   3.723  25.137  0.00  0.00    -0.056 NA
ATOM     17  C   UNL     1      -1.714   3.361  24.773  0.00  0.00    +0.245 A 
ATOM     21  C   UNL     1      -0.206   3.175  26.177  0.00  0.00    +0.202 A 
BRANCH  21  24
ATOM      1 CL   UNL     1       4.213   2.356  28.690  0.00  0.00    -0.081 Cl
ATOM      2  F   UNL     1       2.355   1.951  30.963  0.00  0.00    -0.204 F 
ATOM     24  C   UNL     1       0.459   2.859  27.408  0.00  0.00    +0.024 A 
ATOM     26  C   UNL     1       1.850   2.770  27.448  0.00  0.00    +0.034 A 
ATOM     27  C   UNL     1      -0.288   2.641  28.566  0.00  0.00    +0.014 A 
ATOM     28  C   UNL     1       2.495   2.463  28.646  0.00  0.00    +0.077 A 
ATOM     29  C   UNL     1       0.358   2.334  29.765  0.00  0.00    +0.040 A 
ATOM     30  C   UNL     1       1.750   2.246  29.805  0.00  0.00    +0.142 A 
ENDBRANCH  21  24
ENDBRANCH  11  17
BRANCH   6  16
ATOM     16  C   UNL     1      -2.361   1.499  22.449  0.00  0.00    +0.160 C 
BRANCH  16  18
ATOM      4  O   UNL     1      -2.060  -0.530  23.760  0.00  0.00    -0.461 OA
ATOM     18  C   UNL     1      -1.460   0.550  23.193  0.00  0.00    +0.119 A 
ATOM     20  C   UNL     1      -0.106   0.533  23.437  0.00  0.00    +0.046 A 
ATOM     22  C   UNL     1      -1.079  -1.244  24.371  0.00  0.00    +0.131 A 
ATOM     23  C   UNL     1       0.141  -0.631  24.202  0.00  0.00    +0.047 A 
BRANCH  22  25
ATOM     25  C   UNL     1      -1.500  -2.472  25.059  0.00  0.00    +0.230 C 
BRANCH  25   5
ATOM      5  O   UNL     1      -2.908  -2.666  24.906  0.00  0.00    -0.387 OA
ATOM     32  H   UNL     1      -3.229  -1.961  24.316  0.00  0.00    +0.210 HD
ENDBRANCH  25   5
ENDBRANCH  22  25
ENDBRANCH  16  18
ENDBRANCH   6  16
TORSDOF 6
ENDMDL
