MODEL 1
REMARK VINA RESULT:       7.1      0.000      0.000
REMARK  Name = 11882035
REMARK  12 active torsions:
REMARK  status: ('A' for Active; 'I' for Inactive)
REMARK    1  A    between atoms: O_5  and  C_39
REMARK    2  A    between atoms: O_5  and  C_40
REMARK    3  A    between atoms: N_7  and  C_12
REMARK    4  A    between atoms: N_8  and  C_18
REMARK    5  A    between atoms: N_9  and  C_28
REMARK    6  A    between atoms: C_13  and  C_16
REMARK    7  A    between atoms: C_17  and  C_21
REMARK    8  A    between atoms: C_18  and  C_20
REMARK    9  A    between atoms: C_18  and  C_23
REMARK   10  A    between atoms: C_20  and  C_22
REMARK   11  A    between atoms: C_24  and  C_29
REMARK   12  A    between atoms: C_24  and  C_30
REMARK                            x       y       z     vdW  Elec       q    Type
REMARK                         _______ _______ _______ _____ _____    ______ ____
ROOT
ATOM      2  O   UNL     1      -4.283   0.372  26.782  0.00  0.00    -0.271 OA
ATOM      6  N   UNL     1      -3.269  -0.704  24.997  0.00  0.00    -0.285 N 
ATOM     12  C   UNL     1      -1.891  -1.893  23.462  0.00  0.00    +0.094 C 
ATOM     13  C   UNL     1      -2.290  -1.427  25.798  0.00  0.00    +0.164 C 
ATOM     14  C   UNL     1      -1.714  -2.487  24.862  0.00  0.00    +0.056 C 
ATOM     15  C   UNL     1      -3.171  -1.072  23.582  0.00  0.00    +0.131 C 
ATOM     17  C   UNL     1      -4.241   0.088  25.585  0.00  0.00    +0.240 C 
ENDROOT
BRANCH  12   7
ATOM      3  O   UNL     1       0.832  -2.246  24.277  0.00  0.00    -0.253 OA
ATOM      7  N   UNL     1      -0.765  -1.078  23.080  0.00  0.00    -0.295 N 
ATOM      9  N   UNL     1       1.419  -0.370  22.993  0.00  0.00    -0.269 N 
ATOM     19  C   UNL     1       0.541  -1.320  23.525  0.00  0.00    +0.304 C 
ATOM     41  H   UNL     1      -0.934  -0.253  22.513  0.00  0.00    +0.151 HD
ATOM     43  H   UNL     1       1.013   0.336  22.384  0.00  0.00    +0.156 HD
BRANCH   9  28
ATOM     28  C   UNL     1       2.815  -0.268  23.198  0.00  0.00    +0.035 A 
ATOM     35  C   UNL     1       3.483   0.912  22.874  0.00  0.00    +0.027 A 
ATOM     36  C   UNL     1       3.523  -1.348  23.726  0.00  0.00    +0.027 A 
ATOM     37  C   UNL     1       4.859   1.014  23.078  0.00  0.00    +0.047 A 
ATOM     38  C   UNL     1       4.898  -1.248  23.930  0.00  0.00    +0.047 A 
ATOM     39  C   UNL     1       5.567  -0.066  23.605  0.00  0.00    +0.120 A 
BRANCH  39   5
ATOM      5  O   UNL     1       6.909   0.033  23.806  0.00  0.00    -0.495 OA
ATOM     40  C   UNL     1       7.757  -0.605  22.854  0.00  0.00    +0.277 C 
ENDBRANCH  39   5
ENDBRANCH   9  28
ENDBRANCH  12   7
BRANCH  13  16
ATOM      1  O   UNL     1      -0.296  -0.823  26.963  0.00  0.00    -0.274 OA
ATOM      8  N   UNL     1      -1.469   0.823  25.809  0.00  0.00    -0.302 N 
ATOM     16  C   UNL     1      -1.235  -0.466  26.256  0.00  0.00    +0.234 C 
ATOM     42  H   UNL     1      -2.231   0.985  25.157  0.00  0.00    +0.150 HD
BRANCH   8  18
ATOM     18  C   UNL     1      -0.611   1.940  26.132  0.00  0.00    +0.163 C 
BRANCH  18  23
ATOM      4  O   UNL     1       0.381   1.492  23.959  0.00  0.00    -0.274 OA
ATOM     11  N   UNL     1       0.548   3.612  24.827  0.00  0.00    -0.328 N 
ATOM     23  C   UNL     1       0.163   2.289  24.868  0.00  0.00    +0.231 C 
ATOM     45  H   UNL     1       1.060   3.981  24.031  0.00  0.00    +0.145 HD
ATOM     46  H   UNL     1       0.339   4.265  25.575  0.00  0.00    +0.145 HD
ENDBRANCH  18  23
BRANCH  18  20
ATOM     20  C   UNL     1      -1.402   3.156  26.630  0.00  0.00    +0.069 C 
BRANCH  20  22
ATOM     10  N   UNL     1      -4.446   4.399  24.987  0.00  0.00    -0.360 N 
ATOM     22  C   UNL     1      -2.547   3.523  25.730  0.00  0.00    -0.020 A 
ATOM     25  C   UNL     1      -2.714   3.137  24.370  0.00  0.00    +0.003 A 
ATOM     26  C   UNL     1      -3.628   4.299  26.080  0.00  0.00    +0.087 A 
ATOM     27  C   UNL     1      -3.913   3.700  23.928  0.00  0.00    +0.047 A 
ATOM     31  C   UNL     1      -1.957   2.360  23.470  0.00  0.00    +0.010 A 
ATOM     32  C   UNL     1      -4.395   3.525  22.626  0.00  0.00    +0.026 A 
ATOM     33  C   UNL     1      -2.427   2.177  22.164  0.00  0.00    +0.001 A 
ATOM     34  C   UNL     1      -3.627   2.750  21.751  0.00  0.00    +0.002 A 
ATOM     44  H   UNL     1      -5.317   4.911  24.961  0.00  0.00    +0.165 HD
ENDBRANCH  20  22
ENDBRANCH  18  20
ENDBRANCH   8  18
ENDBRANCH  13  16
BRANCH  17  21
ATOM     21  C   UNL     1      -5.290   0.622  24.695  0.00  0.00    +0.066 C 
ATOM     24  C   UNL     1      -6.265   1.465  25.078  0.00  0.00    -0.071 C 
ATOM     29  C   UNL     1      -6.332   1.927  26.511  0.00  0.00    +0.039 C 
ATOM     30  C   UNL     1      -7.349   2.030  24.203  0.00  0.00    +0.039 C 
ENDBRANCH  17  21
TORSDOF 9
ENDMDL
MODEL 2
REMARK VINA RESULT:       7.1      2.391      6.040
REMARK  Name = 11882035
REMARK  12 active torsions:
REMARK  status: ('A' for Active; 'I' for Inactive)
REMARK    1  A    between atoms: O_5  and  C_39
REMARK    2  A    between atoms: O_5  and  C_40
REMARK    3  A    between atoms: N_7  and  C_12
REMARK    4  A    between atoms: N_8  and  C_18
REMARK    5  A    between atoms: N_9  and  C_28
REMARK    6  A    between atoms: C_13  and  C_16
REMARK    7  A    between atoms: C_17  and  C_21
REMARK    8  A    between atoms: C_18  and  C_20
REMARK    9  A    between atoms: C_18  and  C_23
REMARK   10  A    between atoms: C_20  and  C_22
REMARK   11  A    between atoms: C_24  and  C_29
REMARK   12  A    between atoms: C_24  and  C_30
REMARK                            x       y       z     vdW  Elec       q    Type
REMARK                         _______ _______ _______ _____ _____    ______ ____
ROOT
ATOM      2  O   UNL     1      -4.340  -0.632  23.859  0.00  0.00    -0.271 OA
ATOM      6  N   UNL     1      -3.651   1.570  24.077  0.00  0.00    -0.285 N 
ATOM     12  C   UNL     1      -2.652   3.728  23.964  0.00  0.00    +0.094 C 
ATOM     13  C   UNL     1      -2.939   1.628  22.808  0.00  0.00    +0.164 C 
ATOM     14  C   UNL     1      -2.679   3.112  22.563  0.00  0.00    +0.056 C 
ATOM     15  C   UNL     1      -3.639   2.872  24.751  0.00  0.00    +0.131 C 
ATOM     17  C   UNL     1      -4.361   0.444  24.457  0.00  0.00    +0.240 C 
ENDROOT
BRANCH  12   7
ATOM      3  O   UNL     1      -1.959   2.836  26.596  0.00  0.00    -0.253 OA
ATOM      7  N   UNL     1      -1.330   3.688  24.541  0.00  0.00    -0.295 N 
ATOM      9  N   UNL     1       0.291   3.313  26.124  0.00  0.00    -0.269 N 
ATOM     19  C   UNL     1      -1.076   3.236  25.842  0.00  0.00    +0.304 C 
ATOM     41  H   UNL     1      -0.556   4.065  24.003  0.00  0.00    +0.151 HD
ATOM     43  H   UNL     1       0.890   3.671  25.385  0.00  0.00    +0.156 HD
BRANCH   9  28
ATOM     28  C   UNL     1       0.951   2.952  27.322  0.00  0.00    +0.035 A 
ATOM     35  C   UNL     1       2.298   3.265  27.497  0.00  0.00    +0.027 A 
ATOM     36  C   UNL     1       0.253   2.285  28.329  0.00  0.00    +0.027 A 
ATOM     37  C   UNL     1       2.949   2.912  28.680  0.00  0.00    +0.047 A 
ATOM     38  C   UNL     1       0.903   1.930  29.511  0.00  0.00    +0.047 A 
ATOM     39  C   UNL     1       2.251   2.244  29.686  0.00  0.00    +0.120 A 
BRANCH  39   5
ATOM      5  O   UNL     1       2.885   1.900  30.841  0.00  0.00    -0.495 OA
ATOM     40  C   UNL     1       2.064   1.576  31.961  0.00  0.00    +0.277 C 
ENDBRANCH  39   5
ENDBRANCH   9  28
ENDBRANCH  12   7
BRANCH  13  16
ATOM      1  O   UNL     1      -0.944   0.624  21.965  0.00  0.00    -0.274 OA
ATOM      8  N   UNL     1      -1.417   0.455  24.238  0.00  0.00    -0.302 N 
ATOM     16  C   UNL     1      -1.658   0.860  22.936  0.00  0.00    +0.234 C 
ATOM     42  H   UNL     1      -2.033   0.782  24.975  0.00  0.00    +0.150 HD
BRANCH   8  18
ATOM     18  C   UNL     1      -0.260  -0.321  24.623  0.00  0.00    +0.163 C 
BRANCH  18  23
ATOM      4  O   UNL     1      -0.058  -2.507  25.667  0.00  0.00    -0.274 OA
ATOM     11  N   UNL     1      -2.117  -1.488  25.640  0.00  0.00    -0.328 N 
ATOM     23  C   UNL     1      -0.772  -1.561  25.342  0.00  0.00    +0.231 C 
ATOM     45  H   UNL     1      -2.583  -2.244  26.131  0.00  0.00    +0.145 HD
ATOM     46  H   UNL     1      -2.689  -0.688  25.386  0.00  0.00    +0.145 HD
ENDBRANCH  18  23
BRANCH  18  20
ATOM     20  C   UNL     1       0.602  -0.717  23.419  0.00  0.00    +0.069 C 
BRANCH  20  22
ATOM     10  N   UNL     1       3.251   1.795  22.989  0.00  0.00    -0.360 N 
ATOM     22  C   UNL     1       1.861   0.093  23.303  0.00  0.00    -0.020 A 
ATOM     25  C   UNL     1       3.192  -0.378  23.487  0.00  0.00    +0.003 A 
ATOM     26  C   UNL     1       1.931   1.433  22.999  0.00  0.00    +0.087 A 
ATOM     27  C   UNL     1       4.044   0.709  23.284  0.00  0.00    +0.047 A 
ATOM     31  C   UNL     1       3.755  -1.630  23.807  0.00  0.00    +0.010 A 
ATOM     32  C   UNL     1       5.435   0.609  23.387  0.00  0.00    +0.026 A 
ATOM     33  C   UNL     1       5.145  -1.746  23.913  0.00  0.00    +0.001 A 
ATOM     34  C   UNL     1       5.971  -0.643  23.705  0.00  0.00    +0.002 A 
ATOM     44  H   UNL     1       3.594   2.725  22.792  0.00  0.00    +0.165 HD
ENDBRANCH  20  22
ENDBRANCH  18  20
ENDBRANCH   8  18
ENDBRANCH  13  16
BRANCH  17  21
ATOM     21  C   UNL     1      -5.194   0.561  25.670  0.00  0.00    +0.066 C 
ATOM     24  C   UNL     1      -6.223   1.414  25.814  0.00  0.00    -0.071 C 
ATOM     29  C   UNL     1      -6.592   2.338  24.682  0.00  0.00    +0.039 C 
ATOM     30  C   UNL     1      -7.093   1.563  27.031  0.00  0.00    +0.039 C 
ENDBRANCH  17  21
TORSDOF 9
ENDMDL
MODEL 3
REMARK VINA RESULT:       7.4      1.597      3.029
REMARK  Name = 11882035
REMARK  12 active torsions:
REMARK  status: ('A' for Active; 'I' for Inactive)
REMARK    1  A    between atoms: O_5  and  C_39
REMARK    2  A    between atoms: O_5  and  C_40
REMARK    3  A    between atoms: N_7  and  C_12
REMARK    4  A    between atoms: N_8  and  C_18
REMARK    5  A    between atoms: N_9  and  C_28
REMARK    6  A    between atoms: C_13  and  C_16
REMARK    7  A    between atoms: C_17  and  C_21
REMARK    8  A    between atoms: C_18  and  C_20
REMARK    9  A    between atoms: C_18  and  C_23
REMARK   10  A    between atoms: C_20  and  C_22
REMARK   11  A    between atoms: C_24  and  C_29
REMARK   12  A    between atoms: C_24  and  C_30
REMARK                            x       y       z     vdW  Elec       q    Type
REMARK                         _______ _______ _______ _____ _____    ______ ____
ROOT
ATOM      2  O   UNL     1      -5.840   0.684  24.954  0.00  0.00    -0.271 OA
ATOM      6  N   UNL     1      -4.030   1.111  23.571  0.00  0.00    -0.285 N 
ATOM     12  C   UNL     1      -2.094   1.101  22.186  0.00  0.00    +0.094 C 
ATOM     13  C   UNL     1      -3.796  -0.278  23.202  0.00  0.00    +0.164 C 
ATOM     14  C   UNL     1      -2.848  -0.219  22.006  0.00  0.00    +0.056 C 
ATOM     15  C   UNL     1      -3.119   2.010  22.857  0.00  0.00    +0.131 C 
ATOM     17  C   UNL     1      -5.099   1.476  24.372  0.00  0.00    +0.240 C 
ENDROOT
BRANCH  12   7
ATOM      3  O   UNL     1       0.477   0.203  21.299  0.00  0.00    -0.253 OA
ATOM      7  N   UNL     1      -0.912   0.937  22.996  0.00  0.00    -0.295 N 
ATOM      9  N   UNL     1       1.272   0.429  23.496  0.00  0.00    -0.269 N 
ATOM     19  C   UNL     1       0.312   0.491  22.481  0.00  0.00    +0.304 C 
ATOM     41  H   UNL     1      -0.986   1.090  23.996  0.00  0.00    +0.151 HD
ATOM     43  H   UNL     1       0.969   0.702  24.428  0.00  0.00    +0.156 HD
BRANCH   9  28
ATOM     28  C   UNL     1       2.625   0.031  23.388  0.00  0.00    +0.035 A 
ATOM     35  C   UNL     1       3.578   0.925  22.901  0.00  0.00    +0.027 A 
ATOM     36  C   UNL     1       3.006  -1.255  23.772  0.00  0.00    +0.027 A 
ATOM     37  C   UNL     1       4.913   0.532  22.797  0.00  0.00    +0.047 A 
ATOM     38  C   UNL     1       4.340  -1.648  23.667  0.00  0.00    +0.047 A 
ATOM     39  C   UNL     1       5.294  -0.754  23.179  0.00  0.00    +0.120 A 
BRANCH  39   5
ATOM      5  O   UNL     1       6.596  -1.136  23.079  0.00  0.00    -0.495 OA
ATOM     40  C   UNL     1       7.583  -0.110  23.178  0.00  0.00    +0.277 C 
ENDBRANCH  39   5
ENDBRANCH   9  28
ENDBRANCH  12   7
BRANCH  13  16
ATOM      1  O   UNL     1      -3.481  -2.140  24.663  0.00  0.00    -0.274 OA
ATOM      8  N   UNL     1      -2.255  -0.195  25.034  0.00  0.00    -0.302 N 
ATOM     16  C   UNL     1      -3.171  -0.989  24.364  0.00  0.00    +0.234 C 
ATOM     42  H   UNL     1      -2.014   0.711  24.644  0.00  0.00    +0.150 HD
BRANCH   8  18
ATOM     18  C   UNL     1      -1.531  -0.638  26.204  0.00  0.00    +0.163 C 
BRANCH  18  23
ATOM      4  O   UNL     1      -0.207  -1.808  24.535  0.00  0.00    -0.274 OA
ATOM     11  N   UNL     1       0.433  -1.941  26.737  0.00  0.00    -0.328 N 
ATOM     23  C   UNL     1      -0.395  -1.527  25.716  0.00  0.00    +0.231 C 
ATOM     45  H   UNL     1       1.239  -2.529  26.547  0.00  0.00    +0.145 HD
ATOM     46  H   UNL     1       0.278  -1.680  27.705  0.00  0.00    +0.145 HD
ENDBRANCH  18  23
BRANCH  18  20
ATOM     20  C   UNL     1      -0.981   0.534  27.025  0.00  0.00    +0.069 C 
BRANCH  20  22
ATOM     10  N   UNL     1       0.605   3.000  24.809  0.00  0.00    -0.360 N 
ATOM     22  C   UNL     1      -0.563   1.702  26.178  0.00  0.00    -0.020 A 
ATOM     25  C   UNL     1      -1.279   2.918  25.999  0.00  0.00    +0.003 A 
ATOM     26  C   UNL     1       0.590   1.782  25.433  0.00  0.00    +0.087 A 
ATOM     27  C   UNL     1      -0.525   3.715  25.136  0.00  0.00    +0.047 A 
ATOM     31  C   UNL     1      -2.501   3.420  26.491  0.00  0.00    +0.010 A 
ATOM     32  C   UNL     1      -0.932   4.993  24.737  0.00  0.00    +0.026 A 
ATOM     33  C   UNL     1      -2.922   4.696  26.101  0.00  0.00    +0.001 A 
ATOM     34  C   UNL     1      -2.148   5.469  25.238  0.00  0.00    +0.002 A 
ATOM     44  H   UNL     1       1.339   3.328  24.197  0.00  0.00    +0.165 HD
ENDBRANCH  20  22
ENDBRANCH  18  20
ENDBRANCH   8  18
ENDBRANCH  13  16
BRANCH  17  21
ATOM     21  C   UNL     1      -5.349   2.922  24.529  0.00  0.00    +0.066 C 
ATOM     24  C   UNL     1      -5.890   3.493  25.618  0.00  0.00    -0.071 C 
ATOM     29  C   UNL     1      -6.286   2.636  26.793  0.00  0.00    +0.039 C 
ATOM     30  C   UNL     1      -6.160   4.959  25.815  0.00  0.00    +0.039 C 
ENDBRANCH  17  21
TORSDOF 9
ENDMDL
MODEL 4
REMARK VINA RESULT:       7.6      1.091      1.291
REMARK  Name = 11882035
REMARK  12 active torsions:
REMARK  status: ('A' for Active; 'I' for Inactive)
REMARK    1  A    between atoms: O_5  and  C_39
REMARK    2  A    between atoms: O_5  and  C_40
REMARK    3  A    between atoms: N_7  and  C_12
REMARK    4  A    between atoms: N_8  and  C_18
REMARK    5  A    between atoms: N_9  and  C_28
REMARK    6  A    between atoms: C_13  and  C_16
REMARK    7  A    between atoms: C_17  and  C_21
REMARK    8  A    between atoms: C_18  and  C_20
REMARK    9  A    between atoms: C_18  and  C_23
REMARK   10  A    between atoms: C_20  and  C_22
REMARK   11  A    between atoms: C_24  and  C_29
REMARK   12  A    between atoms: C_24  and  C_30
REMARK                            x       y       z     vdW  Elec       q    Type
REMARK                         _______ _______ _______ _____ _____    ______ ____
ROOT
ATOM      2  O   UNL     1      -4.302   1.504  26.426  0.00  0.00    -0.271 OA
ATOM      6  N   UNL     1      -3.278  -0.196  25.229  0.00  0.00    -0.285 N 
ATOM     12  C   UNL     1      -1.879  -1.877  24.287  0.00  0.00    +0.094 C 
ATOM     13  C   UNL     1      -2.237  -0.462  26.211  0.00  0.00    +0.164 C 
ATOM     14  C   UNL     1      -1.627  -1.799  25.796  0.00  0.00    +0.056 C 
ATOM     15  C   UNL     1      -3.200  -1.136  24.107  0.00  0.00    +0.131 C 
ATOM     17  C   UNL     1      -4.278   0.732  25.467  0.00  0.00    +0.240 C 
ENDROOT
BRANCH  12   7
ATOM      3  O   UNL     1       0.885  -1.749  25.027  0.00  0.00    -0.253 OA
ATOM      7  N   UNL     1      -0.813  -1.263  23.535  0.00  0.00    -0.295 N 
ATOM      9  N   UNL     1       1.324  -0.582  23.037  0.00  0.00    -0.269 N 
ATOM     19  C   UNL     1       0.518  -1.244  23.969  0.00  0.00    +0.304 C 
ATOM     41  H   UNL     1      -1.047  -0.767  22.681  0.00  0.00    +0.151 HD
ATOM     43  H   UNL     1       0.859  -0.219  22.209  0.00  0.00    +0.156 HD
BRANCH   9  28
ATOM     28  C   UNL     1       2.718  -0.352  23.104  0.00  0.00    +0.035 A 
ATOM     35  C   UNL     1       3.249   0.850  22.638  0.00  0.00    +0.027 A 
ATOM     36  C   UNL     1       3.561  -1.327  23.638  0.00  0.00    +0.027 A 
ATOM     37  C   UNL     1       4.624   1.078  22.706  0.00  0.00    +0.047 A 
ATOM     38  C   UNL     1       4.935  -1.100  23.705  0.00  0.00    +0.047 A 
ATOM     39  C   UNL     1       5.467   0.104  23.239  0.00  0.00    +0.120 A 
BRANCH  39   5
ATOM      5  O   UNL     1       6.807   0.327  23.306  0.00  0.00    -0.495 OA
ATOM     40  C   UNL     1       7.662  -0.699  22.804  0.00  0.00    +0.277 C 
ENDBRANCH  39   5
ENDBRANCH   9  28
ENDBRANCH  12   7
BRANCH  13  16
ATOM      1  O   UNL     1      -0.245   0.589  25.421  0.00  0.00    -0.274 OA
ATOM      8  N   UNL     1      -1.531   1.675  27.029  0.00  0.00    -0.302 N 
ATOM     16  C   UNL     1      -1.226   0.643  26.157  0.00  0.00    +0.234 C 
ATOM     42  H   UNL     1      -2.416   1.652  27.526  0.00  0.00    +0.150 HD
BRANCH   8  18
ATOM     18  C   UNL     1      -0.702   2.849  27.184  0.00  0.00    +0.163 C 
BRANCH  18  23
ATOM      4  O   UNL     1       0.787   2.036  28.924  0.00  0.00    -0.274 OA
ATOM     11  N   UNL     1       1.632   2.344  26.810  0.00  0.00    -0.328 N 
ATOM     23  C   UNL     1       0.630   2.384  27.756  0.00  0.00    +0.231 C 
ATOM     45  H   UNL     1       2.568   2.039  27.056  0.00  0.00    +0.145 HD
ATOM     46  H   UNL     1       1.480   2.612  25.843  0.00  0.00    +0.145 HD
ENDBRANCH  18  23
BRANCH  18  20
ATOM     20  C   UNL     1      -0.488   3.588  25.858  0.00  0.00    +0.069 C 
BRANCH  20  22
ATOM     10  N   UNL     1      -3.753   4.606  24.511  0.00  0.00    -0.360 N 
ATOM     22  C   UNL     1      -1.763   3.818  25.098  0.00  0.00    -0.020 A 
ATOM     25  C   UNL     1      -2.154   3.182  23.886  0.00  0.00    +0.003 A 
ATOM     26  C   UNL     1      -2.766   4.688  25.456  0.00  0.00    +0.087 A 
ATOM     27  C   UNL     1      -3.405   3.695  23.539  0.00  0.00    +0.047 A 
ATOM     31  C   UNL     1      -1.561   2.217  23.048  0.00  0.00    +0.010 A 
ATOM     32  C   UNL     1      -4.097   3.290  22.392  0.00  0.00    +0.026 A 
ATOM     33  C   UNL     1      -2.240   1.802  21.897  0.00  0.00    +0.001 A 
ATOM     34  C   UNL     1      -3.488   2.331  21.576  0.00  0.00    +0.002 A 
ATOM     44  H   UNL     1      -4.613   5.137  24.524  0.00  0.00    +0.165 HD
ENDBRANCH  20  22
ENDBRANCH  18  20
ENDBRANCH   8  18
ENDBRANCH  13  16
BRANCH  17  21
ATOM     21  C   UNL     1      -5.381   0.787  24.488  0.00  0.00    +0.066 C 
ATOM     24  C   UNL     1      -6.453   1.592  24.585  0.00  0.00    -0.071 C 
ATOM     29  C   UNL     1      -6.582   2.526  25.761  0.00  0.00    +0.039 C 
ATOM     30  C   UNL     1      -7.596   1.676  23.611  0.00  0.00    +0.039 C 
ENDBRANCH  17  21
TORSDOF 9
ENDMDL
MODEL 5
REMARK VINA RESULT:       8.8      1.998      4.700
REMARK  Name = 11882035
REMARK  12 active torsions:
REMARK  status: ('A' for Active; 'I' for Inactive)
REMARK    1  A    between atoms: O_5  and  C_39
REMARK    2  A    between atoms: O_5  and  C_40
REMARK    3  A    between atoms: N_7  and  C_12
REMARK    4  A    between atoms: N_8  and  C_18
REMARK    5  A    between atoms: N_9  and  C_28
REMARK    6  A    between atoms: C_13  and  C_16
REMARK    7  A    between atoms: C_17  and  C_21
REMARK    8  A    between atoms: C_18  and  C_20
REMARK    9  A    between atoms: C_18  and  C_23
REMARK   10  A    between atoms: C_20  and  C_22
REMARK   11  A    between atoms: C_24  and  C_29
REMARK   12  A    between atoms: C_24  and  C_30
REMARK                            x       y       z     vdW  Elec       q    Type
REMARK                         _______ _______ _______ _____ _____    ______ ____
ROOT
ATOM      2  O   UNL     1      -6.309   4.504  25.356  0.00  0.00    -0.271 OA
ATOM      6  N   UNL     1      -4.109   4.084  25.951  0.00  0.00    -0.285 N 
ATOM     12  C   UNL     1      -1.747   3.886  26.183  0.00  0.00    +0.094 C 
ATOM     13  C   UNL     1      -3.523   5.079  25.063  0.00  0.00    +0.164 C 
ATOM     14  C   UNL     1      -2.078   5.232  25.532  0.00  0.00    +0.056 C 
ATOM     15  C   UNL     1      -3.081   3.437  26.772  0.00  0.00    +0.131 C 
ATOM     17  C   UNL     1      -5.480   3.938  26.070  0.00  0.00    +0.240 C 
ENDROOT
BRANCH  12   7
ATOM      3  O   UNL     1       0.954   2.961  25.962  0.00  0.00    -0.253 OA
ATOM      7  N   UNL     1      -1.237   2.938  25.224  0.00  0.00    -0.295 N 
ATOM      9  N   UNL     1       0.303   1.613  24.152  0.00  0.00    -0.269 N 
ATOM     19  C   UNL     1       0.104   2.536  25.183  0.00  0.00    +0.304 C 
ATOM     41  H   UNL     1      -1.864   2.593  24.504  0.00  0.00    +0.151 HD
ATOM     43  H   UNL     1      -0.511   1.369  23.595  0.00  0.00    +0.156 HD
BRANCH   9  28
ATOM     28  C   UNL     1       1.509   0.971  23.784  0.00  0.00    +0.035 A 
ATOM     35  C   UNL     1       1.588  -0.421  23.792  0.00  0.00    +0.027 A 
ATOM     36  C   UNL     1       2.617   1.731  23.409  0.00  0.00    +0.027 A 
ATOM     37  C   UNL     1       2.776  -1.054  23.426  0.00  0.00    +0.047 A 
ATOM     38  C   UNL     1       3.805   1.099  23.044  0.00  0.00    +0.047 A 
ATOM     39  C   UNL     1       3.885  -0.295  23.053  0.00  0.00    +0.120 A 
BRANCH  39   5
ATOM      5  O   UNL     1       5.043  -0.912  22.694  0.00  0.00    -0.495 OA
ATOM     40  C   UNL     1       6.261  -0.305  23.120  0.00  0.00    +0.277 C 
ENDBRANCH  39   5
ENDBRANCH   9  28
ENDBRANCH  12   7
BRANCH  13  16
ATOM      1  O   UNL     1      -3.673   5.334  22.694  0.00  0.00    -0.274 OA
ATOM      8  N   UNL     1      -3.580   3.188  23.594  0.00  0.00    -0.302 N 
ATOM     16  C   UNL     1      -3.594   4.572  23.654  0.00  0.00    +0.234 C 
ATOM     42  H   UNL     1      -3.423   2.662  24.448  0.00  0.00    +0.150 HD
BRANCH   8  18
ATOM     18  C   UNL     1      -3.661   2.450  22.354  0.00  0.00    +0.163 C 
BRANCH  18  23
ATOM      4  O   UNL     1      -1.277   2.925  22.297  0.00  0.00    -0.274 OA
ATOM     11  N   UNL     1      -2.170   1.586  20.658  0.00  0.00    -0.328 N 
ATOM     23  C   UNL     1      -2.250   2.378  21.784  0.00  0.00    +0.231 C 
ATOM     45  H   UNL     1      -1.283   1.442  20.186  0.00  0.00    +0.145 HD
ATOM     46  H   UNL     1      -2.979   1.120  20.260  0.00  0.00    +0.145 HD
ENDBRANCH  18  23
BRANCH  18  20
ATOM     20  C   UNL     1      -4.232   1.042  22.552  0.00  0.00    +0.069 C 
BRANCH  20  22
ATOM     10  N   UNL     1      -2.629  -0.041  25.677  0.00  0.00    -0.360 N 
ATOM     22  C   UNL     1      -3.663   0.338  23.750  0.00  0.00    -0.020 A 
ATOM     25  C   UNL     1      -3.726  -1.058  24.023  0.00  0.00    +0.003 A 
ATOM     26  C   UNL     1      -2.983   0.936  24.786  0.00  0.00    +0.087 A 
ATOM     27  C   UNL     1      -3.070  -1.269  25.237  0.00  0.00    +0.047 A 
ATOM     31  C   UNL     1      -4.279  -2.165  23.350  0.00  0.00    +0.010 A 
ATOM     32  C   UNL     1      -2.940  -2.536  25.816  0.00  0.00    +0.026 A 
ATOM     33  C   UNL     1      -4.158  -3.439  23.917  0.00  0.00    +0.001 A 
ATOM     34  C   UNL     1      -3.497  -3.620  25.130  0.00  0.00    +0.002 A 
ATOM     44  H   UNL     1      -2.116   0.115  26.534  0.00  0.00    +0.165 HD
ENDBRANCH  20  22
ENDBRANCH  18  20
ENDBRANCH   8  18
ENDBRANCH  13  16
BRANCH  17  21
ATOM     21  C   UNL     1      -5.963   3.033  27.131  0.00  0.00    +0.066 C 
ATOM     24  C   UNL     1      -6.404   1.780  26.928  0.00  0.00    -0.071 C 
ATOM     29  C   UNL     1      -6.426   1.212  25.532  0.00  0.00    +0.039 C 
ATOM     30  C   UNL     1      -6.904   0.830  27.981  0.00  0.00    +0.039 C 
ENDBRANCH  17  21
TORSDOF 9
ENDMDL
MODEL 6
REMARK VINA RESULT:       9.3      2.663      5.704
REMARK  Name = 11882035
REMARK  12 active torsions:
REMARK  status: ('A' for Active; 'I' for Inactive)
REMARK    1  A    between atoms: O_5  and  C_39
REMARK    2  A    between atoms: O_5  and  C_40
REMARK    3  A    between atoms: N_7  and  C_12
REMARK    4  A    between atoms: N_8  and  C_18
REMARK    5  A    between atoms: N_9  and  C_28
REMARK    6  A    between atoms: C_13  and  C_16
REMARK    7  A    between atoms: C_17  and  C_21
REMARK    8  A    between atoms: C_18  and  C_20
REMARK    9  A    between atoms: C_18  and  C_23
REMARK   10  A    between atoms: C_20  and  C_22
REMARK   11  A    between atoms: C_24  and  C_29
REMARK   12  A    between atoms: C_24  and  C_30
REMARK                            x       y       z     vdW  Elec       q    Type
REMARK                         _______ _______ _______ _____ _____    ______ ____
ROOT
ATOM      2  O   UNL     1      -3.284  -0.104  23.398  0.00  0.00    -0.271 OA
ATOM      6  N   UNL     1      -2.664   2.076  23.884  0.00  0.00    -0.285 N 
ATOM     12  C   UNL     1      -1.666   4.225  24.117  0.00  0.00    +0.094 C 
ATOM     13  C   UNL     1      -1.680   2.191  22.816  0.00  0.00    +0.164 C 
ATOM     14  C   UNL     1      -1.372   3.683  22.715  0.00  0.00    +0.056 C 
ATOM     15  C   UNL     1      -2.808   3.341  24.610  0.00  0.00    +0.131 C 
ATOM     17  C   UNL     1      -3.442   0.940  24.032  0.00  0.00    +0.240 C 
ENDROOT
BRANCH  12   7
ATOM      3  O   UNL     1      -1.531   2.950  26.677  0.00  0.00    -0.253 OA
ATOM      7  N   UNL     1      -0.512   4.140  24.977  0.00  0.00    -0.295 N 
ATOM      9  N   UNL     1       0.728   3.575  26.826  0.00  0.00    -0.269 N 
ATOM     19  C   UNL     1      -0.530   3.495  26.220  0.00  0.00    +0.304 C 
ATOM     41  H   UNL     1       0.335   4.625  24.698  0.00  0.00    +0.151 HD
ATOM     43  H   UNL     1       1.453   4.066  26.310  0.00  0.00    +0.156 HD
BRANCH   9  28
ATOM     28  C   UNL     1       1.121   3.051  28.080  0.00  0.00    +0.035 A 
ATOM     35  C   UNL     1       2.452   2.698  28.301  0.00  0.00    +0.027 A 
ATOM     36  C   UNL     1       0.178   2.889  29.095  0.00  0.00    +0.027 A 
ATOM     37  C   UNL     1       2.841   2.184  29.539  0.00  0.00    +0.047 A 
ATOM     38  C   UNL     1       0.566   2.375  30.331  0.00  0.00    +0.047 A 
ATOM     39  C   UNL     1       1.898   2.022  30.553  0.00  0.00    +0.120 A 
BRANCH  39   5
ATOM      5  O   UNL     1       2.277   1.522  31.761  0.00  0.00    -0.495 OA
ATOM     40  C   UNL     1       1.364   1.680  32.845  0.00  0.00    +0.277 C 
ENDBRANCH  39   5
ENDBRANCH   9  28
ENDBRANCH  12   7
BRANCH  13  16
ATOM      1  O   UNL     1       0.376   1.839  23.977  0.00  0.00    -0.274 OA
ATOM      8  N   UNL     1      -0.408   0.180  22.544  0.00  0.00    -0.302 N 
ATOM     16  C   UNL     1      -0.462   1.402  23.192  0.00  0.00    +0.234 C 
ATOM     42  H   UNL     1      -1.203  -0.114  21.984  0.00  0.00    +0.150 HD
BRANCH   8  18
ATOM     18  C   UNL     1       0.677  -0.759  22.717  0.00  0.00    +0.163 C 
BRANCH  18  23
ATOM      4  O   UNL     1       2.188  -0.184  20.903  0.00  0.00    -0.274 OA
ATOM     11  N   UNL     1       2.679   0.561  23.019  0.00  0.00    -0.328 N 
ATOM     23  C   UNL     1       1.917  -0.128  22.100  0.00  0.00    +0.231 C 
ATOM     45  H   UNL     1       3.527   1.041  22.736  0.00  0.00    +0.145 HD
ATOM     46  H   UNL     1       2.429   0.619  24.001  0.00  0.00    +0.145 HD
ENDBRANCH  18  23
BRANCH  18  20
ATOM     20  C   UNL     1       0.924  -1.096  24.193  0.00  0.00    +0.069 C 
BRANCH  20  22
ATOM     10  N   UNL     1      -1.867  -0.866  26.573  0.00  0.00    -0.360 N 
ATOM     22  C   UNL     1      -0.341  -1.195  24.995  0.00  0.00    -0.020 A 
ATOM     25  C   UNL     1      -1.466  -2.019  24.707  0.00  0.00    +0.003 A 
ATOM     26  C   UNL     1      -0.619  -0.497  26.148  0.00  0.00    +0.087 A 
ATOM     27  C   UNL     1      -2.408  -1.793  25.712  0.00  0.00    +0.047 A 
ATOM     31  C   UNL     1      -1.772  -2.939  23.685  0.00  0.00    +0.010 A 
ATOM     32  C   UNL     1      -3.647  -2.442  25.746  0.00  0.00    +0.026 A 
ATOM     33  C   UNL     1      -3.008  -3.596  23.705  0.00  0.00    +0.001 A 
ATOM     34  C   UNL     1      -3.929  -3.351  24.721  0.00  0.00    +0.002 A 
ATOM     44  H   UNL     1      -2.325  -0.509  27.400  0.00  0.00    +0.165 HD
ENDBRANCH  20  22
ENDBRANCH  18  20
ENDBRANCH   8  18
ENDBRANCH  13  16
BRANCH  17  21
ATOM     21  C   UNL     1      -4.530   1.004  25.026  0.00  0.00    +0.066 C 
ATOM     24  C   UNL     1      -5.442   1.989  25.103  0.00  0.00    -0.071 C 
ATOM     29  C   UNL     1      -5.391   3.132  24.122  0.00  0.00    +0.039 C 
ATOM     30  C   UNL     1      -6.563   2.090  26.100  0.00  0.00    +0.039 C 
ENDBRANCH  17  21
TORSDOF 9
ENDMDL
MODEL 7
REMARK VINA RESULT:       9.4      1.952      4.660
REMARK  Name = 11882035
REMARK  12 active torsions:
REMARK  status: ('A' for Active; 'I' for Inactive)
REMARK    1  A    between atoms: O_5  and  C_39
REMARK    2  A    between atoms: O_5  and  C_40
REMARK    3  A    between atoms: N_7  and  C_12
REMARK    4  A    between atoms: N_8  and  C_18
REMARK    5  A    between atoms: N_9  and  C_28
REMARK    6  A    between atoms: C_13  and  C_16
REMARK    7  A    between atoms: C_17  and  C_21
REMARK    8  A    between atoms: C_18  and  C_20
REMARK    9  A    between atoms: C_18  and  C_23
REMARK   10  A    between atoms: C_20  and  C_22
REMARK   11  A    between atoms: C_24  and  C_29
REMARK   12  A    between atoms: C_24  and  C_30
REMARK                            x       y       z     vdW  Elec       q    Type
REMARK                         _______ _______ _______ _____ _____    ______ ____
ROOT
ATOM      2  O   UNL     1      -3.288   4.299  26.945  0.00  0.00    -0.271 OA
ATOM      6  N   UNL     1      -3.685   3.339  24.874  0.00  0.00    -0.285 N 
ATOM     12  C   UNL     1      -4.154   1.969  22.984  0.00  0.00    +0.094 C 
ATOM     13  C   UNL     1      -4.297   2.122  25.390  0.00  0.00    +0.164 C 
ATOM     14  C   UNL     1      -4.964   1.468  24.183  0.00  0.00    +0.056 C 
ATOM     15  C   UNL     1      -3.715   3.367  23.409  0.00  0.00    +0.131 C 
ATOM     17  C   UNL     1      -3.297   4.367  25.716  0.00  0.00    +0.240 C 
ENDROOT
BRANCH  12   7
ATOM      3  O   UNL     1      -1.385   2.642  23.270  0.00  0.00    -0.253 OA
ATOM      7  N   UNL     1      -3.026   1.114  22.706  0.00  0.00    -0.295 N 
ATOM      9  N   UNL     1      -0.824   0.488  22.525  0.00  0.00    -0.269 N 
ATOM     19  C   UNL     1      -1.697   1.523  22.873  0.00  0.00    +0.304 C 
ATOM     41  H   UNL     1      -3.201   0.196  22.310  0.00  0.00    +0.151 HD
ATOM     43  H   UNL     1      -1.248  -0.382  22.212  0.00  0.00    +0.156 HD
BRANCH   9  28
ATOM     28  C   UNL     1       0.591   0.499  22.555  0.00  0.00    +0.035 A 
ATOM     35  C   UNL     1       1.262   1.309  23.471  0.00  0.00    +0.027 A 
ATOM     36  C   UNL     1       1.313  -0.303  21.671  0.00  0.00    +0.027 A 
ATOM     37  C   UNL     1       2.657   1.318  23.502  0.00  0.00    +0.047 A 
ATOM     38  C   UNL     1       2.707  -0.293  21.702  0.00  0.00    +0.047 A 
ATOM     39  C   UNL     1       3.380   0.518  22.617  0.00  0.00    +0.120 A 
BRANCH  39   5
ATOM      5  O   UNL     1       4.740   0.525  22.649  0.00  0.00    -0.495 OA
ATOM     40  C   UNL     1       5.367  -0.100  23.768  0.00  0.00    +0.277 C 
ENDBRANCH  39   5
ENDBRANCH   9  28
ENDBRANCH  12   7
BRANCH  13  16
ATOM      1  O   UNL     1      -3.488   0.244  26.622  0.00  0.00    -0.274 OA
ATOM      8  N   UNL     1      -1.954   1.723  25.685  0.00  0.00    -0.302 N 
ATOM     16  C   UNL     1      -3.224   1.248  25.966  0.00  0.00    +0.234 C 
ATOM     42  H   UNL     1      -1.854   2.516  25.058  0.00  0.00    +0.150 HD
BRANCH   8  18
ATOM     18  C   UNL     1      -0.747   1.074  26.146  0.00  0.00    +0.163 C 
BRANCH  18  23
ATOM      4  O   UNL     1      -0.631   2.317  28.232  0.00  0.00    -0.274 OA
ATOM     11  N   UNL     1       1.160   2.410  26.797  0.00  0.00    -0.328 N 
ATOM     23  C   UNL     1      -0.104   2.002  27.168  0.00  0.00    +0.231 C 
ATOM     45  H   UNL     1       1.706   3.021  27.396  0.00  0.00    +0.145 HD
ATOM     46  H   UNL     1       1.592   2.121  25.926  0.00  0.00    +0.145 HD
ENDBRANCH  18  23
BRANCH  18  20
ATOM     20  C   UNL     1      -1.027  -0.299  26.769  0.00  0.00    +0.069 C 
BRANCH  20  22
ATOM     10  N   UNL     1      -0.418  -3.055  24.415  0.00  0.00    -0.360 N 
ATOM     22  C   UNL     1      -1.060  -1.409  25.758  0.00  0.00    -0.020 A 
ATOM     25  C   UNL     1      -2.205  -1.889  25.062  0.00  0.00    +0.003 A 
ATOM     26  C   UNL     1       0.023  -2.146  25.339  0.00  0.00    +0.087 A 
ATOM     27  C   UNL     1      -1.774  -2.921  24.227  0.00  0.00    +0.047 A 
ATOM     31  C   UNL     1      -3.571  -1.542  25.063  0.00  0.00    +0.010 A 
ATOM     32  C   UNL     1      -2.644  -3.628  23.389  0.00  0.00    +0.026 A 
ATOM     33  C   UNL     1      -4.453  -2.240  24.230  0.00  0.00    +0.001 A 
ATOM     34  C   UNL     1      -3.995  -3.267  23.407  0.00  0.00    +0.002 A 
ATOM     44  H   UNL     1       0.168  -3.727  23.939  0.00  0.00    +0.165 HD
ENDBRANCH  20  22
ENDBRANCH  18  20
ENDBRANCH   8  18
ENDBRANCH  13  16
BRANCH  17  21
ATOM     21  C   UNL     1      -2.863   5.624  25.076  0.00  0.00    +0.066 C 
ATOM     24  C   UNL     1      -1.604   5.894  24.692  0.00  0.00    -0.071 C 
ATOM     29  C   UNL     1      -0.520   4.870  24.911  0.00  0.00    +0.039 C 
ATOM     30  C   UNL     1      -1.123   7.160  24.038  0.00  0.00    +0.039 C 
ENDBRANCH  17  21
TORSDOF 9
ENDMDL
MODEL 8
REMARK VINA RESULT:       9.4      3.088      5.770
REMARK  Name = 11882035
REMARK  12 active torsions:
REMARK  status: ('A' for Active; 'I' for Inactive)
REMARK    1  A    between atoms: O_5  and  C_39
REMARK    2  A    between atoms: O_5  and  C_40
REMARK    3  A    between atoms: N_7  and  C_12
REMARK    4  A    between atoms: N_8  and  C_18
REMARK    5  A    between atoms: N_9  and  C_28
REMARK    6  A    between atoms: C_13  and  C_16
REMARK    7  A    between atoms: C_17  and  C_21
REMARK    8  A    between atoms: C_18  and  C_20
REMARK    9  A    between atoms: C_18  and  C_23
REMARK   10  A    between atoms: C_20  and  C_22
REMARK   11  A    between atoms: C_24  and  C_29
REMARK   12  A    between atoms: C_24  and  C_30
REMARK                            x       y       z     vdW  Elec       q    Type
REMARK                         _______ _______ _______ _____ _____    ______ ____
ROOT
ATOM      2  O   UNL     1      -5.744   1.302  23.517  0.00  0.00    -0.271 OA
ATOM      6  N   UNL     1      -4.530   3.140  24.235  0.00  0.00    -0.285 N 
ATOM     12  C   UNL     1      -3.031   4.955  24.597  0.00  0.00    +0.094 C 
ATOM     13  C   UNL     1      -3.848   3.371  22.968  0.00  0.00    +0.164 C 
ATOM     14  C   UNL     1      -3.235   4.763  23.092  0.00  0.00    +0.056 C 
ATOM     15  C   UNL     1      -4.186   4.173  25.217  0.00  0.00    +0.131 C 
ATOM     17  C   UNL     1      -5.489   2.151  24.371  0.00  0.00    +0.240 C 
ENDROOT
BRANCH  12   7
ATOM      3  O   UNL     1      -2.348   4.062  27.231  0.00  0.00    -0.253 OA
ATOM      7  N   UNL     1      -1.751   4.455  25.032  0.00  0.00    -0.295 N 
ATOM      9  N   UNL     1      -0.174   3.605  26.470  0.00  0.00    -0.269 N 
ATOM     19  C   UNL     1      -1.498   4.036  26.345  0.00  0.00    +0.304 C 
ATOM     41  H   UNL     1      -0.978   4.466  24.374  0.00  0.00    +0.151 HD
ATOM     43  H   UNL     1       0.402   3.651  25.634  0.00  0.00    +0.156 HD
BRANCH   9  28
ATOM     28  C   UNL     1       0.470   3.108  27.627  0.00  0.00    +0.035 A 
ATOM     35  C   UNL     1       1.858   2.968  27.647  0.00  0.00    +0.027 A 
ATOM     36  C   UNL     1      -0.282   2.760  28.749  0.00  0.00    +0.027 A 
ATOM     37  C   UNL     1       2.493   2.480  28.789  0.00  0.00    +0.047 A 
ATOM     38  C   UNL     1       0.353   2.272  29.891  0.00  0.00    +0.047 A 
ATOM     39  C   UNL     1       1.742   2.131  29.910  0.00  0.00    +0.120 A 
BRANCH  39   5
ATOM      5  O   UNL     1       2.362   1.657  31.025  0.00  0.00    -0.495 OA
ATOM     40  C   UNL     1       1.624   1.697  32.245  0.00  0.00    +0.277 C 
ENDBRANCH  39   5
ENDBRANCH   9  28
ENDBRANCH  12   7
BRANCH  13  16
ATOM      1  O   UNL     1      -2.771   1.588  21.801  0.00  0.00    -0.274 OA
ATOM      8  N   UNL     1      -1.907   2.279  23.850  0.00  0.00    -0.302 N 
ATOM     16  C   UNL     1      -2.795   2.320  22.788  0.00  0.00    +0.234 C 
ATOM     42  H   UNL     1      -1.971   2.992  24.570  0.00  0.00    +0.150 HD
BRANCH   8  18
ATOM     18  C   UNL     1      -0.812   1.340  23.929  0.00  0.00    +0.163 C 
BRANCH  18  23
ATOM      4  O   UNL     1       0.518   3.363  23.715  0.00  0.00    -0.274 OA
ATOM     11  N   UNL     1       1.592   1.333  23.679  0.00  0.00    -0.328 N 
ATOM     23  C   UNL     1       0.474   2.135  23.748  0.00  0.00    +0.231 C 
ATOM     45  H   UNL     1       2.517   1.737  23.572  0.00  0.00    +0.145 HD
ATOM     46  H   UNL     1       1.542   0.320  23.732  0.00  0.00    +0.145 HD
ENDBRANCH  18  23
BRANCH  18  20
ATOM     20  C   UNL     1      -0.791   0.583  25.262  0.00  0.00    +0.069 C 
BRANCH  20  22
ATOM     10  N   UNL     1      -0.930  -3.089  25.163  0.00  0.00    -0.360 N 
ATOM     22  C   UNL     1      -1.111  -0.877  25.116  0.00  0.00    -0.020 A 
ATOM     25  C   UNL     1      -2.323  -1.434  24.621  0.00  0.00    +0.003 A 
ATOM     26  C   UNL     1      -0.275  -1.920  25.442  0.00  0.00    +0.087 A 
ATOM     27  C   UNL     1      -2.183  -2.823  24.661  0.00  0.00    +0.047 A 
ATOM     31  C   UNL     1      -3.530  -0.888  24.140  0.00  0.00    +0.010 A 
ATOM     32  C   UNL     1      -3.193  -3.697  24.243  0.00  0.00    +0.026 A 
ATOM     33  C   UNL     1      -4.549  -1.749  23.719  0.00  0.00    +0.001 A 
ATOM     34  C   UNL     1      -4.382  -3.132  23.770  0.00  0.00    +0.002 A 
ATOM     44  H   UNL     1      -0.548  -4.014  25.304  0.00  0.00    +0.165 HD
ENDBRANCH  20  22
ENDBRANCH  18  20
ENDBRANCH   8  18
ENDBRANCH  13  16
BRANCH  17  21
ATOM     21  C   UNL     1      -6.245   2.128  25.638  0.00  0.00    +0.066 C 
ATOM     24  C   UNL     1      -6.060   1.236  26.626  0.00  0.00    -0.071 C 
ATOM     29  C   UNL     1      -5.014   0.161  26.475  0.00  0.00    +0.039 C 
ATOM     30  C   UNL     1      -6.809   1.180  27.929  0.00  0.00    +0.039 C 
ENDBRANCH  17  21
TORSDOF 9
ENDMDL
MODEL 9
REMARK VINA RESULT:      10.5      1.968      4.445
REMARK  Name = 11882035
REMARK  12 active torsions:
REMARK  status: ('A' for Active; 'I' for Inactive)
REMARK    1  A    between atoms: O_5  and  C_39
REMARK    2  A    between atoms: O_5  and  C_40
REMARK    3  A    between atoms: N_7  and  C_12
REMARK    4  A    between atoms: N_8  and  C_18
REMARK    5  A    between atoms: N_9  and  C_28
REMARK    6  A    between atoms: C_13  and  C_16
REMARK    7  A    between atoms: C_17  and  C_21
REMARK    8  A    between atoms: C_18  and  C_20
REMARK    9  A    between atoms: C_18  and  C_23
REMARK   10  A    between atoms: C_20  and  C_22
REMARK   11  A    between atoms: C_24  and  C_29
REMARK   12  A    between atoms: C_24  and  C_30
REMARK                            x       y       z     vdW  Elec       q    Type
REMARK                         _______ _______ _______ _____ _____    ______ ____
ROOT
ATOM      2  O   UNL     1      -4.294   2.413  26.396  0.00  0.00    -0.271 OA
ATOM      6  N   UNL     1      -3.168   2.242  24.378  0.00  0.00    -0.285 N 
ATOM     12  C   UNL     1      -2.203   1.652  22.283  0.00  0.00    +0.094 C 
ATOM     13  C   UNL     1      -3.929   1.104  23.880  0.00  0.00    +0.164 C 
ATOM     14  C   UNL     1      -3.592   1.018  22.394  0.00  0.00    +0.056 C 
ATOM     15  C   UNL     1      -2.207   2.715  23.378  0.00  0.00    +0.131 C 
ATOM     17  C   UNL     1      -3.478   2.848  25.584  0.00  0.00    +0.240 C 
ENDROOT
BRANCH  12   7
ATOM      3  O   UNL     1       0.557   2.201  22.813  0.00  0.00    -0.253 OA
ATOM      7  N   UNL     1      -1.155   0.683  22.480  0.00  0.00    -0.295 N 
ATOM      9  N   UNL     1       0.963  -0.110  22.882  0.00  0.00    -0.269 N 
ATOM     19  C   UNL     1       0.176   1.036  22.736  0.00  0.00    +0.304 C 
ATOM     41  H   UNL     1      -1.377  -0.301  22.366  0.00  0.00    +0.151 HD
ATOM     43  H   UNL     1       0.490  -1.005  22.787  0.00  0.00    +0.156 HD
BRANCH   9  28
ATOM     28  C   UNL     1       2.351  -0.182  23.148  0.00  0.00    +0.035 A 
ATOM     35  C   UNL     1       2.905  -1.359  23.650  0.00  0.00    +0.027 A 
ATOM     36  C   UNL     1       3.165   0.925  22.906  0.00  0.00    +0.027 A 
ATOM     37  C   UNL     1       4.274  -1.430  23.910  0.00  0.00    +0.047 A 
ATOM     38  C   UNL     1       4.533   0.854  23.166  0.00  0.00    +0.047 A 
ATOM     39  C   UNL     1       5.088  -0.324  23.669  0.00  0.00    +0.120 A 
BRANCH  39   5
ATOM      5  O   UNL     1       6.423  -0.394  23.921  0.00  0.00    -0.495 OA
ATOM     40  C   UNL     1       7.279  -0.670  22.814  0.00  0.00    +0.277 C 
ENDBRANCH  39   5
ENDBRANCH   9  28
ENDBRANCH  12   7
BRANCH  13  16
ATOM      1  O   UNL     1      -4.127  -1.179  24.550  0.00  0.00    -0.274 OA
ATOM      8  N   UNL     1      -2.344   0.082  25.357  0.00  0.00    -0.302 N 
ATOM     16  C   UNL     1      -3.494  -0.128  24.615  0.00  0.00    +0.234 C 
ATOM     42  H   UNL     1      -1.856   0.968  25.265  0.00  0.00    +0.150 HD
BRANCH   8  18
ATOM     18  C   UNL     1      -1.731  -0.941  26.173  0.00  0.00    +0.163 C 
BRANCH  18  23
ATOM      4  O   UNL     1      -0.900  -1.852  24.078  0.00  0.00    -0.274 OA
ATOM     11  N   UNL     1       0.369  -2.121  25.974  0.00  0.00    -0.328 N 
ATOM     23  C   UNL     1      -0.745  -1.689  25.286  0.00  0.00    +0.231 C 
ATOM     45  H   UNL     1       1.112  -2.622  25.498  0.00  0.00    +0.145 HD
ATOM     46  H   UNL     1       0.494  -1.958  26.968  0.00  0.00    +0.145 HD
ENDBRANCH  18  23
BRANCH  18  20
ATOM     20  C   UNL     1      -1.016  -0.358  27.397  0.00  0.00    +0.069 C 
BRANCH  20  22
ATOM     10  N   UNL     1       0.600   2.634  26.001  0.00  0.00    -0.360 N 
ATOM     22  C   UNL     1      -0.239   0.889  27.087  0.00  0.00    -0.020 A 
ATOM     25  C   UNL     1       0.613   1.601  27.978  0.00  0.00    +0.003 A 
ATOM     26  C   UNL     1      -0.227   1.549  25.880  0.00  0.00    +0.087 A 
ATOM     27  C   UNL     1       1.126   2.690  27.271  0.00  0.00    +0.047 A 
ATOM     31  C   UNL     1       0.999   1.421  29.321  0.00  0.00    +0.010 A 
ATOM     32  C   UNL     1       2.008   3.614  27.843  0.00  0.00    +0.026 A 
ATOM     33  C   UNL     1       1.880   2.337  29.907  0.00  0.00    +0.001 A 
ATOM     34  C   UNL     1       2.377   3.415  29.178  0.00  0.00    +0.002 A 
ATOM     44  H   UNL     1       0.797   3.296  25.264  0.00  0.00    +0.165 HD
ENDBRANCH  20  22
ENDBRANCH  18  20
ENDBRANCH   8  18
ENDBRANCH  13  16
BRANCH  17  21
ATOM     21  C   UNL     1      -2.765   4.101  25.901  0.00  0.00    +0.066 C 
ATOM     24  C   UNL     1      -2.756   5.196  25.122  0.00  0.00    -0.071 C 
ATOM     29  C   UNL     1      -3.515   5.192  23.819  0.00  0.00    +0.039 C 
ATOM     30  C   UNL     1      -2.044   6.488  25.409  0.00  0.00    +0.039 C 
ENDBRANCH  17  21
TORSDOF 9
ENDMDL
