MODEL 1
REMARK VINA RESULT:       3.9      0.000      0.000
REMARK  Name = 7674734
REMARK  5 active torsions:
REMARK  status: ('A' for Active; 'I' for Inactive)
REMARK    1  A    between atoms: S_1  and  N_10
REMARK    2  A    between atoms: S_1  and  C_23
REMARK    3  A    between atoms: O_9  and  C_32
REMARK    4  A    between atoms: O_9  and  C_33
REMARK    5  A    between atoms: C_21  and  C_24
REMARK                            x       y       z     vdW  Elec       q    Type
REMARK                         _______ _______ _______ _____ _____    ______ ____
ROOT
ATOM      8  O   UNL     1       0.175   2.368  25.702  0.00  0.00    -0.267 OA
ATOM     10  N   UNL     1      -4.789   2.288  25.245  0.00  0.00    -0.175 NA
ATOM     11  N   UNL     1      -1.787   3.090  24.668  0.00  0.00    -0.311 N 
ATOM     12  C   UNL     1      -3.610   4.385  25.918  0.00  0.00    +0.025 C 
ATOM     13  C   UNL     1      -3.901   3.860  23.537  0.00  0.00    +0.052 C 
ATOM     14  C   UNL     1      -3.911   4.995  24.556  0.00  0.00    +0.017 C 
ATOM     15  C   UNL     1      -4.679   3.344  26.292  0.00  0.00    +0.114 C 
ATOM     16  C   UNL     1      -5.010   2.850  23.880  0.00  0.00    +0.119 C 
ATOM     17  C   UNL     1      -2.197   3.789  25.894  0.00  0.00    +0.130 C 
ATOM     18  C   UNL     1      -2.550   3.170  23.501  0.00  0.00    +0.026 A 
ATOM     19  C   UNL     1      -2.099   2.622  22.362  0.00  0.00    +0.022 A 
ATOM     20  C   UNL     1      -0.542   2.430  24.702  0.00  0.00    +0.259 A 
ATOM     21  C   UNL     1      -0.080   1.793  23.419  0.00  0.00    +0.047 A 
ATOM     22  C   UNL     1      -0.849   1.919  22.326  0.00  0.00    +0.015 A 
ENDROOT
BRANCH  21  24
ATOM     24  C   UNL     1       1.183   1.039  23.354  0.00  0.00    -0.012 A 
ATOM     26  C   UNL     1       1.189  -0.336  23.591  0.00  0.00    +0.012 A 
ATOM     27  C   UNL     1       2.376   1.699  23.056  0.00  0.00    +0.012 A 
ATOM     30  C   UNL     1       2.385  -1.050  23.530  0.00  0.00    +0.046 A 
ATOM     31  C   UNL     1       3.573   0.984  22.995  0.00  0.00    +0.046 A 
ATOM     32  C   UNL     1       3.578  -0.389  23.232  0.00  0.00    +0.130 A 
BRANCH  32   9
ATOM      9  O   UNL     1       4.745  -1.087  23.172  0.00  0.00    -0.406 OA
BRANCH   9  33
ATOM      3  F   UNL     1       6.952  -0.563  22.875  0.00  0.00    -0.133 F 
ATOM      4  F   UNL     1       6.250  -1.178  24.852  0.00  0.00    -0.133 F 
ATOM      5  F   UNL     1       5.687   0.788  24.083  0.00  0.00    -0.133 F 
ATOM     33  C   UNL     1       5.912  -0.496  23.734  0.00  0.00    +0.575 C 
ENDBRANCH   9  33
ENDBRANCH  32   9
ENDBRANCH  21  24
BRANCH  10   1
ATOM      1  S   UNL     1      -5.755   0.937  25.655  0.00  0.00    +0.067 S 
ATOM      6  O   UNL     1      -6.773   0.758  24.641  0.00  0.00    -0.152 OA
ATOM      7  O   UNL     1      -6.107   1.017  27.057  0.00  0.00    -0.152 OA
BRANCH   1  23
ATOM      2  S   UNL     1      -4.415  -0.951  23.870  0.00  0.00    -0.077 S 
ATOM     23  C   UNL     1      -4.571  -0.358  25.466  0.00  0.00    +0.143 A 
ATOM     25  C   UNL     1      -3.736  -0.999  26.348  0.00  0.00    +0.036 A 
ATOM     28  C   UNL     1      -2.950  -1.997  25.703  0.00  0.00    +0.010 A 
ATOM     29  C   UNL     1      -3.220  -2.077  24.354  0.00  0.00    +0.047 A 
ENDBRANCH   1  23
ENDBRANCH  10   1
TORSDOF 5
ENDMDL
MODEL 2
REMARK VINA RESULT:       5.9      2.096      3.836
REMARK  Name = 7674734
REMARK  5 active torsions:
REMARK  status: ('A' for Active; 'I' for Inactive)
REMARK    1  A    between atoms: S_1  and  N_10
REMARK    2  A    between atoms: S_1  and  C_23
REMARK    3  A    between atoms: O_9  and  C_32
REMARK    4  A    between atoms: O_9  and  C_33
REMARK    5  A    between atoms: C_21  and  C_24
REMARK                            x       y       z     vdW  Elec       q    Type
REMARK                         _______ _______ _______ _____ _____    ______ ____
ROOT
ATOM      8  O   UNL     1      -0.967   0.819  22.164  0.00  0.00    -0.267 OA
ATOM     10  N   UNL     1      -4.392   2.275  25.480  0.00  0.00    -0.175 NA
ATOM     11  N   UNL     1      -2.541   0.331  23.813  0.00  0.00    -0.311 N 
ATOM     12  C   UNL     1      -5.035   0.845  23.536  0.00  0.00    +0.025 C 
ATOM     13  C   UNL     1      -4.228  -0.202  25.606  0.00  0.00    +0.052 C 
ATOM     14  C   UNL     1      -5.238  -0.340  24.471  0.00  0.00    +0.017 C 
ATOM     15  C   UNL     1      -5.274   2.169  24.282  0.00  0.00    +0.114 C 
ATOM     16  C   UNL     1      -4.505   1.095  26.387  0.00  0.00    +0.119 C 
ATOM     17  C   UNL     1      -3.630   0.762  22.927  0.00  0.00    +0.130 C 
ATOM     18  C   UNL     1      -2.806  -0.205  25.076  0.00  0.00    +0.026 A 
ATOM     19  C   UNL     1      -1.806  -0.701  25.821  0.00  0.00    +0.022 A 
ATOM     20  C   UNL     1      -1.236   0.386  23.285  0.00  0.00    +0.259 A 
ATOM     21  C   UNL     1      -0.130  -0.143  24.159  0.00  0.00    +0.047 A 
ATOM     22  C   UNL     1      -0.449  -0.661  25.355  0.00  0.00    +0.015 A 
ENDROOT
BRANCH  21  24
ATOM     24  C   UNL     1       1.276  -0.091  23.726  0.00  0.00    -0.012 A 
ATOM     26  C   UNL     1       2.038  -1.258  23.683  0.00  0.00    +0.012 A 
ATOM     27  C   UNL     1       1.849   1.128  23.359  0.00  0.00    +0.012 A 
ATOM     30  C   UNL     1       3.370  -1.209  23.274  0.00  0.00    +0.046 A 
ATOM     31  C   UNL     1       3.182   1.177  22.948  0.00  0.00    +0.046 A 
ATOM     32  C   UNL     1       3.942   0.010  22.906  0.00  0.00    +0.130 A 
BRANCH  32   9
ATOM      9  O   UNL     1       5.243   0.058  22.506  0.00  0.00    -0.406 OA
BRANCH   9  33
ATOM      3  F   UNL     1       5.963  -0.871  24.468  0.00  0.00    -0.133 F 
ATOM      4  F   UNL     1       6.332   1.249  24.084  0.00  0.00    -0.133 F 
ATOM      5  F   UNL     1       7.461  -0.250  22.967  0.00  0.00    -0.133 F 
ATOM     33  C   UNL     1       6.256   0.029  23.506  0.00  0.00    +0.575 C 
ENDBRANCH   9  33
ENDBRANCH  32   9
ENDBRANCH  21  24
BRANCH  10   1
ATOM      1  S   UNL     1      -4.372   3.803  26.251  0.00  0.00    +0.067 S 
ATOM      6  O   UNL     1      -4.253   3.609  27.682  0.00  0.00    -0.152 OA
ATOM      7  O   UNL     1      -5.428   4.624  25.697  0.00  0.00    -0.152 OA
BRANCH   1  23
ATOM      2  S   UNL     1      -1.552   3.293  25.677  0.00  0.00    -0.077 S 
ATOM     23  C   UNL     1      -2.831   4.427  25.661  0.00  0.00    +0.143 A 
ATOM     25  C   UNL     1      -2.440   5.654  25.184  0.00  0.00    +0.036 A 
ATOM     28  C   UNL     1      -1.062   5.667  24.824  0.00  0.00    +0.010 A 
ATOM     29  C   UNL     1      -0.458   4.448  25.041  0.00  0.00    +0.047 A 
ENDBRANCH   1  23
ENDBRANCH  10   1
TORSDOF 5
ENDMDL
