MODEL 1
REMARK VINA RESULT:      -6.2      0.000      0.000
REMARK  Name = 75536831
REMARK  8 active torsions:
REMARK  status: ('A' for Active; 'I' for Inactive)
REMARK    1  A    between atoms: S_1  and  N_7
REMARK    2  A    between atoms: S_1  and  C_16
REMARK    3  A    between atoms: O_3  and  C_10
REMARK    4  A    between atoms: N_6  and  C_9
REMARK    5  A    between atoms: N_6  and  C_14
REMARK    6  A    between atoms: N_7  and  C_13
REMARK    7  A    between atoms: C_11  and  C_13
REMARK    8  A    between atoms: C_14  and  C_15
REMARK                            x       y       z     vdW  Elec       q    Type
REMARK                         _______ _______ _______ _____ _____    ______ ____
ROOT
ATOM      2  O   UNL     1      -0.345   3.303  25.592  0.00  0.00    -0.371 OA
ATOM      9  C   UNL     1       0.116   1.613  23.988  0.00  0.00    +0.111 C 
ATOM     10  C   UNL     1      -1.359   1.964  23.927  0.00  0.00    +0.164 C 
ATOM     11  C   UNL     1      -1.360   3.342  24.575  0.00  0.00    +0.164 C 
ATOM     12  C   UNL     1       0.499   2.164  25.351  0.00  0.00    +0.181 C 
ENDROOT
BRANCH  10   3
ATOM      3  O   UNL     1      -1.856   2.003  22.603  0.00  0.00    -0.388 OA
ATOM     27  H   UNL     1      -1.459   2.766  22.150  0.00  0.00    +0.210 HD
ENDBRANCH  10   3
BRANCH   9   6
ATOM      6  N   UNL     1       0.383   0.189  23.857  0.00  0.00    -0.305 NA
ATOM     26  H   UNL     1      -0.504  -0.309  23.772  0.00  0.00    +0.123 HD
BRANCH   6  14
ATOM     14  C   UNL     1       1.194  -0.086  22.677  0.00  0.00    +0.116 C 
BRANCH  14  15
ATOM      8  N   UNL     1       5.391  -0.197  23.610  0.00  0.00    -0.263 NA
ATOM     15  C   UNL     1       2.664  -0.124  23.004  0.00  0.00    -0.031 A 
ATOM     17  C   UNL     1       3.464   0.985  22.752  0.00  0.00    +0.024 A 
ATOM     18  C   UNL     1       3.225  -1.268  23.560  0.00  0.00    +0.024 A 
ATOM     21  C   UNL     1       4.809   0.898  23.069  0.00  0.00    +0.111 A 
ATOM     22  C   UNL     1       4.582  -1.253  23.842  0.00  0.00    +0.111 A 
ENDBRANCH  14  15
ENDBRANCH   6  14
ENDBRANCH   9   6
BRANCH  11  13
ATOM     13  C   UNL     1      -2.695   3.714  25.195  0.00  0.00    +0.140 C 
BRANCH  13   7
ATOM      7  N   UNL     1      -3.317   2.514  25.787  0.00  0.00    -0.187 NA
ATOM     28  H   UNL     1      -2.700   1.933  26.369  0.00  0.00    +0.148 HD
BRANCH   7   1
ATOM      1  S   UNL     1      -4.642   1.774  25.019  0.00  0.00    +0.058 S 
ATOM      4  O   UNL     1      -4.766   2.290  23.670  0.00  0.00    -0.153 OA
ATOM      5  O   UNL     1      -5.782   1.800  25.917  0.00  0.00    -0.153 OA
BRANCH   1  16
ATOM     16  C   UNL     1      -4.106   0.093  24.914  0.00  0.00    +0.105 A 
ATOM     19  C   UNL     1      -3.150  -0.391  25.808  0.00  0.00    +0.028 A 
ATOM     20  C   UNL     1      -4.635  -0.748  23.936  0.00  0.00    +0.028 A 
ATOM     23  C   UNL     1      -2.724  -1.716  25.722  0.00  0.00    +0.002 A 
ATOM     24  C   UNL     1      -4.209  -2.074  23.851  0.00  0.00    +0.002 A 
ATOM     25  C   UNL     1      -3.254  -2.558  24.744  0.00  0.00    +0.000 A 
ENDBRANCH   1  16
ENDBRANCH   7   1
ENDBRANCH  13   7
ENDBRANCH  11  13
TORSDOF 8
ENDMDL
MODEL 2
REMARK VINA RESULT:      -5.1      1.688      3.837
REMARK  Name = 75536831
REMARK  8 active torsions:
REMARK  status: ('A' for Active; 'I' for Inactive)
REMARK    1  A    between atoms: S_1  and  N_7
REMARK    2  A    between atoms: S_1  and  C_16
REMARK    3  A    between atoms: O_3  and  C_10
REMARK    4  A    between atoms: N_6  and  C_9
REMARK    5  A    between atoms: N_6  and  C_14
REMARK    6  A    between atoms: N_7  and  C_13
REMARK    7  A    between atoms: C_11  and  C_13
REMARK    8  A    between atoms: C_14  and  C_15
REMARK                            x       y       z     vdW  Elec       q    Type
REMARK                         _______ _______ _______ _____ _____    ______ ____
ROOT
ATOM      2  O   UNL     1      -1.889  -2.319  24.103  0.00  0.00    -0.371 OA
ATOM      9  C   UNL     1      -0.065  -0.832  24.415  0.00  0.00    +0.111 C 
ATOM     10  C   UNL     1      -1.245  -0.347  25.237  0.00  0.00    +0.164 C 
ATOM     11  C   UNL     1      -2.070  -1.622  25.346  0.00  0.00    +0.164 C 
ATOM     12  C   UNL     1      -0.748  -1.762  23.428  0.00  0.00    +0.181 C 
ENDROOT
BRANCH  10   3
ATOM      3  O   UNL     1      -0.861   0.144  26.507  0.00  0.00    -0.388 OA
ATOM     27  H   UNL     1       0.059  -0.122  26.672  0.00  0.00    +0.210 HD
ENDBRANCH  10   3
BRANCH   9   6
ATOM      6  N   UNL     1       0.674   0.240  23.766  0.00  0.00    -0.305 NA
ATOM     26  H   UNL     1       1.273   0.696  24.455  0.00  0.00    +0.123 HD
BRANCH   6  14
ATOM     14  C   UNL     1       1.507  -0.277  22.687  0.00  0.00    +0.116 C 
BRANCH  14  15
ATOM      8  N   UNL     1       5.682  -0.217  23.719  0.00  0.00    -0.263 NA
ATOM     15  C   UNL     1       2.969  -0.256  23.048  0.00  0.00    -0.031 A 
ATOM     17  C   UNL     1       3.564  -1.379  23.613  0.00  0.00    +0.024 A 
ATOM     18  C   UNL     1       3.729   0.884  22.816  0.00  0.00    +0.024 A 
ATOM     21  C   UNL     1       4.911  -1.309  23.928  0.00  0.00    +0.111 A 
ATOM     22  C   UNL     1       5.070   0.853  23.166  0.00  0.00    +0.111 A 
ENDBRANCH  14  15
ENDBRANCH   6  14
ENDBRANCH   9   6
BRANCH  11  13
ATOM     13  C   UNL     1      -3.547  -1.363  25.580  0.00  0.00    +0.140 C 
BRANCH  13   7
ATOM      7  N   UNL     1      -3.766   0.076  25.824  0.00  0.00    -0.187 NA
ATOM     28  H   UNL     1      -4.060   0.327  26.776  0.00  0.00    +0.148 HD
BRANCH   7   1
ATOM      1  S   UNL     1      -4.212   1.099  24.540  0.00  0.00    +0.058 S 
ATOM      4  O   UNL     1      -5.595   1.503  24.707  0.00  0.00    -0.153 OA
ATOM      5  O   UNL     1      -3.771   0.507  23.291  0.00  0.00    -0.153 OA
BRANCH   1  16
ATOM     16  C   UNL     1      -3.191   2.512  24.832  0.00  0.00    +0.105 A 
ATOM     19  C   UNL     1      -3.615   3.507  25.714  0.00  0.00    +0.028 A 
ATOM     20  C   UNL     1      -1.966   2.633  24.180  0.00  0.00    +0.028 A 
ATOM     23  C   UNL     1      -2.811   4.624  25.941  0.00  0.00    +0.002 A 
ATOM     24  C   UNL     1      -1.161   3.750  24.408  0.00  0.00    +0.002 A 
ATOM     25  C   UNL     1      -1.584   4.746  25.288  0.00  0.00    +0.000 A 
ENDBRANCH   1  16
ENDBRANCH   7   1
ENDBRANCH  13   7
ENDBRANCH  11  13
TORSDOF 8
ENDMDL
MODEL 3
REMARK VINA RESULT:      -4.7      2.245      6.777
REMARK  Name = 75536831
REMARK  8 active torsions:
REMARK  status: ('A' for Active; 'I' for Inactive)
REMARK    1  A    between atoms: S_1  and  N_7
REMARK    2  A    between atoms: S_1  and  C_16
REMARK    3  A    between atoms: O_3  and  C_10
REMARK    4  A    between atoms: N_6  and  C_9
REMARK    5  A    between atoms: N_6  and  C_14
REMARK    6  A    between atoms: N_7  and  C_13
REMARK    7  A    between atoms: C_11  and  C_13
REMARK    8  A    between atoms: C_14  and  C_15
REMARK                            x       y       z     vdW  Elec       q    Type
REMARK                         _______ _______ _______ _____ _____    ______ ____
ROOT
ATOM      2  O   UNL     1      -1.411   2.078  22.756  0.00  0.00    -0.371 OA
ATOM      9  C   UNL     1      -3.419   2.580  23.921  0.00  0.00    +0.111 C 
ATOM     10  C   UNL     1      -2.295   2.400  24.926  0.00  0.00    +0.164 C 
ATOM     11  C   UNL     1      -1.075   2.622  24.043  0.00  0.00    +0.164 C 
ATOM     12  C   UNL     1      -2.837   1.898  22.695  0.00  0.00    +0.181 C 
ENDROOT
BRANCH  10   3
ATOM      3  O   UNL     1      -2.357   3.334  25.986  0.00  0.00    -0.388 OA
ATOM     27  H   UNL     1      -3.218   3.783  25.948  0.00  0.00    +0.210 HD
ENDBRANCH  10   3
BRANCH   9   6
ATOM      6  N   UNL     1      -4.681   1.997  24.348  0.00  0.00    -0.305 NA
ATOM     26  H   UNL     1      -5.061   1.431  23.588  0.00  0.00    +0.123 HD
BRANCH   6  14
ATOM     14  C   UNL     1      -4.497   1.149  25.521  0.00  0.00    +0.116 C 
BRANCH  14  15
ATOM      8  N   UNL     1      -3.486  -2.888  24.436  0.00  0.00    -0.263 NA
ATOM     15  C   UNL     1      -4.143  -0.264  25.141  0.00  0.00    -0.031 A 
ATOM     17  C   UNL     1      -4.650  -0.820  23.971  0.00  0.00    +0.024 A 
ATOM     18  C   UNL     1      -3.308  -1.018  25.957  0.00  0.00    +0.024 A 
ATOM     21  C   UNL     1      -4.295  -2.124  23.667  0.00  0.00    +0.111 A 
ATOM     22  C   UNL     1      -3.012  -2.313  25.564  0.00  0.00    +0.111 A 
ENDBRANCH  14  15
ENDBRANCH   6  14
ENDBRANCH   9   6
BRANCH  11  13
ATOM     13  C   UNL     1       0.180   1.951  24.572  0.00  0.00    +0.140 C 
BRANCH  13   7
ATOM      7  N   UNL     1       1.077   1.620  23.449  0.00  0.00    -0.187 NA
ATOM     28  H   UNL     1       1.168   2.343  22.723  0.00  0.00    +0.148 HD
BRANCH   7   1
ATOM      1  S   UNL     1       1.333  -0.004  23.012  0.00  0.00    +0.058 S 
ATOM      4  O   UNL     1       1.083  -0.165  21.593  0.00  0.00    -0.153 OA
ATOM      5  O   UNL     1       0.664  -0.861  23.972  0.00  0.00    -0.153 OA
BRANCH   1  16
ATOM     16  C   UNL     1       3.071  -0.181  23.284  0.00  0.00    +0.105 A 
ATOM     19  C   UNL     1       3.584  -1.396  23.741  0.00  0.00    +0.028 A 
ATOM     20  C   UNL     1       3.927   0.892  23.045  0.00  0.00    +0.028 A 
ATOM     23  C   UNL     1       4.954  -1.535  23.960  0.00  0.00    +0.002 A 
ATOM     24  C   UNL     1       5.298   0.752  23.263  0.00  0.00    +0.002 A 
ATOM     25  C   UNL     1       5.812  -0.461  23.721  0.00  0.00    +0.000 A 
ENDBRANCH   1  16
ENDBRANCH   7   1
ENDBRANCH  13   7
ENDBRANCH  11  13
TORSDOF 8
ENDMDL
MODEL 4
REMARK VINA RESULT:      -4.3      2.917      5.711
REMARK  Name = 75536831
REMARK  8 active torsions:
REMARK  status: ('A' for Active; 'I' for Inactive)
REMARK    1  A    between atoms: S_1  and  N_7
REMARK    2  A    between atoms: S_1  and  C_16
REMARK    3  A    between atoms: O_3  and  C_10
REMARK    4  A    between atoms: N_6  and  C_9
REMARK    5  A    between atoms: N_6  and  C_14
REMARK    6  A    between atoms: N_7  and  C_13
REMARK    7  A    between atoms: C_11  and  C_13
REMARK    8  A    between atoms: C_14  and  C_15
REMARK                            x       y       z     vdW  Elec       q    Type
REMARK                         _______ _______ _______ _____ _____    ______ ____
ROOT
ATOM      2  O   UNL     1      -2.838   3.416  23.613  0.00  0.00    -0.371 OA
ATOM      9  C   UNL     1      -4.932   2.458  24.195  0.00  0.00    +0.111 C 
ATOM     10  C   UNL     1      -4.377   3.200  25.396  0.00  0.00    +0.164 C 
ATOM     11  C   UNL     1      -3.385   4.142  24.726  0.00  0.00    +0.164 C 
ATOM     12  C   UNL     1      -3.684   2.283  23.346  0.00  0.00    +0.181 C 
ENDROOT
BRANCH  10   3
ATOM      3  O   UNL     1      -5.373   3.905  26.111  0.00  0.00    -0.388 OA
ATOM     27  H   UNL     1      -6.139   3.317  26.226  0.00  0.00    +0.210 HD
ENDBRANCH  10   3
BRANCH   9   6
ATOM      6  N   UNL     1      -5.568   1.194  24.533  0.00  0.00    -0.305 NA
ATOM     26  H   UNL     1      -5.575   0.593  23.709  0.00  0.00    +0.123 HD
BRANCH   6  14
ATOM     14  C   UNL     1      -4.847   0.515  25.605  0.00  0.00    +0.116 C 
BRANCH  14  15
ATOM      8  N   UNL     1      -3.360  -3.321  24.354  0.00  0.00    -0.263 NA
ATOM     15  C   UNL     1      -4.326  -0.828  25.166  0.00  0.00    -0.031 A 
ATOM     17  C   UNL     1      -4.494  -1.246  23.850  0.00  0.00    +0.024 A 
ATOM     18  C   UNL     1      -3.676  -1.654  26.075  0.00  0.00    +0.024 A 
ATOM     21  C   UNL     1      -3.997  -2.490  23.498  0.00  0.00    +0.111 A 
ATOM     22  C   UNL     1      -3.215  -2.881  25.623  0.00  0.00    +0.111 A 
ENDBRANCH  14  15
ENDBRANCH   6  14
ENDBRANCH   9   6
BRANCH  11  13
ATOM     13  C   UNL     1      -2.265   4.590  25.647  0.00  0.00    +0.140 C 
BRANCH  13   7
ATOM      7  N   UNL     1      -1.540   3.410  26.156  0.00  0.00    -0.187 NA
ATOM     28  H   UNL     1      -1.820   3.083  27.090  0.00  0.00    +0.148 HD
BRANCH   7   1
ATOM      1  S   UNL     1       0.044   3.089  25.626  0.00  0.00    +0.058 S 
ATOM      4  O   UNL     1       0.933   3.041  26.770  0.00  0.00    -0.153 OA
ATOM      5  O   UNL     1       0.349   3.954  24.501  0.00  0.00    -0.153 OA
BRANCH   1  16
ATOM     16  C   UNL     1      -0.114   1.448  24.988  0.00  0.00    +0.105 A 
ATOM     19  C   UNL     1      -0.735   0.460  25.753  0.00  0.00    +0.028 A 
ATOM     20  C   UNL     1       0.385   1.141  23.723  0.00  0.00    +0.028 A 
ATOM     23  C   UNL     1      -0.856  -0.836  25.251  0.00  0.00    +0.002 A 
ATOM     24  C   UNL     1       0.263  -0.155  23.221  0.00  0.00    +0.002 A 
ATOM     25  C   UNL     1      -0.357  -1.144  23.985  0.00  0.00    +0.000 A 
ENDBRANCH   1  16
ENDBRANCH   7   1
ENDBRANCH  13   7
ENDBRANCH  11  13
TORSDOF 8
ENDMDL
MODEL 5
REMARK VINA RESULT:      -4.0      2.950      6.007
REMARK  Name = 75536831
REMARK  8 active torsions:
REMARK  status: ('A' for Active; 'I' for Inactive)
REMARK    1  A    between atoms: S_1  and  N_7
REMARK    2  A    between atoms: S_1  and  C_16
REMARK    3  A    between atoms: O_3  and  C_10
REMARK    4  A    between atoms: N_6  and  C_9
REMARK    5  A    between atoms: N_6  and  C_14
REMARK    6  A    between atoms: N_7  and  C_13
REMARK    7  A    between atoms: C_11  and  C_13
REMARK    8  A    between atoms: C_14  and  C_15
REMARK                            x       y       z     vdW  Elec       q    Type
REMARK                         _______ _______ _______ _____ _____    ______ ____
ROOT
ATOM      2  O   UNL     1       0.223   3.478  23.514  0.00  0.00    -0.371 OA
ATOM      9  C   UNL     1      -0.834   4.170  25.524  0.00  0.00    +0.111 C 
ATOM     10  C   UNL     1      -0.509   2.691  25.621  0.00  0.00    +0.164 C 
ATOM     11  C   UNL     1       0.578   2.561  24.562  0.00  0.00    +0.164 C 
ATOM     12  C   UNL     1      -0.758   4.398  24.024  0.00  0.00    +0.181 C 
ENDROOT
BRANCH  10   3
ATOM      3  O   UNL     1      -0.043   2.317  26.903  0.00  0.00    -0.388 OA
ATOM     27  H   UNL     1      -0.235   3.043  27.521  0.00  0.00    +0.210 HD
ENDBRANCH  10   3
BRANCH   9   6
ATOM      6  N   UNL     1      -2.130   4.520  26.085  0.00  0.00    -0.305 NA
ATOM     26  H   UNL     1      -2.040   5.386  26.618  0.00  0.00    +0.123 HD
BRANCH   6  14
ATOM     14  C   UNL     1      -3.122   4.713  25.034  0.00  0.00    +0.116 C 
BRANCH  14  15
ATOM      8  N   UNL     1      -6.168   1.679  25.129  0.00  0.00    -0.263 NA
ATOM     15  C   UNL     1      -4.189   3.651  25.067  0.00  0.00    -0.031 A 
ATOM     17  C   UNL     1      -5.042   3.553  26.161  0.00  0.00    +0.024 A 
ATOM     18  C   UNL     1      -4.325   2.766  24.004  0.00  0.00    +0.024 A 
ATOM     21  C   UNL     1      -6.006   2.559  26.144  0.00  0.00    +0.111 A 
ATOM     22  C   UNL     1      -5.322   1.806  24.083  0.00  0.00    +0.111 A 
ENDBRANCH  14  15
ENDBRANCH   6  14
ENDBRANCH   9   6
BRANCH  11  13
ATOM     13  C   UNL     1       0.700   1.157  23.996  0.00  0.00    +0.140 C 
BRANCH  13   7
ATOM      7  N   UNL     1      -0.590   0.454  24.131  0.00  0.00    -0.187 NA
ATOM     28  H   UNL     1      -1.428   1.022  23.952  0.00  0.00    +0.148 HD
BRANCH   7   1
ATOM      1  S   UNL     1      -0.725  -0.886  25.170  0.00  0.00    +0.058 S 
ATOM      4  O   UNL     1      -0.905  -0.423  26.532  0.00  0.00    -0.153 OA
ATOM      5  O   UNL     1       0.327  -1.835  24.855  0.00  0.00    -0.153 OA
BRANCH   1  16
ATOM     16  C   UNL     1      -2.248  -1.607  24.633  0.00  0.00    +0.105 A 
ATOM     19  C   UNL     1      -2.367  -2.994  24.539  0.00  0.00    +0.028 A 
ATOM     20  C   UNL     1      -3.327  -0.789  24.302  0.00  0.00    +0.028 A 
ATOM     23  C   UNL     1      -3.567  -3.562  24.112  0.00  0.00    +0.002 A 
ATOM     24  C   UNL     1      -4.528  -1.358  23.876  0.00  0.00    +0.002 A 
ATOM     25  C   UNL     1      -4.648  -2.744  23.780  0.00  0.00    +0.000 A 
ENDBRANCH   1  16
ENDBRANCH   7   1
ENDBRANCH  13   7
ENDBRANCH  11  13
TORSDOF 8
ENDMDL
MODEL 6
REMARK VINA RESULT:      -3.6      2.614      4.066
REMARK  Name = 75536831
REMARK  8 active torsions:
REMARK  status: ('A' for Active; 'I' for Inactive)
REMARK    1  A    between atoms: S_1  and  N_7
REMARK    2  A    between atoms: S_1  and  C_16
REMARK    3  A    between atoms: O_3  and  C_10
REMARK    4  A    between atoms: N_6  and  C_9
REMARK    5  A    between atoms: N_6  and  C_14
REMARK    6  A    between atoms: N_7  and  C_13
REMARK    7  A    between atoms: C_11  and  C_13
REMARK    8  A    between atoms: C_14  and  C_15
REMARK                            x       y       z     vdW  Elec       q    Type
REMARK                         _______ _______ _______ _____ _____    ______ ____
ROOT
ATOM      2  O   UNL     1      -0.741   3.100  26.404  0.00  0.00    -0.371 OA
ATOM      9  C   UNL     1       0.117   1.834  24.587  0.00  0.00    +0.111 C 
ATOM     10  C   UNL     1      -0.494   3.117  24.052  0.00  0.00    +0.164 C 
ATOM     11  C   UNL     1      -0.488   3.987  25.302  0.00  0.00    +0.164 C 
ATOM     12  C   UNL     1      -0.521   1.749  25.963  0.00  0.00    +0.181 C 
ENDROOT
BRANCH  10   3
ATOM      3  O   UNL     1       0.268   3.690  23.007  0.00  0.00    -0.388 OA
ATOM     27  H   UNL     1       1.126   3.967  23.371  0.00  0.00    +0.210 HD
ENDBRANCH  10   3
BRANCH   9   6
ATOM      6  N   UNL     1      -0.159   0.669  23.761  0.00  0.00    -0.305 NA
ATOM     26  H   UNL     1       0.412   0.717  22.916  0.00  0.00    +0.123 HD
BRANCH   6  14
ATOM     14  C   UNL     1       0.155  -0.564  24.472  0.00  0.00    +0.116 C 
BRANCH  14  15
ATOM      8  N   UNL     1      -3.397  -2.727  25.569  0.00  0.00    -0.263 NA
ATOM     15  C   UNL     1      -1.089  -1.322  24.856  0.00  0.00    -0.031 A 
ATOM     17  C   UNL     1      -1.535  -2.376  24.067  0.00  0.00    +0.024 A 
ATOM     18  C   UNL     1      -1.793  -0.971  26.002  0.00  0.00    +0.024 A 
ATOM     21  C   UNL     1      -2.684  -3.040  24.462  0.00  0.00    +0.111 A 
ATOM     22  C   UNL     1      -2.932  -1.699  26.311  0.00  0.00    +0.111 A 
ENDBRANCH  14  15
ENDBRANCH   6  14
ENDBRANCH   9   6
BRANCH  11  13
ATOM     13  C   UNL     1      -1.538   5.084  25.275  0.00  0.00    +0.140 C 
BRANCH  13   7
ATOM      7  N   UNL     1      -2.753   4.591  24.598  0.00  0.00    -0.187 NA
ATOM     28  H   UNL     1      -2.956   5.013  23.683  0.00  0.00    +0.148 HD
BRANCH   7   1
ATOM      1  S   UNL     1      -4.048   3.977  25.513  0.00  0.00    +0.058 S 
ATOM      4  O   UNL     1      -5.251   4.727  25.208  0.00  0.00    -0.153 OA
ATOM      5  O   UNL     1      -3.618   3.816  26.889  0.00  0.00    -0.153 OA
BRANCH   1  16
ATOM     16  C   UNL     1      -4.232   2.354  24.836  0.00  0.00    +0.105 A 
ATOM     19  C   UNL     1      -5.164   1.472  25.384  0.00  0.00    +0.028 A 
ATOM     20  C   UNL     1      -3.444   1.955  23.757  0.00  0.00    +0.028 A 
ATOM     23  C   UNL     1      -5.305   0.190  24.852  0.00  0.00    +0.002 A 
ATOM     24  C   UNL     1      -3.586   0.674  23.225  0.00  0.00    +0.002 A 
ATOM     25  C   UNL     1      -4.517  -0.209  23.773  0.00  0.00    +0.000 A 
ENDBRANCH   1  16
ENDBRANCH   7   1
ENDBRANCH  13   7
ENDBRANCH  11  13
TORSDOF 8
ENDMDL
MODEL 7
REMARK VINA RESULT:      -3.1      3.325      5.958
REMARK  Name = 75536831
REMARK  8 active torsions:
REMARK  status: ('A' for Active; 'I' for Inactive)
REMARK    1  A    between atoms: S_1  and  N_7
REMARK    2  A    between atoms: S_1  and  C_16
REMARK    3  A    between atoms: O_3  and  C_10
REMARK    4  A    between atoms: N_6  and  C_9
REMARK    5  A    between atoms: N_6  and  C_14
REMARK    6  A    between atoms: N_7  and  C_13
REMARK    7  A    between atoms: C_11  and  C_13
REMARK    8  A    between atoms: C_14  and  C_15
REMARK                            x       y       z     vdW  Elec       q    Type
REMARK                         _______ _______ _______ _____ _____    ______ ____
ROOT
ATOM      2  O   UNL     1       0.221   3.569  24.981  0.00  0.00    -0.371 OA
ATOM      9  C   UNL     1      -1.750   4.862  25.272  0.00  0.00    +0.111 C 
ATOM     10  C   UNL     1      -1.942   3.511  25.938  0.00  0.00    +0.164 C 
ATOM     11  C   UNL     1      -0.496   3.068  26.121  0.00  0.00    +0.164 C 
ATOM     12  C   UNL     1      -0.583   4.576  24.342  0.00  0.00    +0.181 C 
ENDROOT
BRANCH  10   3
ATOM      3  O   UNL     1      -2.626   3.602  27.172  0.00  0.00    -0.388 OA
ATOM     27  H   UNL     1      -3.206   2.827  27.257  0.00  0.00    +0.210 HD
ENDBRANCH  10   3
BRANCH   9   6
ATOM      6  N   UNL     1      -2.931   5.338  24.570  0.00  0.00    -0.305 NA
ATOM     26  H   UNL     1      -2.683   6.162  24.022  0.00  0.00    +0.123 HD
BRANCH   6  14
ATOM     14  C   UNL     1      -3.456   4.315  23.672  0.00  0.00    +0.116 C 
BRANCH  14  15
ATOM      8  N   UNL     1      -6.216   1.692  25.671  0.00  0.00    -0.263 NA
ATOM     15  C   UNL     1      -4.422   3.397  24.372  0.00  0.00    -0.031 A 
ATOM     17  C   UNL     1      -5.264   3.893  25.362  0.00  0.00    +0.024 A 
ATOM     18  C   UNL     1      -4.478   2.051  24.030  0.00  0.00    +0.024 A 
ATOM     21  C   UNL     1      -6.134   3.008  25.976  0.00  0.00    +0.111 A 
ATOM     22  C   UNL     1      -5.384   1.247  24.704  0.00  0.00    +0.111 A 
ENDBRANCH  14  15
ENDBRANCH   6  14
ENDBRANCH   9   6
BRANCH  11  13
ATOM     13  C   UNL     1      -0.337   1.560  26.206  0.00  0.00    +0.140 C 
BRANCH  13   7
ATOM      7  N   UNL     1       0.435   1.078  25.044  0.00  0.00    -0.187 NA
ATOM     28  H   UNL     1       1.358   1.510  24.911  0.00  0.00    +0.148 HD
BRANCH   7   1
ATOM      1  S   UNL     1      -0.374   0.457  23.682  0.00  0.00    +0.058 S 
ATOM      4  O   UNL     1       0.563  -0.291  22.866  0.00  0.00    -0.153 OA
ATOM      5  O   UNL     1      -1.178   1.510  23.091  0.00  0.00    -0.153 OA
BRANCH   1  16
ATOM     16  C   UNL     1      -1.494  -0.694  24.421  0.00  0.00    +0.105 A 
ATOM     19  C   UNL     1      -2.398  -0.262  25.392  0.00  0.00    +0.028 A 
ATOM     20  C   UNL     1      -1.471  -2.034  24.036  0.00  0.00    +0.028 A 
ATOM     23  C   UNL     1      -3.278  -1.171  25.977  0.00  0.00    +0.002 A 
ATOM     24  C   UNL     1      -2.352  -2.943  24.621  0.00  0.00    +0.002 A 
ATOM     25  C   UNL     1      -3.256  -2.512  25.592  0.00  0.00    +0.000 A 
ENDBRANCH   1  16
ENDBRANCH   7   1
ENDBRANCH  13   7
ENDBRANCH  11  13
TORSDOF 8
ENDMDL
MODEL 8
REMARK VINA RESULT:      -2.6      1.664      3.341
REMARK  Name = 75536831
REMARK  8 active torsions:
REMARK  status: ('A' for Active; 'I' for Inactive)
REMARK    1  A    between atoms: S_1  and  N_7
REMARK    2  A    between atoms: S_1  and  C_16
REMARK    3  A    between atoms: O_3  and  C_10
REMARK    4  A    between atoms: N_6  and  C_9
REMARK    5  A    between atoms: N_6  and  C_14
REMARK    6  A    between atoms: N_7  and  C_13
REMARK    7  A    between atoms: C_11  and  C_13
REMARK    8  A    between atoms: C_14  and  C_15
REMARK                            x       y       z     vdW  Elec       q    Type
REMARK                         _______ _______ _______ _____ _____    ______ ____
ROOT
ATOM      2  O   UNL     1      -1.647   1.534  25.421  0.00  0.00    -0.371 OA
ATOM      9  C   UNL     1      -0.425   0.142  23.934  0.00  0.00    +0.111 C 
ATOM     10  C   UNL     1      -1.673  -0.593  24.387  0.00  0.00    +0.164 C 
ATOM     11  C   UNL     1      -2.544   0.567  24.850  0.00  0.00    +0.164 C 
ATOM     12  C   UNL     1      -0.309   1.220  24.999  0.00  0.00    +0.181 C 
ENDROOT
BRANCH  10   3
ATOM      3  O   UNL     1      -2.283  -1.327  23.343  0.00  0.00    -0.388 OA
ATOM     27  H   UNL     1      -2.162  -0.835  22.513  0.00  0.00    +0.210 HD
ENDBRANCH  10   3
BRANCH   9   6
ATOM      6  N   UNL     1       0.754  -0.705  23.855  0.00  0.00    -0.305 NA
ATOM     26  H   UNL     1       0.460  -1.678  23.758  0.00  0.00    +0.123 HD
BRANCH   6  14
ATOM     14  C   UNL     1       1.582  -0.347  22.709  0.00  0.00    +0.116 C 
BRANCH  14  15
ATOM      8  N   UNL     1       5.750  -0.131  23.750  0.00  0.00    -0.263 NA
ATOM     15  C   UNL     1       3.041  -0.271  23.074  0.00  0.00    -0.031 A 
ATOM     17  C   UNL     1       3.768   0.885  22.808  0.00  0.00    +0.024 A 
ATOM     18  C   UNL     1       3.666  -1.355  23.678  0.00  0.00    +0.024 A 
ATOM     21  C   UNL     1       5.107   0.903  23.162  0.00  0.00    +0.111 A 
ATOM     22  C   UNL     1       5.011  -1.236  23.994  0.00  0.00    +0.111 A 
ENDBRANCH  14  15
ENDBRANCH   6  14
ENDBRANCH   9   6
BRANCH  11  13
ATOM     13  C   UNL     1      -3.585   0.163  25.879  0.00  0.00    +0.140 C 
BRANCH  13   7
ATOM      7  N   UNL     1      -4.936   0.332  25.310  0.00  0.00    -0.187 NA
ATOM     28  H   UNL     1      -5.128  -0.198  24.451  0.00  0.00    +0.148 HD
BRANCH   7   1
ATOM      1  S   UNL     1      -5.802   1.770  25.586  0.00  0.00    +0.058 S 
ATOM      4  O   UNL     1      -6.199   1.832  26.979  0.00  0.00    -0.153 OA
ATOM      5  O   UNL     1      -6.792   1.932  24.538  0.00  0.00    -0.153 OA
BRANCH   1  16
ATOM     16  C   UNL     1      -4.559   2.998  25.317  0.00  0.00    +0.105 A 
ATOM     19  C   UNL     1      -4.211   3.363  24.017  0.00  0.00    +0.028 A 
ATOM     20  C   UNL     1      -3.925   3.598  26.404  0.00  0.00    +0.028 A 
ATOM     23  C   UNL     1      -3.228   4.329  23.805  0.00  0.00    +0.002 A 
ATOM     24  C   UNL     1      -2.942   4.564  26.192  0.00  0.00    +0.002 A 
ATOM     25  C   UNL     1      -2.593   4.930  24.892  0.00  0.00    +0.000 A 
ENDBRANCH   1  16
ENDBRANCH   7   1
ENDBRANCH  13   7
ENDBRANCH  11  13
TORSDOF 8
ENDMDL
