MODEL 1
REMARK VINA RESULT:      -2.3      0.000      0.000
REMARK  Name = 45783808
REMARK  9 active torsions:
REMARK  status: ('A' for Active; 'I' for Inactive)
REMARK    1  A    between atoms: N_2  and  C_11
REMARK    2  A    between atoms: N_6  and  C_21
REMARK    3  A    between atoms: N_6  and  C_22
REMARK    4  A    between atoms: N_6  and  C_23
REMARK    5  A    between atoms: C_7  and  C_13
REMARK    6  A    between atoms: C_11  and  C_12
REMARK    7  A    between atoms: C_12  and  C_14
REMARK    8  A    between atoms: C_12  and  C_15
REMARK    9  A    between atoms: C_16  and  C_17
REMARK                            x       y       z     vdW  Elec       q    Type
REMARK                         _______ _______ _______ _____ _____    ______ ____
ROOT
ATOM      1  O   UNL     1      -2.379   3.481  24.245  0.00  0.00    -0.336 OA
ATOM      3  N   UNL     1      -2.052   1.287  23.938  0.00  0.00    -0.190 NA
ATOM      4  N   UNL     1      -0.998   3.312  24.086  0.00  0.00    -0.056 NA
ATOM     13  C   UNL     1      -2.925   2.241  24.144  0.00  0.00    +0.245 A 
ATOM     16  C   UNL     1      -0.885   1.992  23.910  0.00  0.00    +0.204 A 
ENDROOT
BRANCH  16  17
ATOM      5  N   UNL     1       2.778   1.534  23.464  0.00  0.00    -0.240 NA
ATOM     17  C   UNL     1       0.380   1.347  23.704  0.00  0.00    +0.041 A 
ATOM     18  C   UNL     1       0.464  -0.032  23.547  0.00  0.00    +0.016 A 
ATOM     19  C   UNL     1       1.556   2.078  23.655  0.00  0.00    +0.124 A 
ATOM     20  C   UNL     1       1.705  -0.629  23.349  0.00  0.00    +0.044 A 
ATOM     21  C   UNL     1       2.821   0.191  23.316  0.00  0.00    +0.121 A 
BRANCH  21   6
ATOM      6  N   UNL     1       4.077  -0.432  23.114  0.00  0.00    -0.321 N 
ATOM     22  C   UNL     1       5.088   0.213  22.306  0.00  0.00    +0.130 C 
ATOM     23  C   UNL     1       4.359  -1.713  23.723  0.00  0.00    +0.130 C 
ENDBRANCH  21   6
ENDBRANCH  16  17
BRANCH  13   7
ATOM      2  N   UNL     1      -4.859   0.995  25.093  0.00  0.00    -0.291 NA
ATOM      7  C   UNL     1      -4.430   2.152  24.283  0.00  0.00    +0.146 C 
ATOM      8  C   UNL     1      -5.035   3.376  24.997  0.00  0.00    +0.030 C 
ATOM      9  C   UNL     1      -6.120   1.379  25.727  0.00  0.00    +0.085 C 
ATOM     10  C   UNL     1      -5.835   2.803  26.159  0.00  0.00    +0.017 C 
BRANCH   2  11
ATOM     11  C   UNL     1      -4.986  -0.233  24.320  0.00  0.00    +0.088 C 
BRANCH  11  12
ATOM     12  C   UNL     1      -3.791  -1.182  24.525  0.00  0.00    -0.003 C 
ATOM     14  C   UNL     1      -3.440  -1.256  26.012  0.00  0.00    +0.008 C 
ATOM     15  C   UNL     1      -4.061  -2.590  23.987  0.00  0.00    +0.008 C 
ENDBRANCH  11  12
ENDBRANCH   2  11
ENDBRANCH  13   7
TORSDOF 5
ENDMDL
MODEL 2
REMARK VINA RESULT:      -2.0     14.200     15.774
REMARK  Name = 45783808
REMARK  9 active torsions:
REMARK  status: ('A' for Active; 'I' for Inactive)
REMARK    1  A    between atoms: N_2  and  C_11
REMARK    2  A    between atoms: N_6  and  C_21
REMARK    3  A    between atoms: N_6  and  C_22
REMARK    4  A    between atoms: N_6  and  C_23
REMARK    5  A    between atoms: C_7  and  C_13
REMARK    6  A    between atoms: C_11  and  C_12
REMARK    7  A    between atoms: C_12  and  C_14
REMARK    8  A    between atoms: C_12  and  C_15
REMARK    9  A    between atoms: C_16  and  C_17
REMARK                            x       y       z     vdW  Elec       q    Type
REMARK                         _______ _______ _______ _____ _____    ______ ____
ROOT
ATOM      1  O   UNL     1      -9.556  -9.400  14.138  0.00  0.00    -0.336 OA
ATOM      3  N   UNL     1      -7.509 -10.045  14.777  0.00  0.00    -0.190 NA
ATOM      4  N   UNL     1      -8.734  -9.256  13.014  0.00  0.00    -0.056 NA
ATOM     13  C   UNL     1      -8.756  -9.870  15.132  0.00  0.00    +0.245 A 
ATOM     16  C   UNL     1      -7.543  -9.655  13.471  0.00  0.00    +0.204 A 
ENDROOT
BRANCH  16  17
ATOM      5  N   UNL     1      -4.071 -10.362  12.343  0.00  0.00    -0.240 NA
ATOM     17  C   UNL     1      -6.368  -9.675  12.647  0.00  0.00    +0.041 A 
ATOM     18  C   UNL     1      -6.358  -9.063  11.398  0.00  0.00    +0.016 A 
ATOM     19  C   UNL     1      -5.210 -10.306  13.069  0.00  0.00    +0.124 A 
ATOM     20  C   UNL     1      -5.205  -9.099  10.622  0.00  0.00    +0.044 A 
ATOM     21  C   UNL     1      -4.098  -9.756  11.136  0.00  0.00    +0.121 A 
BRANCH  21   6
ATOM      6  N   UNL     1      -2.932  -9.785  10.332  0.00  0.00    -0.321 N 
ATOM     22  C   UNL     1      -1.641  -9.481  10.911  0.00  0.00    +0.130 C 
ATOM     23  C   UNL     1      -3.022 -10.128   8.930  0.00  0.00    +0.130 C 
ENDBRANCH  21   6
ENDBRANCH  16  17
BRANCH  13   7
ATOM      2  N   UNL     1      -8.566  -9.709  17.608  0.00  0.00    -0.291 NA
ATOM      7  C   UNL     1      -9.417 -10.115  16.472  0.00  0.00    +0.146 C 
ATOM      8  C   UNL     1     -10.718  -9.308  16.650  0.00  0.00    +0.030 C 
ATOM      9  C   UNL     1      -9.475  -9.321  18.687  0.00  0.00    +0.085 C 
ATOM     10  C   UNL     1     -10.528  -8.526  17.942  0.00  0.00    +0.017 C 
BRANCH   2  11
ATOM     11  C   UNL     1      -7.631 -10.745  18.024  0.00  0.00    +0.088 C 
BRANCH  11  12
ATOM     12  C   UNL     1      -6.321 -10.163  18.584  0.00  0.00    -0.003 C 
ATOM     14  C   UNL     1      -6.056 -10.736  19.978  0.00  0.00    +0.008 C 
ATOM     15  C   UNL     1      -5.120 -10.441  17.676  0.00  0.00    +0.008 C 
ENDBRANCH  11  12
ENDBRANCH   2  11
ENDBRANCH  13   7
TORSDOF 5
ENDMDL
MODEL 3
REMARK VINA RESULT:      -1.8     14.784     16.436
REMARK  Name = 45783808
REMARK  9 active torsions:
REMARK  status: ('A' for Active; 'I' for Inactive)
REMARK    1  A    between atoms: N_2  and  C_11
REMARK    2  A    between atoms: N_6  and  C_21
REMARK    3  A    between atoms: N_6  and  C_22
REMARK    4  A    between atoms: N_6  and  C_23
REMARK    5  A    between atoms: C_7  and  C_13
REMARK    6  A    between atoms: C_11  and  C_12
REMARK    7  A    between atoms: C_12  and  C_14
REMARK    8  A    between atoms: C_12  and  C_15
REMARK    9  A    between atoms: C_16  and  C_17
REMARK                            x       y       z     vdW  Elec       q    Type
REMARK                         _______ _______ _______ _____ _____    ______ ____
ROOT
ATOM      1  O   UNL     1      -7.538 -10.229  10.626  0.00  0.00    -0.336 OA
ATOM      3  N   UNL     1      -6.263 -10.067  12.460  0.00  0.00    -0.190 NA
ATOM      4  N   UNL     1      -6.239  -9.965  10.175  0.00  0.00    -0.056 NA
ATOM     13  C   UNL     1      -7.464 -10.273  11.983  0.00  0.00    +0.245 A 
ATOM     16  C   UNL     1      -5.546  -9.883  11.314  0.00  0.00    +0.204 A 
ENDROOT
BRANCH  16  17
ATOM      5  N   UNL     1      -2.217  -8.543  10.340  0.00  0.00    -0.240 NA
ATOM     17  C   UNL     1      -4.136  -9.618  11.342  0.00  0.00    +0.041 A 
ATOM     18  C   UNL     1      -3.327 -10.144  12.344  0.00  0.00    +0.016 A 
ATOM     19  C   UNL     1      -3.537  -8.831  10.372  0.00  0.00    +0.124 A 
ATOM     20  C   UNL     1      -1.964  -9.870  12.345  0.00  0.00    +0.044 A 
ATOM     21  C   UNL     1      -1.462  -9.071  11.329  0.00  0.00    +0.121 A 
BRANCH  21   6
ATOM      6  N   UNL     1      -0.072  -8.801  11.345  0.00  0.00    -0.321 N 
ATOM     22  C   UNL     1       0.458  -7.763  12.202  0.00  0.00    +0.130 C 
ATOM     23  C   UNL     1       0.827  -9.565  10.509  0.00  0.00    +0.130 C 
ENDBRANCH  21   6
ENDBRANCH  16  17
BRANCH  13   7
ATOM      2  N   UNL     1      -8.812  -9.882  14.037  0.00  0.00    -0.291 NA
ATOM      7  C   UNL     1      -8.757 -10.548  12.721  0.00  0.00    +0.146 C 
ATOM      8  C   UNL     1      -9.995 -10.028  11.966  0.00  0.00    +0.030 C 
ATOM      9  C   UNL     1     -10.225  -9.615  14.306  0.00  0.00    +0.085 C 
ATOM     10  C   UNL     1     -10.715  -9.126  12.959  0.00  0.00    +0.017 C 
BRANCH   2  11
ATOM     11  C   UNL     1      -8.189 -10.658  15.101  0.00  0.00    +0.088 C 
BRANCH  11  12
ATOM     12  C   UNL     1      -7.428  -9.773  16.104  0.00  0.00    -0.003 C 
ATOM     14  C   UNL     1      -7.835 -10.143  17.532  0.00  0.00    +0.008 C 
ATOM     15  C   UNL     1      -5.908  -9.889  15.955  0.00  0.00    +0.008 C 
ENDBRANCH  11  12
ENDBRANCH   2  11
ENDBRANCH  13   7
TORSDOF 5
ENDMDL
MODEL 4
REMARK VINA RESULT:      -1.1      0.735      1.512
REMARK  Name = 45783808
REMARK  9 active torsions:
REMARK  status: ('A' for Active; 'I' for Inactive)
REMARK    1  A    between atoms: N_2  and  C_11
REMARK    2  A    between atoms: N_6  and  C_21
REMARK    3  A    between atoms: N_6  and  C_22
REMARK    4  A    between atoms: N_6  and  C_23
REMARK    5  A    between atoms: C_7  and  C_13
REMARK    6  A    between atoms: C_11  and  C_12
REMARK    7  A    between atoms: C_12  and  C_14
REMARK    8  A    between atoms: C_12  and  C_15
REMARK    9  A    between atoms: C_16  and  C_17
REMARK                            x       y       z     vdW  Elec       q    Type
REMARK                         _______ _______ _______ _____ _____    ______ ____
ROOT
ATOM      1  O   UNL     1      -2.341   3.179  23.702  0.00  0.00    -0.336 OA
ATOM      3  N   UNL     1      -1.858   1.004  23.921  0.00  0.00    -0.190 NA
ATOM      4  N   UNL     1      -0.954   3.070  23.537  0.00  0.00    -0.056 NA
ATOM     13  C   UNL     1      -2.795   1.917  23.924  0.00  0.00    +0.245 A 
ATOM     16  C   UNL     1      -0.747   1.758  23.680  0.00  0.00    +0.204 A 
ENDROOT
BRANCH  16  17
ATOM      5  N   UNL     1       1.921  -0.824  23.465  0.00  0.00    -0.240 NA
ATOM     17  C   UNL     1       0.559   1.169  23.588  0.00  0.00    +0.041 A 
ATOM     18  C   UNL     1       1.700   1.962  23.534  0.00  0.00    +0.016 A 
ATOM     19  C   UNL     1       0.722  -0.206  23.550  0.00  0.00    +0.124 A 
ATOM     20  C   UNL     1       2.952   1.363  23.445  0.00  0.00    +0.044 A 
ATOM     21  C   UNL     1       3.008  -0.021  23.414  0.00  0.00    +0.121 A 
BRANCH  21   6
ATOM      6  N   UNL     1       4.290  -0.616  23.322  0.00  0.00    -0.321 N 
ATOM     22  C   UNL     1       4.477  -2.003  23.688  0.00  0.00    +0.130 C 
ATOM     23  C   UNL     1       5.419   0.157  22.853  0.00  0.00    +0.130 C 
ENDBRANCH  21   6
ENDBRANCH  16  17
BRANCH  13   7
ATOM      2  N   UNL     1      -4.618   0.651  25.048  0.00  0.00    -0.291 NA
ATOM      7  C   UNL     1      -4.286   1.764  24.136  0.00  0.00    +0.146 C 
ATOM      8  C   UNL     1      -4.925   3.006  24.785  0.00  0.00    +0.030 C 
ATOM      9  C   UNL     1      -5.871   1.018  25.708  0.00  0.00    +0.085 C 
ATOM     10  C   UNL     1      -5.645   2.483  26.021  0.00  0.00    +0.017 C 
BRANCH   2  11
ATOM     11  C   UNL     1      -4.710  -0.637  24.373  0.00  0.00    +0.088 C 
BRANCH  11  12
ATOM     12  C   UNL     1      -3.896  -1.732  25.085  0.00  0.00    -0.003 C 
ATOM     14  C   UNL     1      -3.303  -2.690  24.049  0.00  0.00    +0.008 C 
ATOM     15  C   UNL     1      -2.777  -1.158  25.957  0.00  0.00    +0.008 C 
ENDBRANCH  11  12
ENDBRANCH   2  11
ENDBRANCH  13   7
TORSDOF 5
ENDMDL
MODEL 5
REMARK VINA RESULT:      -1.0      1.837      3.156
REMARK  Name = 45783808
REMARK  9 active torsions:
REMARK  status: ('A' for Active; 'I' for Inactive)
REMARK    1  A    between atoms: N_2  and  C_11
REMARK    2  A    between atoms: N_6  and  C_21
REMARK    3  A    between atoms: N_6  and  C_22
REMARK    4  A    between atoms: N_6  and  C_23
REMARK    5  A    between atoms: C_7  and  C_13
REMARK    6  A    between atoms: C_11  and  C_12
REMARK    7  A    between atoms: C_12  and  C_14
REMARK    8  A    between atoms: C_12  and  C_15
REMARK    9  A    between atoms: C_16  and  C_17
REMARK                            x       y       z     vdW  Elec       q    Type
REMARK                         _______ _______ _______ _____ _____    ______ ____
ROOT
ATOM      1  O   UNL     1      -3.434  -0.433  24.774  0.00  0.00    -0.336 OA
ATOM      3  N   UNL     1      -2.069   1.338  24.895  0.00  0.00    -0.190 NA
ATOM      4  N   UNL     1      -2.216  -0.842  24.216  0.00  0.00    -0.056 NA
ATOM     13  C   UNL     1      -3.262   0.862  25.148  0.00  0.00    +0.245 A 
ATOM     16  C   UNL     1      -1.464   0.257  24.324  0.00  0.00    +0.204 A 
ENDROOT
BRANCH  16  17
ATOM      5  N   UNL     1       1.993   1.506  23.758  0.00  0.00    -0.240 NA
ATOM     17  C   UNL     1      -0.103   0.308  23.870  0.00  0.00    +0.041 A 
ATOM     18  C   UNL     1       0.444  -0.735  23.129  0.00  0.00    +0.016 A 
ATOM     19  C   UNL     1       0.706   1.395  24.155  0.00  0.00    +0.124 A 
ATOM     20  C   UNL     1       1.766  -0.658  22.703  0.00  0.00    +0.044 A 
ATOM     21  C   UNL     1       2.491   0.474  23.041  0.00  0.00    +0.121 A 
BRANCH  21   6
ATOM      6  N   UNL     1       3.836   0.537  22.600  0.00  0.00    -0.321 N 
ATOM     22  C   UNL     1       4.916   0.569  23.562  0.00  0.00    +0.130 C 
ATOM     23  C   UNL     1       4.138   0.560  21.186  0.00  0.00    +0.130 C 
ENDBRANCH  21   6
ENDBRANCH  16  17
BRANCH  13   7
ATOM      2  N   UNL     1      -4.595   2.951  25.367  0.00  0.00    -0.291 NA
ATOM      7  C   UNL     1      -4.452   1.544  25.789  0.00  0.00    +0.146 C 
ATOM      8  C   UNL     1      -5.791   0.883  25.410  0.00  0.00    +0.030 C 
ATOM      9  C   UNL     1      -6.024   3.259  25.431  0.00  0.00    +0.085 C 
ATOM     10  C   UNL     1      -6.642   2.009  24.839  0.00  0.00    +0.017 C 
BRANCH   2  11
ATOM     11  C   UNL     1      -3.799   3.875  26.164  0.00  0.00    +0.088 C 
BRANCH  11  12
ATOM     12  C   UNL     1      -2.857   4.734  25.302  0.00  0.00    -0.003 C 
ATOM     14  C   UNL     1      -1.404   4.334  25.568  0.00  0.00    +0.008 C 
ATOM     15  C   UNL     1      -3.159   4.614  23.805  0.00  0.00    +0.008 C 
ENDBRANCH  11  12
ENDBRANCH   2  11
ENDBRANCH  13   7
TORSDOF 5
ENDMDL
MODEL 6
REMARK VINA RESULT:      -0.3      1.653      2.994
REMARK  Name = 45783808
REMARK  9 active torsions:
REMARK  status: ('A' for Active; 'I' for Inactive)
REMARK    1  A    between atoms: N_2  and  C_11
REMARK    2  A    between atoms: N_6  and  C_21
REMARK    3  A    between atoms: N_6  and  C_22
REMARK    4  A    between atoms: N_6  and  C_23
REMARK    5  A    between atoms: C_7  and  C_13
REMARK    6  A    between atoms: C_11  and  C_12
REMARK    7  A    between atoms: C_12  and  C_14
REMARK    8  A    between atoms: C_12  and  C_15
REMARK    9  A    between atoms: C_16  and  C_17
REMARK                            x       y       z     vdW  Elec       q    Type
REMARK                         _______ _______ _______ _____ _____    ______ ____
ROOT
ATOM      1  O   UNL     1      -3.094   1.688  23.245  0.00  0.00    -0.336 OA
ATOM      3  N   UNL     1      -1.766   0.999  24.911  0.00  0.00    -0.190 NA
ATOM      4  N   UNL     1      -1.841   1.445  22.668  0.00  0.00    -0.056 NA
ATOM     13  C   UNL     1      -2.964   1.401  24.567  0.00  0.00    +0.245 A 
ATOM     16  C   UNL     1      -1.113   1.043  23.714  0.00  0.00    +0.204 A 
ENDROOT
BRANCH  16  17
ATOM      5  N   UNL     1       1.945  -1.062  23.499  0.00  0.00    -0.240 NA
ATOM     17  C   UNL     1       0.270   0.678  23.597  0.00  0.00    +0.041 A 
ATOM     18  C   UNL     1       1.259   1.647  23.469  0.00  0.00    +0.016 A 
ATOM     19  C   UNL     1       0.662  -0.651  23.606  0.00  0.00    +0.124 A 
ATOM     20  C   UNL     1       2.591   1.263  23.357  0.00  0.00    +0.044 A 
ATOM     21  C   UNL     1       2.878  -0.093  23.377  0.00  0.00    +0.121 A 
BRANCH  21   6
ATOM      6  N   UNL     1       4.239  -0.468  23.260  0.00  0.00    -0.321 N 
ATOM     22  C   UNL     1       5.196   0.441  22.668  0.00  0.00    +0.130 C 
ATOM     23  C   UNL     1       4.682  -1.758  23.739  0.00  0.00    +0.130 C 
ENDBRANCH  21   6
ENDBRANCH  16  17
BRANCH  13   7
ATOM      2  N   UNL     1      -4.691   2.976  25.418  0.00  0.00    -0.291 NA
ATOM      7  C   UNL     1      -4.198   1.585  25.423  0.00  0.00    +0.146 C 
ATOM      8  C   UNL     1      -5.393   0.745  24.932  0.00  0.00    +0.030 C 
ATOM      9  C   UNL     1      -6.137   2.904  25.627  0.00  0.00    +0.085 C 
ATOM     10  C   UNL     1      -6.526   1.742  24.736  0.00  0.00    +0.017 C 
BRANCH   2  11
ATOM     11  C   UNL     1      -4.036   3.822  26.407  0.00  0.00    +0.088 C 
BRANCH  11  12
ATOM     12  C   UNL     1      -2.956   4.725  25.784  0.00  0.00    -0.003 C 
ATOM     14  C   UNL     1      -1.576   4.096  25.987  0.00  0.00    +0.008 C 
ATOM     15  C   UNL     1      -3.192   4.978  24.292  0.00  0.00    +0.008 C 
ENDBRANCH  11  12
ENDBRANCH   2  11
ENDBRANCH  13   7
TORSDOF 5
ENDMDL
MODEL 7
REMARK VINA RESULT:      -0.1     15.161     16.845
REMARK  Name = 45783808
REMARK  9 active torsions:
REMARK  status: ('A' for Active; 'I' for Inactive)
REMARK    1  A    between atoms: N_2  and  C_11
REMARK    2  A    between atoms: N_6  and  C_21
REMARK    3  A    between atoms: N_6  and  C_22
REMARK    4  A    between atoms: N_6  and  C_23
REMARK    5  A    between atoms: C_7  and  C_13
REMARK    6  A    between atoms: C_11  and  C_12
REMARK    7  A    between atoms: C_12  and  C_14
REMARK    8  A    between atoms: C_12  and  C_15
REMARK    9  A    between atoms: C_16  and  C_17
REMARK                            x       y       z     vdW  Elec       q    Type
REMARK                         _______ _______ _______ _____ _____    ______ ____
ROOT
ATOM      1  O   UNL     1      -6.713 -10.777  13.256  0.00  0.00    -0.336 OA
ATOM      3  N   UNL     1      -5.841 -10.194  11.278  0.00  0.00    -0.190 NA
ATOM      4  N   UNL     1      -5.357 -10.516  13.491  0.00  0.00    -0.056 NA
ATOM     13  C   UNL     1      -6.915 -10.564  11.929  0.00  0.00    +0.245 A 
ATOM     16  C   UNL     1      -4.912 -10.179  12.276  0.00  0.00    +0.204 A 
ENDROOT
BRANCH  16  17
ATOM      5  N   UNL     1      -1.932  -8.652  10.659  0.00  0.00    -0.240 NA
ATOM     17  C   UNL     1      -3.545  -9.822  12.028  0.00  0.00    +0.041 A 
ATOM     18  C   UNL     1      -2.525 -10.266  12.863  0.00  0.00    +0.016 A 
ATOM     19  C   UNL     1      -3.198  -9.024  10.950  0.00  0.00    +0.124 A 
ATOM     20  C   UNL     1      -1.209  -9.903  12.598  0.00  0.00    +0.044 A 
ATOM     21  C   UNL     1      -0.968  -9.102  11.493  0.00  0.00    +0.121 A 
BRANCH  21   6
ATOM      6  N   UNL     1       0.378  -8.741  11.237  0.00  0.00    -0.321 N 
ATOM     22  C   UNL     1       1.200  -9.562  10.375  0.00  0.00    +0.130 C 
ATOM     23  C   UNL     1       0.935  -7.545  11.828  0.00  0.00    +0.130 C 
ENDBRANCH  21   6
ENDBRANCH  16  17
BRANCH  13   7
ATOM      2  N   UNL     1      -9.333 -10.049  12.205  0.00  0.00    -0.291 NA
ATOM      7  C   UNL     1      -8.322 -10.781  11.417  0.00  0.00    +0.146 C 
ATOM      8  C   UNL     1      -8.514 -10.279   9.973  0.00  0.00    +0.030 C 
ATOM      9  C   UNL     1     -10.433  -9.746  11.288  0.00  0.00    +0.085 C 
ATOM     10  C   UNL     1      -9.691  -9.317  10.039  0.00  0.00    +0.017 C 
BRANCH   2  11
ATOM     11  C   UNL     1      -9.786 -10.781  13.381  0.00  0.00    +0.088 C 
BRANCH  11  12
ATOM     12  C   UNL     1      -9.970  -9.867  14.606  0.00  0.00    -0.003 C 
ATOM     14  C   UNL     1     -10.658 -10.644  15.730  0.00  0.00    +0.008 C 
ATOM     15  C   UNL     1      -8.644  -9.292  15.113  0.00  0.00    +0.008 C 
ENDBRANCH  11  12
ENDBRANCH   2  11
ENDBRANCH  13   7
TORSDOF 5
ENDMDL
MODEL 8
REMARK VINA RESULT:       0.4      1.358      2.176
REMARK  Name = 45783808
REMARK  9 active torsions:
REMARK  status: ('A' for Active; 'I' for Inactive)
REMARK    1  A    between atoms: N_2  and  C_11
REMARK    2  A    between atoms: N_6  and  C_21
REMARK    3  A    between atoms: N_6  and  C_22
REMARK    4  A    between atoms: N_6  and  C_23
REMARK    5  A    between atoms: C_7  and  C_13
REMARK    6  A    between atoms: C_11  and  C_12
REMARK    7  A    between atoms: C_12  and  C_14
REMARK    8  A    between atoms: C_12  and  C_15
REMARK    9  A    between atoms: C_16  and  C_17
REMARK                            x       y       z     vdW  Elec       q    Type
REMARK                         _______ _______ _______ _____ _____    ______ ____
ROOT
ATOM      1  O   UNL     1      -2.516   1.926  22.847  0.00  0.00    -0.336 OA
ATOM      3  N   UNL     1      -0.839   2.473  24.227  0.00  0.00    -0.190 NA
ATOM      4  N   UNL     1      -1.441   1.097  22.501  0.00  0.00    -0.056 NA
ATOM     13  C   UNL     1      -2.077   2.705  23.871  0.00  0.00    +0.245 A 
ATOM     16  C   UNL     1      -0.491   1.480  23.359  0.00  0.00    +0.204 A 
ENDROOT
BRANCH  16  17
ATOM      5  N   UNL     1       3.216   1.184  23.317  0.00  0.00    -0.240 NA
ATOM     17  C   UNL     1       0.818   0.890  23.375  0.00  0.00    +0.041 A 
ATOM     18  C   UNL     1       0.981  -0.489  23.459  0.00  0.00    +0.016 A 
ATOM     19  C   UNL     1       1.957   1.675  23.307  0.00  0.00    +0.124 A 
ATOM     20  C   UNL     1       2.261  -1.032  23.472  0.00  0.00    +0.044 A 
ATOM     21  C   UNL     1       3.336  -0.160  23.399  0.00  0.00    +0.121 A 
BRANCH  21   6
ATOM      6  N   UNL     1       4.633  -0.728  23.415  0.00  0.00    -0.321 N 
ATOM     22  C   UNL     1       5.783   0.072  23.052  0.00  0.00    +0.130 C 
ATOM     23  C   UNL     1       4.818  -2.109  23.803  0.00  0.00    +0.130 C 
ENDBRANCH  21   6
ENDBRANCH  16  17
BRANCH  13   7
ATOM      2  N   UNL     1      -4.095   3.065  25.281  0.00  0.00    -0.291 NA
ATOM      7  C   UNL     1      -3.068   3.702  24.433  0.00  0.00    +0.146 C 
ATOM      8  C   UNL     1      -2.404   4.751  25.344  0.00  0.00    +0.030 C 
ATOM      9  C   UNL     1      -4.496   4.068  26.269  0.00  0.00    +0.085 C 
ATOM     10  C   UNL     1      -3.163   4.673  26.661  0.00  0.00    +0.017 C 
BRANCH   2  11
ATOM     11  C   UNL     1      -5.231   2.556  24.524  0.00  0.00    +0.088 C 
BRANCH  11  12
ATOM     12  C   UNL     1      -5.734   1.204  25.059  0.00  0.00    -0.003 C 
ATOM     14  C   UNL     1      -4.588   0.190  25.062  0.00  0.00    +0.008 C 
ATOM     15  C   UNL     1      -6.329   1.313  26.466  0.00  0.00    +0.008 C 
ENDBRANCH  11  12
ENDBRANCH   2  11
ENDBRANCH  13   7
TORSDOF 5
ENDMDL
MODEL 9
REMARK VINA RESULT:       1.1     14.454     15.648
REMARK  Name = 45783808
REMARK  9 active torsions:
REMARK  status: ('A' for Active; 'I' for Inactive)
REMARK    1  A    between atoms: N_2  and  C_11
REMARK    2  A    between atoms: N_6  and  C_21
REMARK    3  A    between atoms: N_6  and  C_22
REMARK    4  A    between atoms: N_6  and  C_23
REMARK    5  A    between atoms: C_7  and  C_13
REMARK    6  A    between atoms: C_11  and  C_12
REMARK    7  A    between atoms: C_12  and  C_14
REMARK    8  A    between atoms: C_12  and  C_15
REMARK    9  A    between atoms: C_16  and  C_17
REMARK                            x       y       z     vdW  Elec       q    Type
REMARK                         _______ _______ _______ _____ _____    ______ ____
ROOT
ATOM      1  O   UNL     1      -6.389 -10.781  15.247  0.00  0.00    -0.336 OA
ATOM      3  N   UNL     1      -6.100 -10.102  13.133  0.00  0.00    -0.190 NA
ATOM      4  N   UNL     1      -5.010 -10.601  15.082  0.00  0.00    -0.056 NA
ATOM     13  C   UNL     1      -6.956 -10.466  14.053  0.00  0.00    +0.245 A 
ATOM     16  C   UNL     1      -4.919 -10.201  13.810  0.00  0.00    +0.204 A 
ENDROOT
BRANCH  16  17
ATOM      5  N   UNL     1      -1.284  -9.532  13.402  0.00  0.00    -0.240 NA
ATOM     17  C   UNL     1      -3.664  -9.892  13.186  0.00  0.00    +0.041 A 
ATOM     18  C   UNL     1      -3.583  -9.657  11.817  0.00  0.00    +0.016 A 
ATOM     19  C   UNL     1      -2.496  -9.818  13.926  0.00  0.00    +0.124 A 
ATOM     20  C   UNL     1      -2.353  -9.360  11.240  0.00  0.00    +0.044 A 
ATOM     21  C   UNL     1      -1.244  -9.310  12.069  0.00  0.00    +0.121 A 
BRANCH  21   6
ATOM      6  N   UNL     1       0.002  -9.007  11.466  0.00  0.00    -0.321 N 
ATOM     22  C   UNL     1       0.575  -9.907  10.489  0.00  0.00    +0.130 C 
ATOM     23  C   UNL     1       0.704  -7.793  11.818  0.00  0.00    +0.130 C 
ENDBRANCH  21   6
ENDBRANCH  16  17
BRANCH  13   7
ATOM      2  N   UNL     1      -9.148  -9.873  15.071  0.00  0.00    -0.291 NA
ATOM      7  C   UNL     1      -8.463 -10.581  13.971  0.00  0.00    +0.146 C 
ATOM      8  C   UNL     1      -9.038  -9.956  12.685  0.00  0.00    +0.030 C 
ATOM      9  C   UNL     1     -10.446  -9.450  14.545  0.00  0.00    +0.085 C 
ATOM     10  C   UNL     1     -10.079  -8.953  13.162  0.00  0.00    +0.017 C 
BRANCH   2  11
ATOM     11  C   UNL     1      -9.280 -10.677  16.278  0.00  0.00    +0.088 C 
BRANCH  11  12
ATOM     12  C   UNL     1      -9.118  -9.842  17.561  0.00  0.00    -0.003 C 
ATOM     14  C   UNL     1     -10.455  -9.771  18.302  0.00  0.00    +0.008 C 
ATOM     15  C   UNL     1      -8.040 -10.402  18.493  0.00  0.00    +0.008 C 
ENDBRANCH  11  12
ENDBRANCH   2  11
ENDBRANCH  13   7
TORSDOF 5
ENDMDL
MODEL 10
REMARK VINA RESULT:       1.3      1.648      3.351
REMARK  Name = 45783808
REMARK  9 active torsions:
REMARK  status: ('A' for Active; 'I' for Inactive)
REMARK    1  A    between atoms: N_2  and  C_11
REMARK    2  A    between atoms: N_6  and  C_21
REMARK    3  A    between atoms: N_6  and  C_22
REMARK    4  A    between atoms: N_6  and  C_23
REMARK    5  A    between atoms: C_7  and  C_13
REMARK    6  A    between atoms: C_11  and  C_12
REMARK    7  A    between atoms: C_12  and  C_14
REMARK    8  A    between atoms: C_12  and  C_15
REMARK    9  A    between atoms: C_16  and  C_17
REMARK                            x       y       z     vdW  Elec       q    Type
REMARK                         _______ _______ _______ _____ _____    ______ ____
ROOT
ATOM      1  O   UNL     1      -1.358   0.643  23.294  0.00  0.00    -0.336 OA
ATOM      3  N   UNL     1      -0.029  -0.775  24.407  0.00  0.00    -0.190 NA
ATOM      4  N   UNL     1      -0.050   0.937  22.889  0.00  0.00    -0.056 NA
ATOM     13  C   UNL     1      -1.256  -0.377  24.188  0.00  0.00    +0.245 A 
ATOM     16  C   UNL     1       0.675   0.060  23.589  0.00  0.00    +0.204 A 
ENDROOT
BRANCH  16  17
ATOM      5  N   UNL     1       4.194   1.087  22.963  0.00  0.00    -0.240 NA
ATOM     17  C   UNL     1       2.106  -0.008  23.494  0.00  0.00    +0.041 A 
ATOM     18  C   UNL     1       2.791  -1.174  23.819  0.00  0.00    +0.016 A 
ATOM     19  C   UNL     1       2.847   1.084  23.075  0.00  0.00    +0.124 A 
ATOM     20  C   UNL     1       4.177  -1.210  23.717  0.00  0.00    +0.044 A 
ATOM     21  C   UNL     1       4.826  -0.063  23.288  0.00  0.00    +0.121 A 
BRANCH  21   6
ATOM      6  N   UNL     1       6.238  -0.115  23.191  0.00  0.00    -0.321 N 
ATOM     22  C   UNL     1       7.050   0.895  23.834  0.00  0.00    +0.130 C 
ATOM     23  C   UNL     1       6.877  -1.183  22.455  0.00  0.00    +0.130 C 
ENDBRANCH  21   6
ENDBRANCH  16  17
BRANCH  13   7
ATOM      2  N   UNL     1      -3.719  -0.081  24.373  0.00  0.00    -0.291 NA
ATOM      7  C   UNL     1      -2.552  -0.886  24.781  0.00  0.00    +0.146 C 
ATOM      8  C   UNL     1      -2.889  -2.321  24.330  0.00  0.00    +0.030 C 
ATOM      9  C   UNL     1      -4.868  -0.987  24.374  0.00  0.00    +0.085 C 
ATOM     10  C   UNL     1      -4.288  -2.232  23.736  0.00  0.00    +0.017 C 
BRANCH   2  11
ATOM     11  C   UNL     1      -3.939   1.084  25.220  0.00  0.00    +0.088 C 
BRANCH  11  12
ATOM     12  C   UNL     1      -4.741   2.186  24.506  0.00  0.00    -0.003 C 
ATOM     14  C   UNL     1      -5.691   2.859  25.498  0.00  0.00    +0.008 C 
ATOM     15  C   UNL     1      -3.840   3.242  23.859  0.00  0.00    +0.008 C 
ENDBRANCH  11  12
ENDBRANCH   2  11
ENDBRANCH  13   7
TORSDOF 5
ENDMDL
