MODEL 1
REMARK VINA RESULT:      -2.1      0.000      0.000
REMARK  Name = 11886195
REMARK  7 active torsions:
REMARK  status: ('A' for Active; 'I' for Inactive)
REMARK    1  A    between atoms: S_1  and  N_7
REMARK    2  A    between atoms: S_1  and  C_20
REMARK    3  A    between atoms: O_4  and  C_19
REMARK    4  A    between atoms: O_4  and  C_23
REMARK    5  A    between atoms: N_7  and  C_15
REMARK    6  A    between atoms: N_8  and  C_16
REMARK    7  A    between atoms: C_21  and  C_27
REMARK                            x       y       z     vdW  Elec       q    Type
REMARK                         _______ _______ _______ _____ _____    ______ ____
ROOT
ATOM      2  O   UNL     1      -2.530  -2.500  23.890  0.00  0.00    -0.370 OA
ATOM      3  O   UNL     1      -1.581  -0.851  26.394  0.00  0.00    -0.370 OA
ATOM     13  C   UNL     1      -2.463  -0.580  25.293  0.00  0.00    +0.170 C 
ATOM     14  C   UNL     1      -1.871  -1.231  24.058  0.00  0.00    +0.175 C 
ATOM     15  C   UNL     1      -3.784  -1.289  25.494  0.00  0.00    +0.133 C 
ATOM     16  C   UNL     1      -0.410  -1.451  24.402  0.00  0.00    +0.171 C 
ATOM     17  C   UNL     1      -3.497  -2.671  24.935  0.00  0.00    +0.183 C 
ATOM     18  C   UNL     1      -0.428  -1.560  25.922  0.00  0.00    +0.190 C 
ENDROOT
BRANCH  16   8
ATOM      8  N   UNL     1       0.457  -0.398  23.866  0.00  0.00    -0.187 N 
ATOM      9  N   UNL     1       1.238  -0.627  22.806  0.00  0.00    -0.041 NA
ATOM     10  N   UNL     1       1.492   1.468  23.525  0.00  0.00    -0.071 NA
ATOM     11  N   UNL     1       1.872   0.522  22.601  0.00  0.00    -0.020 NA
ATOM     19  C   UNL     1       0.613   0.874  24.300  0.00  0.00    +0.342 A 
BRANCH  19   4
ATOM      4  O   UNL     1      -0.018   1.408  25.328  0.00  0.00    -0.423 OA
BRANCH   4  23
ATOM     23  C   UNL     1      -0.531   2.696  25.305  0.00  0.00    +0.132 A 
ATOM     28  C   UNL     1      -1.578   3.017  26.149  0.00  0.00    +0.046 A 
ATOM     29  C   UNL     1       0.019   3.622  24.440  0.00  0.00    +0.046 A 
ATOM     30  C   UNL     1      -2.094   4.313  26.124  0.00  0.00    +0.004 A 
ATOM     31  C   UNL     1      -0.497   4.917  24.416  0.00  0.00    +0.004 A 
ATOM     32  C   UNL     1      -1.554   5.263  25.258  0.00  0.00    +0.000 A 
ENDBRANCH   4  23
ENDBRANCH  19   4
ENDBRANCH  16   8
BRANCH  15   7
ATOM      7  N   UNL     1      -4.842  -0.639  24.759  0.00  0.00    -0.182 NA
ATOM     33  H   UNL     1      -5.127  -1.038  23.857  0.00  0.00    +0.148 HD
BRANCH   7   1
ATOM      1  S   UNL     1      -5.328   0.931  25.190  0.00  0.00    +0.060 S 
ATOM      5  O   UNL     1      -4.866   1.227  26.533  0.00  0.00    -0.153 OA
ATOM      6  O   UNL     1      -6.727   1.098  24.845  0.00  0.00    -0.153 OA
BRANCH   1  20
ATOM     20  C   UNL     1      -4.396   1.923  24.062  0.00  0.00    +0.123 A 
ATOM     21  C   UNL     1      -4.509   3.305  24.055  0.00  0.00    +0.078 A 
ATOM     22  C   UNL     1      -3.547   1.269  23.180  0.00  0.00    +0.030 A 
ATOM     24  C   UNL     1      -3.755   4.051  23.147  0.00  0.00    +0.021 A 
ATOM     25  C   UNL     1      -2.793   2.015  22.274  0.00  0.00    +0.002 A 
ATOM     26  C   UNL     1      -2.897   3.405  22.258  0.00  0.00    +0.001 A 
BRANCH  21  27
ATOM     12  N   UNL     1      -6.084   4.563  25.682  0.00  0.00    -0.191 NA
ATOM     27  C   UNL     1      -5.379   4.001  24.955  0.00  0.00    +0.101 C 
ENDBRANCH  21  27
ENDBRANCH   1  20
ENDBRANCH   7   1
ENDBRANCH  15   7
TORSDOF 7
ENDMDL
MODEL 2
REMARK VINA RESULT:      -1.0      2.592      4.720
REMARK  Name = 11886195
REMARK  7 active torsions:
REMARK  status: ('A' for Active; 'I' for Inactive)
REMARK    1  A    between atoms: S_1  and  N_7
REMARK    2  A    between atoms: S_1  and  C_20
REMARK    3  A    between atoms: O_4  and  C_19
REMARK    4  A    between atoms: O_4  and  C_23
REMARK    5  A    between atoms: N_7  and  C_15
REMARK    6  A    between atoms: N_8  and  C_16
REMARK    7  A    between atoms: C_21  and  C_27
REMARK                            x       y       z     vdW  Elec       q    Type
REMARK                         _______ _______ _______ _____ _____    ______ ____
ROOT
ATOM      2  O   UNL     1      -0.648   2.869  26.726  0.00  0.00    -0.370 OA
ATOM      3  O   UNL     1      -0.472   3.095  23.594  0.00  0.00    -0.370 OA
ATOM     13  C   UNL     1      -1.546   2.883  24.523  0.00  0.00    +0.170 C 
ATOM     14  C   UNL     1      -1.022   2.002  25.640  0.00  0.00    +0.175 C 
ATOM     15  C   UNL     1      -1.909   4.181  25.210  0.00  0.00    +0.133 C 
ATOM     16  C   UNL     1       0.214   1.339  25.060  0.00  0.00    +0.171 C 
ATOM     17  C   UNL     1      -0.916   4.228  26.356  0.00  0.00    +0.183 C 
ATOM     18  C   UNL     1       0.675   2.339  24.005  0.00  0.00    +0.190 C 
ENDROOT
BRANCH  16   8
ATOM      8  N   UNL     1      -0.056  -0.011  24.559  0.00  0.00    -0.187 N 
ATOM      9  N   UNL     1      -0.956  -0.797  25.157  0.00  0.00    -0.041 NA
ATOM     10  N   UNL     1      -0.036  -1.846  23.418  0.00  0.00    -0.071 NA
ATOM     11  N   UNL     1      -0.940  -1.923  24.452  0.00  0.00    -0.020 NA
ATOM     19  C   UNL     1       0.501  -0.650  23.504  0.00  0.00    +0.342 A 
BRANCH  19   4
ATOM      4  O   UNL     1       1.424  -0.142  22.710  0.00  0.00    -0.423 OA
BRANCH   4  23
ATOM     23  C   UNL     1       2.777  -0.174  23.019  0.00  0.00    +0.132 A 
ATOM     28  C   UNL     1       3.309  -1.320  23.580  0.00  0.00    +0.046 A 
ATOM     29  C   UNL     1       3.552   0.938  22.756  0.00  0.00    +0.046 A 
ATOM     30  C   UNL     1       4.669  -1.352  23.891  0.00  0.00    +0.004 A 
ATOM     31  C   UNL     1       4.911   0.906  23.066  0.00  0.00    +0.004 A 
ATOM     32  C   UNL     1       5.470  -0.239  23.635  0.00  0.00    +0.000 A 
ENDBRANCH   4  23
ENDBRANCH  19   4
ENDBRANCH  16   8
BRANCH  15   7
ATOM      7  N   UNL     1      -3.267   4.152  25.697  0.00  0.00    -0.182 NA
ATOM     33  H   UNL     1      -3.420   4.095  26.710  0.00  0.00    +0.148 HD
BRANCH   7   1
ATOM      1  S   UNL     1      -4.543   3.843  24.619  0.00  0.00    +0.060 S 
ATOM      5  O   UNL     1      -4.267   4.483  23.347  0.00  0.00    -0.153 OA
ATOM      6  O   UNL     1      -5.800   4.086  25.302  0.00  0.00    -0.153 OA
BRANCH   1  20
ATOM     20  C   UNL     1      -4.411   2.095  24.391  0.00  0.00    +0.123 A 
ATOM     21  C   UNL     1      -5.076   1.207  25.224  0.00  0.00    +0.078 A 
ATOM     22  C   UNL     1      -3.618   1.641  23.346  0.00  0.00    +0.030 A 
ATOM     24  C   UNL     1      -4.944  -0.166  25.009  0.00  0.00    +0.021 A 
ATOM     25  C   UNL     1      -3.487   0.269  23.130  0.00  0.00    +0.002 A 
ATOM     26  C   UNL     1      -4.150  -0.634  23.962  0.00  0.00    +0.001 A 
BRANCH  21  27
ATOM     12  N   UNL     1      -6.564   2.013  27.184  0.00  0.00    -0.191 NA
ATOM     27  C   UNL     1      -5.898   1.653  26.308  0.00  0.00    +0.101 C 
ENDBRANCH  21  27
ENDBRANCH   1  20
ENDBRANCH   7   1
ENDBRANCH  15   7
TORSDOF 7
ENDMDL
MODEL 3
REMARK VINA RESULT:      -0.6      2.229      6.782
REMARK  Name = 11886195
REMARK  7 active torsions:
REMARK  status: ('A' for Active; 'I' for Inactive)
REMARK    1  A    between atoms: S_1  and  N_7
REMARK    2  A    between atoms: S_1  and  C_20
REMARK    3  A    between atoms: O_4  and  C_19
REMARK    4  A    between atoms: O_4  and  C_23
REMARK    5  A    between atoms: N_7  and  C_15
REMARK    6  A    between atoms: N_8  and  C_16
REMARK    7  A    between atoms: C_21  and  C_27
REMARK                            x       y       z     vdW  Elec       q    Type
REMARK                         _______ _______ _______ _____ _____    ______ ____
ROOT
ATOM      2  O   UNL     1      -2.371   5.068  24.216  0.00  0.00    -0.370 OA
ATOM      3  O   UNL     1      -2.324   3.718  27.056  0.00  0.00    -0.370 OA
ATOM     13  C   UNL     1      -1.941   3.292  25.739  0.00  0.00    +0.170 C 
ATOM     14  C   UNL     1      -2.946   3.866  24.759  0.00  0.00    +0.175 C 
ATOM     15  C   UNL     1      -0.627   3.929  25.344  0.00  0.00    +0.133 C 
ATOM     16  C   UNL     1      -4.156   4.210  25.606  0.00  0.00    +0.171 C 
ATOM     17  C   UNL     1      -1.072   5.269  24.790  0.00  0.00    +0.183 C 
ATOM     18  C   UNL     1      -3.552   4.455  26.984  0.00  0.00    +0.190 C 
ENDROOT
BRANCH  16   8
ATOM      8  N   UNL     1      -5.189   3.172  25.557  0.00  0.00    -0.187 N 
ATOM      9  N   UNL     1      -6.472   3.469  25.788  0.00  0.00    -0.041 NA
ATOM     10  N   UNL     1      -6.240   1.294  25.358  0.00  0.00    -0.071 NA
ATOM     11  N   UNL     1      -7.113   2.313  25.664  0.00  0.00    -0.020 NA
ATOM     19  C   UNL     1      -5.052   1.851  25.296  0.00  0.00    +0.342 A 
BRANCH  19   4
ATOM      4  O   UNL     1      -3.911   1.246  25.029  0.00  0.00    -0.423 OA
BRANCH   4  23
ATOM     23  C   UNL     1      -3.805  -0.133  24.911  0.00  0.00    +0.132 A 
ATOM     28  C   UNL     1      -4.153  -0.732  23.716  0.00  0.00    +0.046 A 
ATOM     29  C   UNL     1      -3.354  -0.866  25.992  0.00  0.00    +0.046 A 
ATOM     30  C   UNL     1      -4.047  -2.119  23.598  0.00  0.00    +0.004 A 
ATOM     31  C   UNL     1      -3.248  -2.251  25.874  0.00  0.00    +0.004 A 
ATOM     32  C   UNL     1      -3.595  -2.878  24.677  0.00  0.00    +0.000 A 
ENDBRANCH   4  23
ENDBRANCH  19   4
ENDBRANCH  16   8
BRANCH  15   7
ATOM      7  N   UNL     1       0.050   3.147  24.337  0.00  0.00    -0.182 NA
ATOM     33  H   UNL     1       0.591   3.641  23.619  0.00  0.00    +0.148 HD
BRANCH   7   1
ATOM      1  S   UNL     1      -0.348   1.508  24.133  0.00  0.00    +0.060 S 
ATOM      5  O   UNL     1      -1.318   1.377  23.062  0.00  0.00    -0.153 OA
ATOM      6  O   UNL     1      -0.615   0.926  25.435  0.00  0.00    -0.153 OA
BRANCH   1  20
ATOM     20  C   UNL     1       1.183   0.829  23.568  0.00  0.00    +0.123 A 
ATOM     21  C   UNL     1       1.370  -0.542  23.469  0.00  0.00    +0.078 A 
ATOM     22  C   UNL     1       2.193   1.717  23.226  0.00  0.00    +0.030 A 
ATOM     24  C   UNL     1       2.595  -1.036  23.019  0.00  0.00    +0.021 A 
ATOM     25  C   UNL     1       3.417   1.223  22.775  0.00  0.00    +0.002 A 
ATOM     26  C   UNL     1       3.618  -0.154  22.672  0.00  0.00    +0.001 A 
BRANCH  21  27
ATOM     12  N   UNL     1      -0.489  -2.232  24.099  0.00  0.00    -0.191 NA
ATOM     27  C   UNL     1       0.342  -1.476  23.817  0.00  0.00    +0.101 C 
ENDBRANCH  21  27
ENDBRANCH   1  20
ENDBRANCH   7   1
ENDBRANCH  15   7
TORSDOF 7
ENDMDL
MODEL 4
REMARK VINA RESULT:       0.0      1.330      2.190
REMARK  Name = 11886195
REMARK  7 active torsions:
REMARK  status: ('A' for Active; 'I' for Inactive)
REMARK    1  A    between atoms: S_1  and  N_7
REMARK    2  A    between atoms: S_1  and  C_20
REMARK    3  A    between atoms: O_4  and  C_19
REMARK    4  A    between atoms: O_4  and  C_23
REMARK    5  A    between atoms: N_7  and  C_15
REMARK    6  A    between atoms: N_8  and  C_16
REMARK    7  A    between atoms: C_21  and  C_27
REMARK                            x       y       z     vdW  Elec       q    Type
REMARK                         _______ _______ _______ _____ _____    ______ ____
ROOT
ATOM      2  O   UNL     1      -2.543  -1.945  23.858  0.00  0.00    -0.370 OA
ATOM      3  O   UNL     1      -0.651  -1.527  26.335  0.00  0.00    -0.370 OA
ATOM     13  C   UNL     1      -1.698  -0.751  25.733  0.00  0.00    +0.170 C 
ATOM     14  C   UNL     1      -1.598  -0.926  24.231  0.00  0.00    +0.175 C 
ATOM     15  C   UNL     1      -3.050  -1.330  26.089  0.00  0.00    +0.133 C 
ATOM     16  C   UNL     1      -0.184  -1.424  23.995  0.00  0.00    +0.171 C 
ATOM     17  C   UNL     1      -3.228  -2.404  25.032  0.00  0.00    +0.183 C 
ATOM     18  C   UNL     1       0.158  -2.118  25.308  0.00  0.00    +0.190 C 
ENDROOT
BRANCH  16   8
ATOM      8  N   UNL     1       0.731  -0.349  23.604  0.00  0.00    -0.187 N 
ATOM      9  N   UNL     1       1.591  -0.513  22.594  0.00  0.00    -0.041 NA
ATOM     10  N   UNL     1       1.807   1.521  23.480  0.00  0.00    -0.071 NA
ATOM     11  N   UNL     1       2.249   0.638  22.522  0.00  0.00    -0.020 NA
ATOM     19  C   UNL     1       0.865   0.887  24.140  0.00  0.00    +0.342 A 
BRANCH  19   4
ATOM      4  O   UNL     1       0.160   1.355  25.152  0.00  0.00    -0.423 OA
BRANCH   4  23
ATOM     23  C   UNL     1      -0.390   2.629  25.155  0.00  0.00    +0.132 A 
ATOM     28  C   UNL     1       0.024   3.540  24.203  0.00  0.00    +0.046 A 
ATOM     29  C   UNL     1      -1.337   2.948  26.110  0.00  0.00    +0.046 A 
ATOM     30  C   UNL     1      -0.529   4.822  24.207  0.00  0.00    +0.004 A 
ATOM     31  C   UNL     1      -1.890   4.228  26.113  0.00  0.00    +0.004 A 
ATOM     32  C   UNL     1      -1.486   5.166  25.162  0.00  0.00    +0.000 A 
ENDBRANCH   4  23
ENDBRANCH  19   4
ENDBRANCH  16   8
BRANCH  15   7
ATOM      7  N   UNL     1      -4.087  -0.330  25.997  0.00  0.00    -0.182 NA
ATOM     33  H   UNL     1      -4.604  -0.085  26.849  0.00  0.00    +0.148 HD
BRANCH   7   1
ATOM      1  S   UNL     1      -4.676   0.137  24.474  0.00  0.00    +0.060 S 
ATOM      5  O   UNL     1      -5.989  -0.442  24.266  0.00  0.00    -0.153 OA
ATOM      6  O   UNL     1      -3.628  -0.055  23.489  0.00  0.00    -0.153 OA
BRANCH   1  20
ATOM     20  C   UNL     1      -4.875   1.881  24.680  0.00  0.00    +0.123 A 
ATOM     21  C   UNL     1      -4.175   2.785  23.894  0.00  0.00    +0.078 A 
ATOM     22  C   UNL     1      -5.759   2.317  25.658  0.00  0.00    +0.030 A 
ATOM     24  C   UNL     1      -4.362   4.154  24.090  0.00  0.00    +0.021 A 
ATOM     25  C   UNL     1      -5.947   3.685  25.853  0.00  0.00    +0.002 A 
ATOM     26  C   UNL     1      -5.248   4.603  25.069  0.00  0.00    +0.001 A 
BRANCH  21  27
ATOM     12  N   UNL     1      -2.516   2.014  22.061  0.00  0.00    -0.191 NA
ATOM     27  C   UNL     1      -3.257   2.358  22.881  0.00  0.00    +0.101 C 
ENDBRANCH  21  27
ENDBRANCH   1  20
ENDBRANCH   7   1
ENDBRANCH  15   7
TORSDOF 7
ENDMDL
MODEL 5
REMARK VINA RESULT:       0.7      2.148      3.554
REMARK  Name = 11886195
REMARK  7 active torsions:
REMARK  status: ('A' for Active; 'I' for Inactive)
REMARK    1  A    between atoms: S_1  and  N_7
REMARK    2  A    between atoms: S_1  and  C_20
REMARK    3  A    between atoms: O_4  and  C_19
REMARK    4  A    between atoms: O_4  and  C_23
REMARK    5  A    between atoms: N_7  and  C_15
REMARK    6  A    between atoms: N_8  and  C_16
REMARK    7  A    between atoms: C_21  and  C_27
REMARK                            x       y       z     vdW  Elec       q    Type
REMARK                         _______ _______ _______ _____ _____    ______ ____
ROOT
ATOM      2  O   UNL     1      -2.329  -1.874  23.653  0.00  0.00    -0.370 OA
ATOM      3  O   UNL     1      -2.032  -0.702  26.556  0.00  0.00    -0.370 OA
ATOM     13  C   UNL     1      -2.832  -0.357  25.415  0.00  0.00    +0.170 C 
ATOM     14  C   UNL     1      -1.986  -0.578  24.176  0.00  0.00    +0.175 C 
ATOM     15  C   UNL     1      -3.979  -1.332  25.264  0.00  0.00    +0.133 C 
ATOM     16  C   UNL     1      -0.556  -0.588  24.682  0.00  0.00    +0.171 C 
ATOM     17  C   UNL     1      -3.338  -2.464  24.483  0.00  0.00    +0.183 C 
ATOM     18  C   UNL     1      -0.708  -1.049  26.128  0.00  0.00    +0.190 C 
ENDROOT
BRANCH  16   8
ATOM      8  N   UNL     1       0.109   0.706  24.511  0.00  0.00    -0.187 N 
ATOM      9  N   UNL     1      -0.334   1.795  25.145  0.00  0.00    -0.041 NA
ATOM     10  N   UNL     1       1.445   2.290  23.897  0.00  0.00    -0.071 NA
ATOM     11  N   UNL     1       0.489   2.765  24.764  0.00  0.00    -0.020 NA
ATOM     19  C   UNL     1       1.190   1.010  23.754  0.00  0.00    +0.342 A 
BRANCH  19   4
ATOM      4  O   UNL     1       1.858   0.151  23.006  0.00  0.00    -0.423 OA
BRANCH   4  23
ATOM     23  C   UNL     1       3.195  -0.147  23.223  0.00  0.00    +0.132 A 
ATOM     28  C   UNL     1       4.149   0.817  22.954  0.00  0.00    +0.046 A 
ATOM     29  C   UNL     1       3.535  -1.397  23.701  0.00  0.00    +0.046 A 
ATOM     30  C   UNL     1       5.494   0.517  23.171  0.00  0.00    +0.004 A 
ATOM     31  C   UNL     1       4.880  -1.697  23.918  0.00  0.00    +0.004 A 
ATOM     32  C   UNL     1       5.860  -0.740  23.652  0.00  0.00    +0.000 A 
ENDBRANCH   4  23
ENDBRANCH  19   4
ENDBRANCH  16   8
BRANCH  15   7
ATOM      7  N   UNL     1      -5.071  -0.743  24.528  0.00  0.00    -0.182 NA
ATOM     33  H   UNL     1      -5.350  -1.175  23.640  0.00  0.00    +0.148 HD
BRANCH   7   1
ATOM      1  S   UNL     1      -5.614   0.816  24.928  0.00  0.00    +0.060 S 
ATOM      5  O   UNL     1      -5.471   1.026  26.356  0.00  0.00    -0.153 OA
ATOM      6  O   UNL     1      -6.893   1.045  24.281  0.00  0.00    -0.153 OA
BRANCH   1  20
ATOM     20  C   UNL     1      -4.430   1.838  24.104  0.00  0.00    +0.123 A 
ATOM     21  C   UNL     1      -4.331   3.193  24.381  0.00  0.00    +0.078 A 
ATOM     22  C   UNL     1      -3.600   1.234  23.169  0.00  0.00    +0.030 A 
ATOM     24  C   UNL     1      -3.381   3.963  23.707  0.00  0.00    +0.021 A 
ATOM     25  C   UNL     1      -2.650   2.004  22.497  0.00  0.00    +0.002 A 
ATOM     26  C   UNL     1      -2.541   3.368  22.766  0.00  0.00    +0.001 A 
BRANCH  21  27
ATOM     12  N   UNL     1      -5.861   4.357  26.116  0.00  0.00    -0.191 NA
ATOM     27  C   UNL     1      -5.176   3.837  25.340  0.00  0.00    +0.101 C 
ENDBRANCH  21  27
ENDBRANCH   1  20
ENDBRANCH   7   1
ENDBRANCH  15   7
TORSDOF 7
ENDMDL
MODEL 6
REMARK VINA RESULT:       1.1      2.204      6.785
REMARK  Name = 11886195
REMARK  7 active torsions:
REMARK  status: ('A' for Active; 'I' for Inactive)
REMARK    1  A    between atoms: S_1  and  N_7
REMARK    2  A    between atoms: S_1  and  C_20
REMARK    3  A    between atoms: O_4  and  C_19
REMARK    4  A    between atoms: O_4  and  C_23
REMARK    5  A    between atoms: N_7  and  C_15
REMARK    6  A    between atoms: N_8  and  C_16
REMARK    7  A    between atoms: C_21  and  C_27
REMARK                            x       y       z     vdW  Elec       q    Type
REMARK                         _______ _______ _______ _____ _____    ______ ____
ROOT
ATOM      2  O   UNL     1      -2.163   3.788  23.671  0.00  0.00    -0.370 OA
ATOM      3  O   UNL     1      -2.804   4.833  26.567  0.00  0.00    -0.370 OA
ATOM     13  C   UNL     1      -2.080   3.706  26.047  0.00  0.00    +0.170 C 
ATOM     14  C   UNL     1      -2.817   3.214  24.817  0.00  0.00    +0.175 C 
ATOM     15  C   UNL     1      -0.731   4.147  25.524  0.00  0.00    +0.133 C 
ATOM     16  C   UNL     1      -4.216   3.785  24.951  0.00  0.00    +0.171 C 
ATOM     17  C   UNL     1      -1.063   4.596  24.113  0.00  0.00    +0.183 C 
ATOM     18  C   UNL     1      -3.996   5.035  25.795  0.00  0.00    +0.190 C 
ENDROOT
BRANCH  16   8
ATOM      8  N   UNL     1      -5.166   2.819  25.509  0.00  0.00    -0.187 N 
ATOM      9  N   UNL     1      -6.038   3.182  26.454  0.00  0.00    -0.041 NA
ATOM     10  N   UNL     1      -6.291   1.026  25.946  0.00  0.00    -0.071 NA
ATOM     11  N   UNL     1      -6.727   2.078  26.719  0.00  0.00    -0.020 NA
ATOM     19  C   UNL     1      -5.322   1.510  25.203  0.00  0.00    +0.342 A 
BRANCH  19   4
ATOM      4  O   UNL     1      -4.611   0.850  24.308  0.00  0.00    -0.423 OA
BRANCH   4  23
ATOM     23  C   UNL     1      -4.260  -0.483  24.466  0.00  0.00    +0.132 A 
ATOM     28  C   UNL     1      -3.928  -0.944  25.726  0.00  0.00    +0.046 A 
ATOM     29  C   UNL     1      -4.252  -1.310  23.360  0.00  0.00    +0.046 A 
ATOM     30  C   UNL     1      -3.574  -2.285  25.884  0.00  0.00    +0.004 A 
ATOM     31  C   UNL     1      -3.899  -2.650  23.518  0.00  0.00    +0.004 A 
ATOM     32  C   UNL     1      -3.559  -3.138  24.780  0.00  0.00    +0.000 A 
ENDBRANCH   4  23
ENDBRANCH  19   4
ENDBRANCH  16   8
BRANCH  15   7
ATOM      7  N   UNL     1       0.208   3.052  25.515  0.00  0.00    -0.182 NA
ATOM     33  H   UNL     1       0.869   2.970  26.297  0.00  0.00    +0.148 HD
BRANCH   7   1
ATOM      1  S   UNL     1       0.458   2.165  24.088  0.00  0.00    +0.060 S 
ATOM      5  O   UNL     1       1.869   2.180  23.751  0.00  0.00    -0.153 OA
ATOM      6  O   UNL     1      -0.531   2.571  23.107  0.00  0.00    -0.153 OA
BRANCH   1  20
ATOM     20  C   UNL     1       0.036   0.527  24.598  0.00  0.00    +0.123 A 
ATOM     21  C   UNL     1       0.333  -0.573  23.807  0.00  0.00    +0.078 A 
ATOM     22  C   UNL     1      -0.604   0.378  25.821  0.00  0.00    +0.030 A 
ATOM     24  C   UNL     1      -0.018  -1.850  24.248  0.00  0.00    +0.021 A 
ATOM     25  C   UNL     1      -0.954  -0.898  26.262  0.00  0.00    +0.002 A 
ATOM     26  C   UNL     1      -0.661  -2.012  25.475  0.00  0.00    +0.001 A 
BRANCH  21  27
ATOM     12  N   UNL     1       1.526  -0.340  21.520  0.00  0.00    -0.191 NA
ATOM     27  C   UNL     1       0.992  -0.444  22.543  0.00  0.00    +0.101 C 
ENDBRANCH  21  27
ENDBRANCH   1  20
ENDBRANCH   7   1
ENDBRANCH  15   7
TORSDOF 7
ENDMDL
MODEL 7
REMARK VINA RESULT:       1.3      2.541      4.025
REMARK  Name = 11886195
REMARK  7 active torsions:
REMARK  status: ('A' for Active; 'I' for Inactive)
REMARK    1  A    between atoms: S_1  and  N_7
REMARK    2  A    between atoms: S_1  and  C_20
REMARK    3  A    between atoms: O_4  and  C_19
REMARK    4  A    between atoms: O_4  and  C_23
REMARK    5  A    between atoms: N_7  and  C_15
REMARK    6  A    between atoms: N_8  and  C_16
REMARK    7  A    between atoms: C_21  and  C_27
REMARK                            x       y       z     vdW  Elec       q    Type
REMARK                         _______ _______ _______ _____ _____    ______ ____
ROOT
ATOM      2  O   UNL     1      -2.910  -0.930  23.268  0.00  0.00    -0.370 OA
ATOM      3  O   UNL     1      -2.093  -0.108  26.192  0.00  0.00    -0.370 OA
ATOM     13  C   UNL     1      -2.880   0.509  25.162  0.00  0.00    +0.170 C 
ATOM     14  C   UNL     1      -2.221   0.201  23.831  0.00  0.00    +0.175 C 
ATOM     15  C   UNL     1      -4.237  -0.154  25.070  0.00  0.00    +0.133 C 
ATOM     16  C   UNL     1      -0.798  -0.185  24.187  0.00  0.00    +0.171 C 
ATOM     17  C   UNL     1      -3.957  -1.336  24.160  0.00  0.00    +0.183 C 
ATOM     18  C   UNL     1      -0.933  -0.718  25.609  0.00  0.00    +0.190 C 
ENDROOT
BRANCH  16   8
ATOM      8  N   UNL     1       0.142   0.926  24.027  0.00  0.00    -0.187 N 
ATOM      9  N   UNL     1      -0.199   2.170  24.379  0.00  0.00    -0.041 NA
ATOM     10  N   UNL     1       1.881   2.129  23.580  0.00  0.00    -0.071 NA
ATOM     11  N   UNL     1       0.872   2.904  24.102  0.00  0.00    -0.020 NA
ATOM     19  C   UNL     1       1.406   0.905  23.543  0.00  0.00    +0.342 A 
BRANCH  19   4
ATOM      4  O   UNL     1       2.034  -0.172  23.111  0.00  0.00    -0.423 OA
BRANCH   4  23
ATOM     23  C   UNL     1       3.393  -0.375  23.307  0.00  0.00    +0.132 A 
ATOM     28  C   UNL     1       3.826  -1.596  23.787  0.00  0.00    +0.046 A 
ATOM     29  C   UNL     1       4.273   0.649  23.016  0.00  0.00    +0.046 A 
ATOM     30  C   UNL     1       5.193  -1.799  23.985  0.00  0.00    +0.004 A 
ATOM     31  C   UNL     1       5.638   0.446  23.213  0.00  0.00    +0.004 A 
ATOM     32  C   UNL     1       6.098  -0.778  23.698  0.00  0.00    +0.000 A 
ENDBRANCH   4  23
ENDBRANCH  19   4
ENDBRANCH  16   8
BRANCH  15   7
ATOM      7  N   UNL     1      -5.214   0.734  24.488  0.00  0.00    -0.182 NA
ATOM     33  H   UNL     1      -5.358   0.701  23.472  0.00  0.00    +0.148 HD
BRANCH   7   1
ATOM      1  S   UNL     1      -5.818   2.036  25.396  0.00  0.00    +0.060 S 
ATOM      5  O   UNL     1      -6.168   1.575  26.727  0.00  0.00    -0.153 OA
ATOM      6  O   UNL     1      -6.790   2.754  24.593  0.00  0.00    -0.153 OA
BRANCH   1  20
ATOM     20  C   UNL     1      -4.395   3.075  25.535  0.00  0.00    +0.123 A 
ATOM     21  C   UNL     1      -3.693   3.489  24.413  0.00  0.00    +0.078 A 
ATOM     22  C   UNL     1      -4.004   3.463  26.809  0.00  0.00    +0.030 A 
ATOM     24  C   UNL     1      -2.574   4.310  24.567  0.00  0.00    +0.021 A 
ATOM     25  C   UNL     1      -2.886   4.283  26.963  0.00  0.00    +0.002 A 
ATOM     26  C   UNL     1      -2.172   4.706  25.842  0.00  0.00    +0.001 A 
BRANCH  21  27
ATOM     12  N   UNL     1      -4.390   2.787  22.019  0.00  0.00    -0.191 NA
ATOM     27  C   UNL     1      -4.078   3.101  23.090  0.00  0.00    +0.101 C 
ENDBRANCH  21  27
ENDBRANCH   1  20
ENDBRANCH   7   1
ENDBRANCH  15   7
TORSDOF 7
ENDMDL
MODEL 8
REMARK VINA RESULT:       1.9      2.758      6.159
REMARK  Name = 11886195
REMARK  7 active torsions:
REMARK  status: ('A' for Active; 'I' for Inactive)
REMARK    1  A    between atoms: S_1  and  N_7
REMARK    2  A    between atoms: S_1  and  C_20
REMARK    3  A    between atoms: O_4  and  C_19
REMARK    4  A    between atoms: O_4  and  C_23
REMARK    5  A    between atoms: N_7  and  C_15
REMARK    6  A    between atoms: N_8  and  C_16
REMARK    7  A    between atoms: C_21  and  C_27
REMARK                            x       y       z     vdW  Elec       q    Type
REMARK                         _______ _______ _______ _____ _____    ______ ____
ROOT
ATOM      2  O   UNL     1      -1.810  -1.356  26.202  0.00  0.00    -0.370 OA
ATOM      3  O   UNL     1      -2.865  -1.189  23.244  0.00  0.00    -0.370 OA
ATOM     13  C   UNL     1      -1.856  -0.487  23.988  0.00  0.00    +0.170 C 
ATOM     14  C   UNL     1      -2.372  -0.301  25.402  0.00  0.00    +0.175 C 
ATOM     15  C   UNL     1      -0.627  -1.354  24.150  0.00  0.00    +0.133 C 
ATOM     16  C   UNL     1      -3.874  -0.484  25.290  0.00  0.00    +0.171 C 
ATOM     17  C   UNL     1      -0.971  -2.177  25.377  0.00  0.00    +0.183 C 
ATOM     18  C   UNL     1      -4.020  -1.387  24.070  0.00  0.00    +0.190 C 
ENDROOT
BRANCH  16   8
ATOM      8  N   UNL     1      -4.590   0.792  25.207  0.00  0.00    -0.187 N 
ATOM      9  N   UNL     1      -5.844   0.846  24.747  0.00  0.00    -0.041 NA
ATOM     10  N   UNL     1      -5.130   2.882  25.306  0.00  0.00    -0.071 NA
ATOM     11  N   UNL     1      -6.171   2.131  24.810  0.00  0.00    -0.020 NA
ATOM     19  C   UNL     1      -4.160   2.029  25.545  0.00  0.00    +0.342 A 
BRANCH  19   4
ATOM      4  O   UNL     1      -2.965   2.311  26.030  0.00  0.00    -0.423 OA
BRANCH   4  23
ATOM     23  C   UNL     1      -2.171   3.328  25.520  0.00  0.00    +0.132 A 
ATOM     28  C   UNL     1      -1.024   2.999  24.825  0.00  0.00    +0.046 A 
ATOM     29  C   UNL     1      -2.551   4.641  25.723  0.00  0.00    +0.046 A 
ATOM     30  C   UNL     1      -0.225   4.022  24.313  0.00  0.00    +0.004 A 
ATOM     31  C   UNL     1      -1.753   5.664  25.211  0.00  0.00    +0.004 A 
ATOM     32  C   UNL     1      -0.589   5.355  24.506  0.00  0.00    +0.000 A 
ENDBRANCH   4  23
ENDBRANCH  19   4
ENDBRANCH  16   8
BRANCH  15   7
ATOM      7  N   UNL     1       0.552  -0.551  24.374  0.00  0.00    -0.182 NA
ATOM     33  H   UNL     1       0.753  -0.237  25.330  0.00  0.00    +0.148 HD
BRANCH   7   1
ATOM      1  S   UNL     1       1.354   0.157  23.054  0.00  0.00    +0.060 S 
ATOM      5  O   UNL     1       1.290   1.601  23.169  0.00  0.00    -0.153 OA
ATOM      6  O   UNL     1       0.917  -0.500  21.836  0.00  0.00    -0.153 OA
BRANCH   1  20
ATOM     20  C   UNL     1       3.027  -0.340  23.335  0.00  0.00    +0.123 A 
ATOM     21  C   UNL     1       4.087   0.512  23.063  0.00  0.00    +0.078 A 
ATOM     22  C   UNL     1       3.243  -1.614  23.840  0.00  0.00    +0.030 A 
ATOM     24  C   UNL     1       5.393   0.081  23.299  0.00  0.00    +0.021 A 
ATOM     25  C   UNL     1       4.549  -2.045  24.078  0.00  0.00    +0.002 A 
ATOM     26  C   UNL     1       5.623  -1.198  23.807  0.00  0.00    +0.001 A 
BRANCH  21  27
ATOM     12  N   UNL     1       3.725   2.897  22.120  0.00  0.00    -0.191 NA
ATOM     27  C   UNL     1       3.887   1.831  22.541  0.00  0.00    +0.101 C 
ENDBRANCH  21  27
ENDBRANCH   1  20
ENDBRANCH   7   1
ENDBRANCH  15   7
TORSDOF 7
ENDMDL
