MODEL 1
REMARK VINA RESULT:       7.8      0.000      0.000
REMARK  Name = 44716317
REMARK  7 active torsions:
REMARK  status: ('A' for Active; 'I' for Inactive)
REMARK    1  A    between atoms: N_4  and  C_15
REMARK    2  A    between atoms: N_5  and  C_18
REMARK    3  A    between atoms: C_9  and  C_15
REMARK    4  A    between atoms: C_10  and  C_16
REMARK    5  A    between atoms: C_18  and  C_20
REMARK    6  A    between atoms: C_19  and  C_21
REMARK    7  A    between atoms: C_31  and  C_32
REMARK                            x       y       z     vdW  Elec       q    Type
REMARK                         _______ _______ _______ _____ _____    ______ ____
ROOT
ATOM      3  N   UNL     1      -4.706   4.963  24.377  0.00  0.00    -0.297 NA
ATOM      8  C   UNL     1      -4.538   3.027  26.109  0.00  0.00    +0.005 C 
ATOM      9  C   UNL     1      -5.006   3.664  23.717  0.00  0.00    +0.078 C 
ATOM     10  C   UNL     1      -3.266   3.897  26.119  0.00  0.00    +0.092 C 
ATOM     11  C   UNL     1      -4.764   2.483  24.683  0.00  0.00    +0.025 C 
ATOM     12  C   UNL     1      -5.717   3.960  26.435  0.00  0.00    +0.020 C 
ATOM     13  C   UNL     1      -3.352   4.932  24.983  0.00  0.00    +0.097 C 
ATOM     14  C   UNL     1      -5.696   5.159  25.466  0.00  0.00    +0.085 C 
ENDROOT
BRANCH  10  16
ATOM      2  O   UNL     1      -0.932   3.559  25.745  0.00  0.00    -0.275 OA
ATOM      5  N   UNL     1      -2.278   1.716  26.205  0.00  0.00    -0.311 N 
ATOM     16  C   UNL     1      -2.024   3.063  26.006  0.00  0.00    +0.218 C 
ATOM     38  H   UNL     1      -3.224   1.412  26.415  0.00  0.00    +0.149 HD
BRANCH   5  18
ATOM     18  C   UNL     1      -1.253   0.699  26.129  0.00  0.00    +0.139 C 
BRANCH  18  20
ATOM      1  F   UNL     1      -3.230  -4.134  24.024  0.00  0.00    -0.205 F 
ATOM     20  C   UNL     1      -1.780  -0.590  25.568  0.00  0.00    -0.030 A 
ATOM     22  C   UNL     1      -3.155  -0.818  25.519  0.00  0.00    +0.008 A 
ATOM     23  C   UNL     1      -0.894  -1.558  25.095  0.00  0.00    +0.008 A 
ATOM     26  C   UNL     1      -3.645  -2.015  24.998  0.00  0.00    +0.038 A 
ATOM     27  C   UNL     1      -1.384  -2.756  24.574  0.00  0.00    +0.038 A 
ATOM     30  C   UNL     1      -2.760  -2.984  24.525  0.00  0.00    +0.123 A 
ENDBRANCH  18  20
ENDBRANCH   5  18
ENDBRANCH  10  16
BRANCH   9  15
ATOM     15  C   UNL     1      -4.242   3.489  22.402  0.00  0.00    +0.164 C 
BRANCH  15   4
ATOM      4  N   UNL     1      -3.191   2.420  22.514  0.00  0.00    -0.250 N 
ATOM      6  N   UNL     1      -3.522   1.122  22.429  0.00  0.00    -0.065 NA
ATOM      7  N   UNL     1      -2.402   0.419  22.562  0.00  0.00    -0.130 NA
ATOM     17  C   UNL     1      -1.854   2.586  22.703  0.00  0.00    +0.138 A 
ATOM     19  C   UNL     1      -1.370   1.302  22.731  0.00  0.00    +0.113 A 
BRANCH  19  21
ATOM     21  C   UNL     1      -0.003   0.931  22.907  0.00  0.00    +0.004 A 
ATOM     24  C   UNL     1       0.839   1.724  23.686  0.00  0.00    +0.011 A 
ATOM     25  C   UNL     1       0.490  -0.225  22.302  0.00  0.00    +0.011 A 
ATOM     28  C   UNL     1       2.175   1.361  23.860  0.00  0.00    +0.009 A 
ATOM     29  C   UNL     1       1.825  -0.587  22.474  0.00  0.00    +0.009 A 
ATOM     31  C   UNL     1       2.667   0.206  23.254  0.00  0.00    -0.018 A 
BRANCH  31  32
ATOM     32  C   UNL     1       4.053  -0.171  23.435  0.00  0.00    -0.018 A 
ATOM     33  C   UNL     1       5.062   0.776  23.260  0.00  0.00    +0.008 A 
ATOM     34  C   UNL     1       4.379  -1.481  23.784  0.00  0.00    +0.008 A 
ATOM     35  C   UNL     1       6.397   0.412  23.435  0.00  0.00    +0.001 A 
ATOM     36  C   UNL     1       5.715  -1.845  23.960  0.00  0.00    +0.001 A 
ATOM     37  C   UNL     1       6.723  -0.898  23.784  0.00  0.00    +0.000 A 
ENDBRANCH  31  32
ENDBRANCH  19  21
ENDBRANCH  15   4
ENDBRANCH   9  15
TORSDOF 7
ENDMDL
MODEL 2
REMARK VINA RESULT:       9.3      2.782      3.756
REMARK  Name = 44716317
REMARK  7 active torsions:
REMARK  status: ('A' for Active; 'I' for Inactive)
REMARK    1  A    between atoms: N_4  and  C_15
REMARK    2  A    between atoms: N_5  and  C_18
REMARK    3  A    between atoms: C_9  and  C_15
REMARK    4  A    between atoms: C_10  and  C_16
REMARK    5  A    between atoms: C_18  and  C_20
REMARK    6  A    between atoms: C_19  and  C_21
REMARK    7  A    between atoms: C_31  and  C_32
REMARK                            x       y       z     vdW  Elec       q    Type
REMARK                         _______ _______ _______ _____ _____    ______ ____
ROOT
ATOM      3  N   UNL     1      -5.742   3.222  24.400  0.00  0.00    -0.297 NA
ATOM      8  C   UNL     1      -3.961   3.497  26.277  0.00  0.00    +0.005 C 
ATOM      9  C   UNL     1      -5.589   1.944  25.145  0.00  0.00    +0.078 C 
ATOM     10  C   UNL     1      -3.409   3.955  24.914  0.00  0.00    +0.092 C 
ATOM     11  C   UNL     1      -4.431   2.033  26.163  0.00  0.00    +0.025 C 
ATOM     12  C   UNL     1      -5.206   4.356  26.565  0.00  0.00    +0.020 C 
ATOM     13  C   UNL     1      -4.442   3.637  23.818  0.00  0.00    +0.097 C 
ATOM     14  C   UNL     1      -6.171   4.264  25.367  0.00  0.00    +0.085 C 
ENDROOT
BRANCH  10  16
ATOM      2  O   UNL     1      -1.849   2.785  23.536  0.00  0.00    -0.275 OA
ATOM      5  N   UNL     1      -1.206   3.415  25.683  0.00  0.00    -0.311 N 
ATOM     16  C   UNL     1      -2.081   3.325  24.614  0.00  0.00    +0.218 C 
ATOM     38  H   UNL     1      -1.503   3.884  26.534  0.00  0.00    +0.149 HD
BRANCH   5  18
ATOM     18  C   UNL     1       0.131   2.867  25.658  0.00  0.00    +0.139 C 
BRANCH  18  20
ATOM      1  F   UNL     1       2.223   2.161  30.837  0.00  0.00    -0.205 F 
ATOM     20  C   UNL     1       0.689   2.678  27.039  0.00  0.00    -0.030 A 
ATOM     22  C   UNL     1       2.004   3.051  27.316  0.00  0.00    +0.008 A 
ATOM     23  C   UNL     1      -0.108   2.131  28.044  0.00  0.00    +0.008 A 
ATOM     26  C   UNL     1       2.522   2.877  28.600  0.00  0.00    +0.038 A 
ATOM     27  C   UNL     1       0.410   1.956  29.327  0.00  0.00    +0.038 A 
ATOM     30  C   UNL     1       1.725   2.328  29.605  0.00  0.00    +0.123 A 
ENDBRANCH  18  20
ENDBRANCH   5  18
ENDBRANCH  10  16
BRANCH   9  15
ATOM     15  C   UNL     1      -5.435   0.740  24.212  0.00  0.00    +0.164 C 
BRANCH  15   4
ATOM      4  N   UNL     1      -4.105   0.065  24.399  0.00  0.00    -0.250 N 
ATOM      6  N   UNL     1      -4.014  -1.095  25.069  0.00  0.00    -0.065 NA
ATOM      7  N   UNL     1      -2.732  -1.448  25.075  0.00  0.00    -0.130 NA
ATOM     17  C   UNL     1      -2.889   0.487  23.958  0.00  0.00    +0.138 A 
ATOM     19  C   UNL     1      -2.030  -0.489  24.397  0.00  0.00    +0.113 A 
BRANCH  19  21
ATOM     21  C   UNL     1      -0.619  -0.511  24.186  0.00  0.00    +0.004 A 
ATOM     24  C   UNL     1      -0.011   0.491  23.431  0.00  0.00    +0.011 A 
ATOM     25  C   UNL     1       0.153  -1.535  24.737  0.00  0.00    +0.011 A 
ATOM     28  C   UNL     1       1.369   0.470  23.225  0.00  0.00    +0.009 A 
ATOM     29  C   UNL     1       1.532  -1.557  24.531  0.00  0.00    +0.009 A 
ATOM     31  C   UNL     1       2.140  -0.553  23.776  0.00  0.00    -0.018 A 
BRANCH  31  32
ATOM     32  C   UNL     1       3.571  -0.575  23.564  0.00  0.00    -0.018 A 
ATOM     33  C   UNL     1       4.214   0.543  23.031  0.00  0.00    +0.008 A 
ATOM     34  C   UNL     1       4.307  -1.712  23.893  0.00  0.00    +0.008 A 
ATOM     35  C   UNL     1       5.594   0.521  22.827  0.00  0.00    +0.001 A 
ATOM     36  C   UNL     1       5.688  -1.733  23.690  0.00  0.00    +0.001 A 
ATOM     37  C   UNL     1       6.331  -0.616  23.157  0.00  0.00    +0.000 A 
ENDBRANCH  31  32
ENDBRANCH  19  21
ENDBRANCH  15   4
ENDBRANCH   9  15
TORSDOF 7
ENDMDL
MODEL 3
REMARK VINA RESULT:      11.4      2.009      3.377
REMARK  Name = 44716317
REMARK  7 active torsions:
REMARK  status: ('A' for Active; 'I' for Inactive)
REMARK    1  A    between atoms: N_4  and  C_15
REMARK    2  A    between atoms: N_5  and  C_18
REMARK    3  A    between atoms: C_9  and  C_15
REMARK    4  A    between atoms: C_10  and  C_16
REMARK    5  A    between atoms: C_18  and  C_20
REMARK    6  A    between atoms: C_19  and  C_21
REMARK    7  A    between atoms: C_31  and  C_32
REMARK                            x       y       z     vdW  Elec       q    Type
REMARK                         _______ _______ _______ _____ _____    ______ ____
ROOT
ATOM      3  N   UNL     1      -1.476   4.012  25.552  0.00  0.00    -0.297 NA
ATOM      8  C   UNL     1      -3.473   4.452  23.943  0.00  0.00    +0.005 C 
ATOM      9  C   UNL     1      -1.430   3.056  24.413  0.00  0.00    +0.078 C 
ATOM     10  C   UNL     1      -3.954   4.285  25.396  0.00  0.00    +0.092 C 
ATOM     11  C   UNL     1      -2.687   3.193  23.525  0.00  0.00    +0.025 C 
ATOM     12  C   UNL     1      -2.484   5.632  23.935  0.00  0.00    +0.020 C 
ATOM     13  C   UNL     1      -2.761   3.882  26.281  0.00  0.00    +0.097 C 
ATOM     14  C   UNL     1      -1.395   5.386  24.996  0.00  0.00    +0.085 C 
ENDROOT
BRANCH  10  16
ATOM      2  O   UNL     1      -6.224   3.631  25.748  0.00  0.00    -0.275 OA
ATOM      5  N   UNL     1      -4.634   1.989  25.304  0.00  0.00    -0.311 N 
ATOM     16  C   UNL     1      -5.072   3.289  25.498  0.00  0.00    +0.218 C 
ATOM     38  H   UNL     1      -3.653   1.817  25.104  0.00  0.00    +0.149 HD
BRANCH   5  18
ATOM     18  C   UNL     1      -5.511   0.842  25.372  0.00  0.00    +0.139 C 
BRANCH  18  20
ATOM      1  F   UNL     1      -2.815  -3.948  24.150  0.00  0.00    -0.205 F 
ATOM     20  C   UNL     1      -4.792  -0.435  25.047  0.00  0.00    -0.030 A 
ATOM     22  C   UNL     1      -5.013  -1.067  23.823  0.00  0.00    +0.008 A 
ATOM     23  C   UNL     1      -3.903  -0.990  25.968  0.00  0.00    +0.008 A 
ATOM     26  C   UNL     1      -4.345  -2.254  23.520  0.00  0.00    +0.038 A 
ATOM     27  C   UNL     1      -3.236  -2.177  25.665  0.00  0.00    +0.038 A 
ATOM     30  C   UNL     1      -3.457  -2.809  24.441  0.00  0.00    +0.123 A 
ENDBRANCH  18  20
ENDBRANCH   5  18
ENDBRANCH  10  16
BRANCH   9  15
ATOM     15  C   UNL     1      -1.213   1.612  24.872  0.00  0.00    +0.164 C 
BRANCH  15   4
ATOM      4  N   UNL     1      -0.042   0.981  24.173  0.00  0.00    -0.250 N 
ATOM      6  N   UNL     1      -0.231   0.136  23.147  0.00  0.00    -0.065 NA
ATOM      7  N   UNL     1       0.970  -0.259  22.735  0.00  0.00    -0.130 NA
ATOM     17  C   UNL     1       1.280   1.151  24.447  0.00  0.00    +0.138 A 
ATOM     19  C   UNL     1       1.906   0.355  23.521  0.00  0.00    +0.113 A 
BRANCH  19  21
ATOM     21  C   UNL     1       3.317   0.185  23.389  0.00  0.00    +0.004 A 
ATOM     24  C   UNL     1       4.084   1.176  22.777  0.00  0.00    +0.011 A 
ATOM     25  C   UNL     1       3.929  -0.971  23.873  0.00  0.00    +0.011 A 
ATOM     28  C   UNL     1       5.463   1.011  22.649  0.00  0.00    +0.009 A 
ATOM     29  C   UNL     1       5.308  -1.137  23.744  0.00  0.00    +0.009 A 
ATOM     31  C   UNL     1       6.075  -0.145  23.133  0.00  0.00    -0.018 A 
BRANCH  31  32
ATOM     32  C   UNL     1       7.505  -0.317  23.001  0.00  0.00    -0.018 A 
ATOM     33  C   UNL     1       8.375   0.608  23.580  0.00  0.00    +0.008 A 
ATOM     34  C   UNL     1       8.015  -1.407  22.297  0.00  0.00    +0.008 A 
ATOM     35  C   UNL     1       9.754   0.442  23.453  0.00  0.00    +0.001 A 
ATOM     36  C   UNL     1       9.395  -1.574  22.171  0.00  0.00    +0.001 A 
ATOM     37  C   UNL     1      10.264  -0.648  22.749  0.00  0.00    +0.000 A 
ENDBRANCH  31  32
ENDBRANCH  19  21
ENDBRANCH  15   4
ENDBRANCH   9  15
TORSDOF 7
ENDMDL
MODEL 4
REMARK VINA RESULT:      11.6      1.388      2.069
REMARK  Name = 44716317
REMARK  7 active torsions:
REMARK  status: ('A' for Active; 'I' for Inactive)
REMARK    1  A    between atoms: N_4  and  C_15
REMARK    2  A    between atoms: N_5  and  C_18
REMARK    3  A    between atoms: C_9  and  C_15
REMARK    4  A    between atoms: C_10  and  C_16
REMARK    5  A    between atoms: C_18  and  C_20
REMARK    6  A    between atoms: C_19  and  C_21
REMARK    7  A    between atoms: C_31  and  C_32
REMARK                            x       y       z     vdW  Elec       q    Type
REMARK                         _______ _______ _______ _____ _____    ______ ____
ROOT
ATOM      3  N   UNL     1      -2.999   4.429  24.807  0.00  0.00    -0.297 NA
ATOM      8  C   UNL     1      -5.182   4.363  26.223  0.00  0.00    +0.005 C 
ATOM      9  C   UNL     1      -4.175   4.700  23.938  0.00  0.00    +0.078 C 
ATOM     10  C   UNL     1      -4.342   3.089  26.433  0.00  0.00    +0.092 C 
ATOM     11  C   UNL     1      -5.495   4.516  24.720  0.00  0.00    +0.025 C 
ATOM     12  C   UNL     1      -4.295   5.553  26.629  0.00  0.00    +0.020 C 
ATOM     13  C   UNL     1      -3.142   3.109  25.470  0.00  0.00    +0.097 C 
ATOM     14  C   UNL     1      -2.961   5.474  25.861  0.00  0.00    +0.085 C 
ENDROOT
BRANCH  10  16
ATOM      2  O   UNL     1      -6.254   1.708  26.806  0.00  0.00    -0.275 OA
ATOM      5  N   UNL     1      -4.540   0.915  25.445  0.00  0.00    -0.311 N 
ATOM     16  C   UNL     1      -5.165   1.847  26.257  0.00  0.00    +0.218 C 
ATOM     38  H   UNL     1      -3.633   1.133  25.042  0.00  0.00    +0.149 HD
BRANCH   5  18
ATOM     18  C   UNL     1      -5.114  -0.375  25.135  0.00  0.00    +0.139 C 
BRANCH  18  20
ATOM      1  F   UNL     1      -1.206  -4.088  23.511  0.00  0.00    -0.205 F 
ATOM     20  C   UNL     1      -4.072  -1.365  24.702  0.00  0.00    -0.030 A 
ATOM     22  C   UNL     1      -2.785  -1.301  25.236  0.00  0.00    +0.008 A 
ATOM     23  C   UNL     1      -4.391  -2.348  23.766  0.00  0.00    +0.008 A 
ATOM     26  C   UNL     1      -1.816  -2.221  24.834  0.00  0.00    +0.038 A 
ATOM     27  C   UNL     1      -3.422  -3.268  23.363  0.00  0.00    +0.038 A 
ATOM     30  C   UNL     1      -2.135  -3.204  23.897  0.00  0.00    +0.123 A 
ENDBRANCH  18  20
ENDBRANCH   5  18
ENDBRANCH  10  16
BRANCH   9  15
ATOM     15  C   UNL     1      -4.156   3.868  22.653  0.00  0.00    +0.164 C 
BRANCH  15   4
ATOM      4  N   UNL     1      -3.161   2.745  22.739  0.00  0.00    -0.250 N 
ATOM      6  N   UNL     1      -3.563   1.466  22.670  0.00  0.00    -0.065 NA
ATOM      7  N   UNL     1      -2.478   0.705  22.774  0.00  0.00    -0.130 NA
ATOM     17  C   UNL     1      -1.811   2.840  22.887  0.00  0.00    +0.138 A 
ATOM     19  C   UNL     1      -1.396   1.532  22.907  0.00  0.00    +0.113 A 
BRANCH  19  21
ATOM     21  C   UNL     1      -0.046   1.089  23.044  0.00  0.00    +0.004 A 
ATOM     24  C   UNL     1       0.892   1.901  23.681  0.00  0.00    +0.011 A 
ATOM     25  C   UNL     1       0.334  -0.156  22.542  0.00  0.00    +0.011 A 
ATOM     28  C   UNL     1       2.211   1.468  23.816  0.00  0.00    +0.009 A 
ATOM     29  C   UNL     1       1.653  -0.588  22.676  0.00  0.00    +0.009 A 
ATOM     31  C   UNL     1       2.591   0.223  23.314  0.00  0.00    -0.018 A 
BRANCH  31  32
ATOM     32  C   UNL     1       3.959  -0.226  23.455  0.00  0.00    -0.018 A 
ATOM     33  C   UNL     1       4.226  -1.551  23.802  0.00  0.00    +0.008 A 
ATOM     34  C   UNL     1       5.011   0.664  23.242  0.00  0.00    +0.008 A 
ATOM     35  C   UNL     1       5.545  -1.985  23.937  0.00  0.00    +0.001 A 
ATOM     36  C   UNL     1       6.331   0.230  23.376  0.00  0.00    +0.001 A 
ATOM     37  C   UNL     1       6.597  -1.094  23.724  0.00  0.00    +0.000 A 
ENDBRANCH  31  32
ENDBRANCH  19  21
ENDBRANCH  15   4
ENDBRANCH   9  15
TORSDOF 7
ENDMDL
