MODEL 1
REMARK VINA RESULT:      -4.2      0.000      0.000
REMARK  Name = 75366989
REMARK  13 active torsions:
REMARK  status: ('A' for Active; 'I' for Inactive)
REMARK    1  A    between atoms: O_2  and  C_10
REMARK    2  A    between atoms: O_4  and  C_22
REMARK    3  A    between atoms: N_5  and  C_14
REMARK    4  A    between atoms: N_5  and  C_16
REMARK    5  A    between atoms: N_7  and  C_20
REMARK    6  A    between atoms: N_7  and  C_21
REMARK    7  A    between atoms: N_7  and  C_24
REMARK    8  A    between atoms: C_8  and  C_14
REMARK    9  A    between atoms: C_9  and  C_13
REMARK   10  A    between atoms: C_13  and  C_15
REMARK   11  A    between atoms: C_16  and  C_19
REMARK   12  A    between atoms: C_18  and  C_20
REMARK   13  A    between atoms: C_21  and  C_25
REMARK                            x       y       z     vdW  Elec       q    Type
REMARK                         _______ _______ _______ _____ _____    ______ ____
ROOT
ATOM      1  O   UNL     1      -3.748   2.403  25.784  0.00  0.00    -0.369 OA
ATOM      8  C   UNL     1      -4.925   1.674  25.407  0.00  0.00    +0.161 C 
ATOM      9  C   UNL     1      -3.673   3.738  25.277  0.00  0.00    +0.125 C 
ATOM     10  C   UNL     1      -6.200   2.428  25.806  0.00  0.00    +0.145 C 
ATOM     11  C   UNL     1      -4.871   4.562  25.750  0.00  0.00    +0.034 C 
ATOM     12  C   UNL     1      -6.179   3.885  25.352  0.00  0.00    +0.036 C 
ENDROOT
BRANCH  10   2
ATOM      2  O   UNL     1      -6.316   2.415  27.230  0.00  0.00    -0.389 OA
ATOM     35  H   UNL     1      -6.180   3.325  27.544  0.00  0.00    +0.210 HD
ENDBRANCH  10   2
BRANCH   9  13
ATOM     13  C   UNL     1      -2.367   4.345  25.777  0.00  0.00    +0.090 C 
BRANCH  13  15
ATOM      3  O   UNL     1       0.446   2.096  25.878  0.00  0.00    -0.358 OA
ATOM      6  N   UNL     1      -0.570   2.822  26.487  0.00  0.00    -0.083 NA
ATOM     15  C   UNL     1      -1.191   3.452  25.486  0.00  0.00    +0.086 A 
ATOM     17  C   UNL     1      -0.615   3.165  24.236  0.00  0.00    +0.072 A 
ATOM     18  C   UNL     1       0.410   2.308  24.539  0.00  0.00    +0.151 A 
BRANCH  18  20
ATOM     20  C   UNL     1       1.422   1.612  23.736  0.00  0.00    +0.161 C 
BRANCH  20   7
ATOM      7  N   UNL     1       0.879   0.472  22.978  0.00  0.00    -0.294 NA
ATOM     24  C   UNL     1       0.395  -0.553  23.897  0.00  0.00    +0.105 C 
BRANCH   7  21
ATOM     21  C   UNL     1       1.900  -0.070  22.089  0.00  0.00    +0.119 C 
BRANCH  21  25
ATOM     25  C   UNL     1       3.237  -0.180  22.771  0.00  0.00    -0.033 A 
ATOM     29  C   UNL     1       3.603  -1.369  23.401  0.00  0.00    +0.005 A 
ATOM     30  C   UNL     1       4.111   0.908  22.773  0.00  0.00    +0.005 A 
ATOM     31  C   UNL     1       4.843  -1.470  24.034  0.00  0.00    +0.000 A 
ATOM     32  C   UNL     1       5.351   0.807  23.404  0.00  0.00    +0.000 A 
ATOM     33  C   UNL     1       5.717  -0.382  24.036  0.00  0.00    +0.000 A 
ENDBRANCH  21  25
ENDBRANCH   7  21
ENDBRANCH  20   7
ENDBRANCH  18  20
ENDBRANCH  13  15
ENDBRANCH   9  13
BRANCH   8  14
ATOM     14  C   UNL     1      -4.890   1.299  23.927  0.00  0.00    +0.115 C 
BRANCH  14   5
ATOM      5  N   UNL     1      -3.630   1.701  23.320  0.00  0.00    -0.309 NA
ATOM     34  H   UNL     1      -3.797   2.307  22.517  0.00  0.00    +0.122 HD
BRANCH   5  16
ATOM     16  C   UNL     1      -2.851   0.538  22.916  0.00  0.00    +0.120 C 
BRANCH  16  19
ATOM     19  C   UNL     1      -3.111  -0.648  23.806  0.00  0.00    +0.008 A 
ATOM     22  C   UNL     1      -2.603  -0.689  25.105  0.00  0.00    +0.121 A 
ATOM     23  C   UNL     1      -3.868  -1.713  23.319  0.00  0.00    +0.008 A 
ATOM     26  C   UNL     1      -2.853  -1.797  25.916  0.00  0.00    +0.046 A 
ATOM     27  C   UNL     1      -4.118  -2.821  24.131  0.00  0.00    +0.001 A 
ATOM     28  C   UNL     1      -3.611  -2.862  25.429  0.00  0.00    +0.004 A 
BRANCH  22   4
ATOM      4  O   UNL     1      -1.862   0.342  25.596  0.00  0.00    -0.506 OA
ATOM     36  H   UNL     1      -2.374   0.801  26.285  0.00  0.00    +0.292 HD
ENDBRANCH  22   4
ENDBRANCH  16  19
ENDBRANCH   5  16
ENDBRANCH  14   5
ENDBRANCH   8  14
TORSDOF 12
ENDMDL
MODEL 2
REMARK VINA RESULT:      -4.1      1.620      6.906
REMARK  Name = 75366989
REMARK  13 active torsions:
REMARK  status: ('A' for Active; 'I' for Inactive)
REMARK    1  A    between atoms: O_2  and  C_10
REMARK    2  A    between atoms: O_4  and  C_22
REMARK    3  A    between atoms: N_5  and  C_14
REMARK    4  A    between atoms: N_5  and  C_16
REMARK    5  A    between atoms: N_7  and  C_20
REMARK    6  A    between atoms: N_7  and  C_21
REMARK    7  A    between atoms: N_7  and  C_24
REMARK    8  A    between atoms: C_8  and  C_14
REMARK    9  A    between atoms: C_9  and  C_13
REMARK   10  A    between atoms: C_13  and  C_15
REMARK   11  A    between atoms: C_16  and  C_19
REMARK   12  A    between atoms: C_18  and  C_20
REMARK   13  A    between atoms: C_21  and  C_25
REMARK                            x       y       z     vdW  Elec       q    Type
REMARK                         _______ _______ _______ _____ _____    ______ ____
ROOT
ATOM      1  O   UNL     1      -2.249  -0.193  24.266  0.00  0.00    -0.369 OA
ATOM      8  C   UNL     1      -0.821  -0.234  24.392  0.00  0.00    +0.161 C 
ATOM      9  C   UNL     1      -2.860  -1.420  23.859  0.00  0.00    +0.125 C 
ATOM     10  C   UNL     1      -0.379  -1.349  25.349  0.00  0.00    +0.145 C 
ATOM     11  C   UNL     1      -2.540  -2.536  24.853  0.00  0.00    +0.034 C 
ATOM     12  C   UNL     1      -1.030  -2.690  25.021  0.00  0.00    +0.036 C 
ENDROOT
BRANCH  10   2
ATOM      2  O   UNL     1      -0.759  -0.992  26.680  0.00  0.00    -0.389 OA
ATOM     35  H   UNL     1      -0.130  -1.415  27.289  0.00  0.00    +0.210 HD
ENDBRANCH  10   2
BRANCH   9  13
ATOM     13  C   UNL     1      -4.363  -1.179  23.780  0.00  0.00    +0.090 C 
BRANCH  13  15
ATOM      3  O   UNL     1      -5.229   1.209  26.335  0.00  0.00    -0.358 OA
ATOM      6  N   UNL     1      -4.817  -0.051  25.918  0.00  0.00    -0.083 NA
ATOM     15  C   UNL     1      -4.777   0.023  24.585  0.00  0.00    +0.086 A 
ATOM     17  C   UNL     1      -5.151   1.292  24.110  0.00  0.00    +0.072 A 
ATOM     18  C   UNL     1      -5.425   2.000  25.250  0.00  0.00    +0.151 A 
BRANCH  18  20
ATOM     20  C   UNL     1      -5.865   3.375  25.511  0.00  0.00    +0.161 C 
BRANCH  20   7
ATOM      7  N   UNL     1      -4.796   4.372  25.324  0.00  0.00    -0.294 NA
ATOM     24  C   UNL     1      -4.164   4.189  24.022  0.00  0.00    +0.105 C 
BRANCH   7  21
ATOM     21  C   UNL     1      -3.815   4.260  26.398  0.00  0.00    +0.119 C 
BRANCH  21  25
ATOM     25  C   UNL     1      -2.420   4.071  25.865  0.00  0.00    -0.033 A 
ATOM     29  C   UNL     1      -1.772   5.123  25.219  0.00  0.00    +0.005 A 
ATOM     30  C   UNL     1      -1.776   2.843  26.018  0.00  0.00    +0.005 A 
ATOM     31  C   UNL     1      -0.479   4.947  24.725  0.00  0.00    +0.000 A 
ATOM     32  C   UNL     1      -0.483   2.668  25.525  0.00  0.00    +0.000 A 
ATOM     33  C   UNL     1       0.166   3.720  24.878  0.00  0.00    +0.000 A 
ENDBRANCH  21  25
ENDBRANCH   7  21
ENDBRANCH  20   7
ENDBRANCH  18  20
ENDBRANCH  13  15
ENDBRANCH   9  13
BRANCH   8  14
ATOM     14  C   UNL     1      -0.149  -0.321  23.023  0.00  0.00    +0.115 C 
BRANCH  14   5
ATOM      5  N   UNL     1       1.084   0.450  23.001  0.00  0.00    -0.309 NA
ATOM     34  H   UNL     1       0.912   1.391  22.649  0.00  0.00    +0.122 HD
BRANCH   5  16
ATOM     16  C   UNL     1       2.098  -0.211  22.189  0.00  0.00    +0.120 C 
BRANCH  16  19
ATOM     19  C   UNL     1       3.427  -0.274  22.893  0.00  0.00    +0.008 A 
ATOM     22  C   UNL     1       4.247   0.852  22.971  0.00  0.00    +0.121 A 
ATOM     23  C   UNL     1       3.837  -1.476  23.470  0.00  0.00    +0.008 A 
ATOM     26  C   UNL     1       5.476   0.775  23.627  0.00  0.00    +0.046 A 
ATOM     27  C   UNL     1       5.066  -1.553  24.126  0.00  0.00    +0.001 A 
ATOM     28  C   UNL     1       5.885  -0.427  24.204  0.00  0.00    +0.004 A 
BRANCH  22   4
ATOM      4  O   UNL     1       3.862   2.033  22.412  0.00  0.00    -0.506 OA
ATOM     36  H   UNL     1       4.595   2.670  22.482  0.00  0.00    +0.292 HD
ENDBRANCH  22   4
ENDBRANCH  16  19
ENDBRANCH   5  16
ENDBRANCH  14   5
ENDBRANCH   8  14
TORSDOF 12
ENDMDL
MODEL 3
REMARK VINA RESULT:      -2.4      1.869      4.038
REMARK  Name = 75366989
REMARK  13 active torsions:
REMARK  status: ('A' for Active; 'I' for Inactive)
REMARK    1  A    between atoms: O_2  and  C_10
REMARK    2  A    between atoms: O_4  and  C_22
REMARK    3  A    between atoms: N_5  and  C_14
REMARK    4  A    between atoms: N_5  and  C_16
REMARK    5  A    between atoms: N_7  and  C_20
REMARK    6  A    between atoms: N_7  and  C_21
REMARK    7  A    between atoms: N_7  and  C_24
REMARK    8  A    between atoms: C_8  and  C_14
REMARK    9  A    between atoms: C_9  and  C_13
REMARK   10  A    between atoms: C_13  and  C_15
REMARK   11  A    between atoms: C_16  and  C_19
REMARK   12  A    between atoms: C_18  and  C_20
REMARK   13  A    between atoms: C_21  and  C_25
REMARK                            x       y       z     vdW  Elec       q    Type
REMARK                         _______ _______ _______ _____ _____    ______ ____
ROOT
ATOM      1  O   UNL     1      -4.758   0.671  24.379  0.00  0.00    -0.369 OA
ATOM      8  C   UNL     1      -5.144   2.007  24.028  0.00  0.00    +0.161 C 
ATOM      9  C   UNL     1      -4.527   0.451  25.773  0.00  0.00    +0.125 C 
ATOM     10  C   UNL     1      -6.383   2.454  24.813  0.00  0.00    +0.145 C 
ATOM     11  C   UNL     1      -5.781   0.774  26.584  0.00  0.00    +0.034 C 
ATOM     12  C   UNL     1      -6.245   2.202  26.312  0.00  0.00    +0.036 C 
ENDROOT
BRANCH  10   2
ATOM      2  O   UNL     1      -7.515   1.715  24.348  0.00  0.00    -0.389 OA
ATOM     35  H   UNL     1      -8.124   2.344  23.926  0.00  0.00    +0.210 HD
ENDBRANCH  10   2
BRANCH   9  13
ATOM     13  C   UNL     1      -4.131  -1.010  25.946  0.00  0.00    +0.090 C 
BRANCH  13  15
ATOM      3  O   UNL     1      -1.436  -2.394  23.994  0.00  0.00    -0.358 OA
ATOM      6  N   UNL     1      -2.740  -2.409  24.476  0.00  0.00    -0.083 NA
ATOM     15  C   UNL     1      -2.834  -1.322  25.248  0.00  0.00    +0.086 A 
ATOM     17  C   UNL     1      -1.634  -0.592  25.292  0.00  0.00    +0.072 A 
ATOM     18  C   UNL     1      -0.788  -1.308  24.487  0.00  0.00    +0.151 A 
BRANCH  18  20
ATOM     20  C   UNL     1       0.610  -1.136  24.075  0.00  0.00    +0.161 C 
BRANCH  20   7
ATOM      7  N   UNL     1       0.851   0.121  23.347  0.00  0.00    -0.294 NA
ATOM     24  C   UNL     1      -0.393   0.601  22.755  0.00  0.00    +0.105 C 
BRANCH   7  21
ATOM     21  C   UNL     1       1.868  -0.082  22.321  0.00  0.00    +0.119 C 
BRANCH  21  25
ATOM     25  C   UNL     1       3.253  -0.137  22.909  0.00  0.00    -0.033 A 
ATOM     29  C   UNL     1       4.068   0.994  22.882  0.00  0.00    +0.005 A 
ATOM     30  C   UNL     1       3.721  -1.321  23.481  0.00  0.00    +0.005 A 
ATOM     31  C   UNL     1       5.351   0.942  23.427  0.00  0.00    +0.000 A 
ATOM     32  C   UNL     1       5.004  -1.373  24.026  0.00  0.00    +0.000 A 
ATOM     33  C   UNL     1       5.820  -0.241  23.999  0.00  0.00    +0.000 A 
ENDBRANCH  21  25
ENDBRANCH   7  21
ENDBRANCH  20   7
ENDBRANCH  18  20
ENDBRANCH  13  15
ENDBRANCH   9  13
BRANCH   8  14
ATOM     14  C   UNL     1      -3.968   2.973  24.167  0.00  0.00    +0.115 C 
BRANCH  14   5
ATOM      5  N   UNL     1      -4.327   4.110  25.000  0.00  0.00    -0.309 NA
ATOM     34  H   UNL     1      -4.260   4.978  24.469  0.00  0.00    +0.122 HD
BRANCH   5  16
ATOM     16  C   UNL     1      -3.477   4.179  26.182  0.00  0.00    +0.120 C 
BRANCH  16  19
ATOM     19  C   UNL     1      -2.053   3.800  25.872  0.00  0.00    +0.008 A 
ATOM     22  C   UNL     1      -1.257   4.616  25.070  0.00  0.00    +0.121 A 
ATOM     23  C   UNL     1      -1.534   2.616  26.396  0.00  0.00    +0.008 A 
ATOM     26  C   UNL     1       0.061   4.249  24.792  0.00  0.00    +0.046 A 
ATOM     27  C   UNL     1      -0.217   2.249  26.118  0.00  0.00    +0.001 A 
ATOM     28  C   UNL     1       0.580   3.065  25.317  0.00  0.00    +0.004 A 
BRANCH  22   4
ATOM      4  O   UNL     1      -1.748   5.775  24.549  0.00  0.00    -0.506 OA
ATOM     36  H   UNL     1      -2.509   6.064  25.083  0.00  0.00    +0.292 HD
ENDBRANCH  22   4
ENDBRANCH  16  19
ENDBRANCH   5  16
ENDBRANCH  14   5
ENDBRANCH   8  14
TORSDOF 12
ENDMDL
MODEL 4
REMARK VINA RESULT:      -1.9      2.301      5.987
REMARK  Name = 75366989
REMARK  13 active torsions:
REMARK  status: ('A' for Active; 'I' for Inactive)
REMARK    1  A    between atoms: O_2  and  C_10
REMARK    2  A    between atoms: O_4  and  C_22
REMARK    3  A    between atoms: N_5  and  C_14
REMARK    4  A    between atoms: N_5  and  C_16
REMARK    5  A    between atoms: N_7  and  C_20
REMARK    6  A    between atoms: N_7  and  C_21
REMARK    7  A    between atoms: N_7  and  C_24
REMARK    8  A    between atoms: C_8  and  C_14
REMARK    9  A    between atoms: C_9  and  C_13
REMARK   10  A    between atoms: C_13  and  C_15
REMARK   11  A    between atoms: C_16  and  C_19
REMARK   12  A    between atoms: C_18  and  C_20
REMARK   13  A    between atoms: C_21  and  C_25
REMARK                            x       y       z     vdW  Elec       q    Type
REMARK                         _______ _______ _______ _____ _____    ______ ____
ROOT
ATOM      1  O   UNL     1      -2.740  -0.276  24.980  0.00  0.00    -0.369 OA
ATOM      8  C   UNL     1      -1.693  -1.238  24.789  0.00  0.00    +0.161 C 
ATOM      9  C   UNL     1      -3.786  -0.315  24.005  0.00  0.00    +0.125 C 
ATOM     10  C   UNL     1      -2.252  -2.665  24.719  0.00  0.00    +0.145 C 
ATOM     11  C   UNL     1      -4.451  -1.691  23.984  0.00  0.00    +0.034 C 
ATOM     12  C   UNL     1      -3.416  -2.785  23.738  0.00  0.00    +0.036 C 
ENDROOT
BRANCH  10   2
ATOM      2  O   UNL     1      -2.731  -3.037  26.013  0.00  0.00    -0.389 OA
ATOM     35  H   UNL     1      -3.702  -3.061  25.972  0.00  0.00    +0.210 HD
ENDBRANCH  10   2
BRANCH   9  13
ATOM     13  C   UNL     1      -4.793   0.768  24.371  0.00  0.00    +0.090 C 
BRANCH  13  15
ATOM      3  O   UNL     1      -3.891   3.854  26.000  0.00  0.00    -0.358 OA
ATOM      6  N   UNL     1      -4.799   2.851  25.680  0.00  0.00    -0.083 NA
ATOM     15  C   UNL     1      -4.115   1.999  24.910  0.00  0.00    +0.086 A 
ATOM     17  C   UNL     1      -2.785   2.409  24.712  0.00  0.00    +0.072 A 
ATOM     18  C   UNL     1      -2.696   3.579  25.418  0.00  0.00    +0.151 A 
BRANCH  18  20
ATOM     20  C   UNL     1      -1.614   4.543  25.654  0.00  0.00    +0.161 C 
BRANCH  20   7
ATOM      7  N   UNL     1      -0.274   3.932  25.619  0.00  0.00    -0.294 NA
ATOM     24  C   UNL     1       0.152   3.741  24.237  0.00  0.00    +0.105 C 
BRANCH   7  21
ATOM     21  C   UNL     1      -0.285   2.663  26.338  0.00  0.00    +0.119 C 
BRANCH  21  25
ATOM     25  C   UNL     1       0.618   2.693  27.542  0.00  0.00    -0.033 A 
ATOM     29  C   UNL     1       1.969   3.001  27.394  0.00  0.00    +0.005 A 
ATOM     30  C   UNL     1       0.101   2.414  28.808  0.00  0.00    +0.005 A 
ATOM     31  C   UNL     1       2.805   3.030  28.511  0.00  0.00    +0.000 A 
ATOM     32  C   UNL     1       0.936   2.443  29.925  0.00  0.00    +0.000 A 
ATOM     33  C   UNL     1       2.289   2.751  29.777  0.00  0.00    +0.000 A 
ENDBRANCH  21  25
ENDBRANCH   7  21
ENDBRANCH  20   7
ENDBRANCH  18  20
ENDBRANCH  13  15
ENDBRANCH   9  13
BRANCH   8  14
ATOM     14  C   UNL     1      -0.826  -0.876  23.585  0.00  0.00    +0.115 C 
BRANCH  14   5
ATOM      5  N   UNL     1       0.533  -0.562  24.000  0.00  0.00    -0.309 NA
ATOM     34  H   UNL     1       0.536   0.227  24.645  0.00  0.00    +0.122 HD
BRANCH   5  16
ATOM     16  C   UNL     1       1.377  -0.271  22.848  0.00  0.00    +0.120 C 
BRANCH  16  19
ATOM     19  C   UNL     1       2.840  -0.328  23.197  0.00  0.00    +0.008 A 
ATOM     22  C   UNL     1       3.631   0.820  23.143  0.00  0.00    +0.121 A 
ATOM     23  C   UNL     1       3.404  -1.547  23.574  0.00  0.00    +0.008 A 
ATOM     26  C   UNL     1       4.986   0.749  23.469  0.00  0.00    +0.046 A 
ATOM     27  C   UNL     1       4.759  -1.618  23.900  0.00  0.00    +0.001 A 
ATOM     28  C   UNL     1       5.549  -0.470  23.847  0.00  0.00    +0.004 A 
BRANCH  22   4
ATOM      4  O   UNL     1       3.096   2.017  22.776  0.00  0.00    -0.506 OA
ATOM     36  H   UNL     1       2.780   2.481  23.572  0.00  0.00    +0.292 HD
ENDBRANCH  22   4
ENDBRANCH  16  19
ENDBRANCH   5  16
ENDBRANCH  14   5
ENDBRANCH   8  14
TORSDOF 12
ENDMDL
MODEL 5
REMARK VINA RESULT:      -1.4      1.838      6.997
REMARK  Name = 75366989
REMARK  13 active torsions:
REMARK  status: ('A' for Active; 'I' for Inactive)
REMARK    1  A    between atoms: O_2  and  C_10
REMARK    2  A    between atoms: O_4  and  C_22
REMARK    3  A    between atoms: N_5  and  C_14
REMARK    4  A    between atoms: N_5  and  C_16
REMARK    5  A    between atoms: N_7  and  C_20
REMARK    6  A    between atoms: N_7  and  C_21
REMARK    7  A    between atoms: N_7  and  C_24
REMARK    8  A    between atoms: C_8  and  C_14
REMARK    9  A    between atoms: C_9  and  C_13
REMARK   10  A    between atoms: C_13  and  C_15
REMARK   11  A    between atoms: C_16  and  C_19
REMARK   12  A    between atoms: C_18  and  C_20
REMARK   13  A    between atoms: C_21  and  C_25
REMARK                            x       y       z     vdW  Elec       q    Type
REMARK                         _______ _______ _______ _____ _____    ______ ____
ROOT
ATOM      1  O   UNL     1      -1.709  -0.279  24.326  0.00  0.00    -0.369 OA
ATOM      8  C   UNL     1      -0.379  -0.623  24.737  0.00  0.00    +0.161 C 
ATOM      9  C   UNL     1      -2.511  -1.377  23.882  0.00  0.00    +0.125 C 
ATOM     10  C   UNL     1      -0.393  -1.700  25.829  0.00  0.00    +0.145 C 
ATOM     11  C   UNL     1      -2.649  -2.424  24.986  0.00  0.00    +0.034 C 
ATOM     12  C   UNL     1      -1.275  -2.890  25.460  0.00  0.00    +0.036 C 
ENDROOT
BRANCH  10   2
ATOM      2  O   UNL     1      -0.910  -1.129  27.033  0.00  0.00    -0.389 OA
ATOM     35  H   UNL     1      -0.911  -0.163  26.923  0.00  0.00    +0.210 HD
ENDBRANCH  10   2
BRANCH   9  13
ATOM     13  C   UNL     1      -3.874  -0.819  23.490  0.00  0.00    +0.090 C 
BRANCH  13  15
ATOM      3  O   UNL     1      -3.399   2.683  22.786  0.00  0.00    -0.358 OA
ATOM      6  N   UNL     1      -3.185   1.335  22.522  0.00  0.00    -0.083 NA
ATOM     15  C   UNL     1      -3.874   0.686  23.466  0.00  0.00    +0.086 A 
ATOM     17  C   UNL     1      -4.534   1.563  24.343  0.00  0.00    +0.072 A 
ATOM     18  C   UNL     1      -4.203   2.806  23.872  0.00  0.00    +0.151 A 
BRANCH  18  20
ATOM     20  C   UNL     1      -4.533   4.173  24.292  0.00  0.00    +0.161 C 
BRANCH  20   7
ATOM      7  N   UNL     1      -4.924   4.266  25.709  0.00  0.00    -0.294 NA
ATOM     24  C   UNL     1      -6.117   5.095  25.844  0.00  0.00    +0.105 C 
BRANCH   7  21
ATOM     21  C   UNL     1      -3.823   4.809  26.497  0.00  0.00    +0.119 C 
BRANCH  21  25
ATOM     25  C   UNL     1      -2.485   4.367  25.969  0.00  0.00    -0.033 A 
ATOM     29  C   UNL     1      -1.749   5.212  25.140  0.00  0.00    +0.005 A 
ATOM     30  C   UNL     1      -1.980   3.112  26.311  0.00  0.00    +0.005 A 
ATOM     31  C   UNL     1      -0.508   4.802  24.651  0.00  0.00    +0.000 A 
ATOM     32  C   UNL     1      -0.739   2.702  25.823  0.00  0.00    +0.000 A 
ATOM     33  C   UNL     1      -0.003   3.547  24.992  0.00  0.00    +0.000 A 
ENDBRANCH  21  25
ENDBRANCH   7  21
ENDBRANCH  20   7
ENDBRANCH  18  20
ENDBRANCH  13  15
ENDBRANCH   9  13
BRANCH   8  14
ATOM     14  C   UNL     1       0.488  -1.000  23.537  0.00  0.00    +0.115 C 
BRANCH  14   5
ATOM      5  N   UNL     1       1.144   0.173  22.982  0.00  0.00    -0.309 NA
ATOM     34  H   UNL     1       0.483   0.732  22.444  0.00  0.00    +0.122 HD
BRANCH   5  16
ATOM     16  C   UNL     1       2.275  -0.208  22.145  0.00  0.00    +0.120 C 
BRANCH  16  19
ATOM     19  C   UNL     1       3.588  -0.027  22.860  0.00  0.00    +0.008 A 
ATOM     22  C   UNL     1       4.088  -1.026  23.695  0.00  0.00    +0.121 A 
ATOM     23  C   UNL     1       4.304   1.156  22.682  0.00  0.00    +0.008 A 
ATOM     26  C   UNL     1       5.306  -0.842  24.351  0.00  0.00    +0.046 A 
ATOM     27  C   UNL     1       5.522   1.340  23.338  0.00  0.00    +0.001 A 
ATOM     28  C   UNL     1       6.023   0.342  24.172  0.00  0.00    +0.004 A 
BRANCH  22   4
ATOM      4  O   UNL     1       3.401  -2.188  23.881  0.00  0.00    -0.506 OA
ATOM     36  H   UNL     1       4.016  -2.937  23.791  0.00  0.00    +0.292 HD
ENDBRANCH  22   4
ENDBRANCH  16  19
ENDBRANCH   5  16
ENDBRANCH  14   5
ENDBRANCH   8  14
TORSDOF 12
ENDMDL
MODEL 6
REMARK VINA RESULT:      -0.8      1.878      7.126
REMARK  Name = 75366989
REMARK  13 active torsions:
REMARK  status: ('A' for Active; 'I' for Inactive)
REMARK    1  A    between atoms: O_2  and  C_10
REMARK    2  A    between atoms: O_4  and  C_22
REMARK    3  A    between atoms: N_5  and  C_14
REMARK    4  A    between atoms: N_5  and  C_16
REMARK    5  A    between atoms: N_7  and  C_20
REMARK    6  A    between atoms: N_7  and  C_21
REMARK    7  A    between atoms: N_7  and  C_24
REMARK    8  A    between atoms: C_8  and  C_14
REMARK    9  A    between atoms: C_9  and  C_13
REMARK   10  A    between atoms: C_13  and  C_15
REMARK   11  A    between atoms: C_16  and  C_19
REMARK   12  A    between atoms: C_18  and  C_20
REMARK   13  A    between atoms: C_21  and  C_25
REMARK                            x       y       z     vdW  Elec       q    Type
REMARK                         _______ _______ _______ _____ _____    ______ ____
ROOT
ATOM      1  O   UNL     1       0.966   0.384  24.751  0.00  0.00    -0.369 OA
ATOM      8  C   UNL     1       0.785  -0.869  24.076  0.00  0.00    +0.161 C 
ATOM      9  C   UNL     1      -0.236   1.110  25.017  0.00  0.00    +0.125 C 
ATOM     10  C   UNL     1      -0.185  -1.779  24.841  0.00  0.00    +0.145 C 
ATOM     11  C   UNL     1      -1.187   0.281  25.880  0.00  0.00    +0.034 C 
ATOM     12  C   UNL     1      -1.479  -1.063  25.217  0.00  0.00    +0.036 C 
ENDROOT
BRANCH  10   2
ATOM      2  O   UNL     1       0.444  -2.209  26.050  0.00  0.00    -0.389 OA
ATOM     35  H   UNL     1      -0.231  -2.655  26.590  0.00  0.00    +0.210 HD
ENDBRANCH  10   2
BRANCH   9  13
ATOM     13  C   UNL     1       0.156   2.400  25.729  0.00  0.00    +0.090 C 
BRANCH  13  15
ATOM      3  O   UNL     1      -2.010   5.257  25.361  0.00  0.00    -0.358 OA
ATOM      6  N   UNL     1      -0.795   4.604  25.188  0.00  0.00    -0.083 NA
ATOM     15  C   UNL     1      -0.972   3.397  25.735  0.00  0.00    +0.086 A 
ATOM     17  C   UNL     1      -2.264   3.235  26.264  0.00  0.00    +0.072 A 
ATOM     18  C   UNL     1      -2.876   4.432  26.003  0.00  0.00    +0.151 A 
BRANCH  18  20
ATOM     20  C   UNL     1      -4.216   4.967  26.268  0.00  0.00    +0.161 C 
BRANCH  20   7
ATOM      7  N   UNL     1      -5.247   4.426  25.365  0.00  0.00    -0.294 NA
ATOM     24  C   UNL     1      -6.418   5.296  25.366  0.00  0.00    +0.105 C 
BRANCH   7  21
ATOM     21  C   UNL     1      -5.606   3.072  25.770  0.00  0.00    +0.119 C 
BRANCH  21  25
ATOM     25  C   UNL     1      -4.924   2.033  24.920  0.00  0.00    -0.033 A 
ATOM     29  C   UNL     1      -4.097   2.425  23.869  0.00  0.00    +0.005 A 
ATOM     30  C   UNL     1      -5.121   0.677  25.185  0.00  0.00    +0.005 A 
ATOM     31  C   UNL     1      -3.466   1.461  23.081  0.00  0.00    +0.000 A 
ATOM     32  C   UNL     1      -4.490  -0.286  24.398  0.00  0.00    +0.000 A 
ATOM     33  C   UNL     1      -3.662   0.106  23.345  0.00  0.00    +0.000 A 
ENDBRANCH  21  25
ENDBRANCH   7  21
ENDBRANCH  20   7
ENDBRANCH  18  20
ENDBRANCH  13  15
ENDBRANCH   9  13
BRANCH   8  14
ATOM     14  C   UNL     1       0.381  -0.656  22.618  0.00  0.00    +0.115 C 
BRANCH  14   5
ATOM      5  N   UNL     1       1.248   0.320  21.977  0.00  0.00    -0.309 NA
ATOM     34  H   UNL     1       0.760   0.785  21.213  0.00  0.00    +0.122 HD
BRANCH   5  16
ATOM     16  C   UNL     1       2.467  -0.308  21.485  0.00  0.00    +0.120 C 
BRANCH  16  19
ATOM     19  C   UNL     1       3.562  -0.294  22.518  0.00  0.00    +0.008 A 
ATOM     22  C   UNL     1       4.209   0.895  22.854  0.00  0.00    +0.121 A 
ATOM     23  C   UNL     1       3.928  -1.488  23.140  0.00  0.00    +0.008 A 
ATOM     26  C   UNL     1       5.223   0.890  23.813  0.00  0.00    +0.046 A 
ATOM     27  C   UNL     1       4.942  -1.493  24.099  0.00  0.00    +0.001 A 
ATOM     28  C   UNL     1       5.588  -0.304  24.436  0.00  0.00    +0.004 A 
BRANCH  22   4
ATOM      4  O   UNL     1       3.864   2.069  22.256  0.00  0.00    -0.506 OA
ATOM     36  H   UNL     1       3.169   1.897  21.598  0.00  0.00    +0.292 HD
ENDBRANCH  22   4
ENDBRANCH  16  19
ENDBRANCH   5  16
ENDBRANCH  14   5
ENDBRANCH   8  14
TORSDOF 12
ENDMDL
