MODEL 1
REMARK VINA RESULT:      -5.2      0.000      0.000
REMARK  Name = 38028459
REMARK  11 active torsions:
REMARK  status: ('A' for Active; 'I' for Inactive)
REMARK    1  A    between atoms: N_3  and  C_14
REMARK    2  A    between atoms: N_4  and  C_19
REMARK    3  A    between atoms: N_5  and  C_27
REMARK    4  A    between atoms: C_7  and  C_11
REMARK    5  A    between atoms: C_8  and  C_14
REMARK    6  A    between atoms: C_10  and  C_15
REMARK    7  A    between atoms: C_11  and  C_16
REMARK    8  A    between atoms: C_11  and  C_17
REMARK    9  A    between atoms: C_12  and  C_18
REMARK   10  A    between atoms: C_15  and  C_22
REMARK   11  A    between atoms: C_27  and  C_28
REMARK                            x       y       z     vdW  Elec       q    Type
REMARK                         _______ _______ _______ _____ _____    ______ ____
ROOT
ATOM      7  C   UNL     1      -3.441  -0.717  25.047  0.00  0.00    +0.000 C 
ATOM      8  C   UNL     1      -2.196   0.008  24.478  0.00  0.00    +0.032 C 
ATOM      9  C   UNL     1      -4.652  -0.504  24.126  0.00  0.00    +0.012 C 
ATOM     10  C   UNL     1      -4.994   0.987  23.948  0.00  0.00    +0.023 C 
ATOM     12  C   UNL     1      -3.761   1.814  23.647  0.00  0.00    -0.073 C 
ATOM     13  C   UNL     1      -2.519   1.355  23.877  0.00  0.00    -0.022 C 
ATOM     18  C   UNL     1      -3.988   3.167  23.030  0.00  0.00    +0.039 C 
ENDROOT
BRANCH   7  11
ATOM     11  C   UNL     1      -3.190  -2.216  25.237  0.00  0.00    -0.013 C 
ATOM     16  C   UNL     1      -4.045  -3.026  24.266  0.00  0.00    +0.007 C 
ATOM     17  C   UNL     1      -1.710  -2.535  25.049  0.00  0.00    +0.007 C 
ENDBRANCH   7  11
BRANCH   8  14
ATOM     14  C   UNL     1      -1.114   0.172  25.551  0.00  0.00    +0.113 C 
BRANCH  14   3
ATOM      2  O   UNL     1       0.422  -0.971  23.406  0.00  0.00    -0.253 OA
ATOM      3  N   UNL     1       0.087   0.701  24.982  0.00  0.00    -0.299 N 
ATOM      4  N   UNL     1       1.913   0.802  23.568  0.00  0.00    -0.297 N 
ATOM     26  C   UNL     1       0.779   0.082  23.934  0.00  0.00    +0.300 C 
ATOM     33  H   UNL     1       0.423   1.603  25.305  0.00  0.00    +0.150 HD
ATOM     34  H   UNL     1       2.157   1.616  24.123  0.00  0.00    +0.151 HD
BRANCH   4  19
ATOM     19  C   UNL     1       2.809   0.384  22.512  0.00  0.00    +0.074 C 
ATOM     20  C   UNL     1       4.080   1.241  22.497  0.00  0.00    +0.022 C 
ATOM     21  C   UNL     1       3.145  -1.106  22.629  0.00  0.00    +0.022 C 
ATOM     23  C   UNL     1       5.002   0.938  23.677  0.00  0.00    +0.002 C 
ATOM     24  C   UNL     1       4.070  -1.405  23.810  0.00  0.00    +0.002 C 
ATOM     25  C   UNL     1       5.331  -0.549  23.768  0.00  0.00    +0.000 C 
ENDBRANCH   4  19
ENDBRANCH  14   3
ENDBRANCH   8  14
BRANCH  10  15
ATOM     15  C   UNL     1      -5.737   1.533  25.172  0.00  0.00    +0.103 C 
BRANCH  15  22
ATOM      1  O   UNL     1      -5.827   3.946  25.317  0.00  0.00    -0.276 OA
ATOM      5  N   UNL     1      -4.040   2.807  26.273  0.00  0.00    -0.311 N 
ATOM     22  C   UNL     1      -5.237   2.901  25.579  0.00  0.00    +0.214 C 
ATOM     35  H   UNL     1      -3.631   1.894  26.445  0.00  0.00    +0.149 HD
BRANCH   5  27
ATOM     27  C   UNL     1      -3.332   3.959  26.783  0.00  0.00    +0.141 C 
BRANCH  27  28
ATOM      6  N   UNL     1       0.075   3.638  25.172  0.00  0.00    -0.263 NA
ATOM     28  C   UNL     1      -2.118   4.283  25.961  0.00  0.00    -0.012 A 
ATOM     29  C   UNL     1      -2.034   5.473  25.246  0.00  0.00    +0.008 A 
ATOM     30  C   UNL     1      -1.046   3.407  25.892  0.00  0.00    +0.115 A 
ATOM     31  C   UNL     1      -0.897   5.746  24.495  0.00  0.00    +0.020 A 
ATOM     32  C   UNL     1       0.120   4.805  24.491  0.00  0.00    +0.111 A 
ENDBRANCH  27  28
ENDBRANCH   5  27
ENDBRANCH  15  22
ENDBRANCH  10  15
TORSDOF 8
ENDMDL
MODEL 2
REMARK VINA RESULT:      -5.1      1.300      3.921
REMARK  Name = 38028459
REMARK  11 active torsions:
REMARK  status: ('A' for Active; 'I' for Inactive)
REMARK    1  A    between atoms: N_3  and  C_14
REMARK    2  A    between atoms: N_4  and  C_19
REMARK    3  A    between atoms: N_5  and  C_27
REMARK    4  A    between atoms: C_7  and  C_11
REMARK    5  A    between atoms: C_8  and  C_14
REMARK    6  A    between atoms: C_10  and  C_15
REMARK    7  A    between atoms: C_11  and  C_16
REMARK    8  A    between atoms: C_11  and  C_17
REMARK    9  A    between atoms: C_12  and  C_18
REMARK   10  A    between atoms: C_15  and  C_22
REMARK   11  A    between atoms: C_27  and  C_28
REMARK                            x       y       z     vdW  Elec       q    Type
REMARK                         _______ _______ _______ _____ _____    ______ ____
ROOT
ATOM      7  C   UNL     1      -2.798   2.235  24.058  0.00  0.00    +0.000 C 
ATOM      8  C   UNL     1      -1.580   2.902  24.743  0.00  0.00    +0.032 C 
ATOM      9  C   UNL     1      -3.909   3.267  23.814  0.00  0.00    +0.012 C 
ATOM     10  C   UNL     1      -4.386   3.930  25.120  0.00  0.00    +0.023 C 
ATOM     12  C   UNL     1      -3.223   4.377  25.981  0.00  0.00    -0.073 C 
ATOM     13  C   UNL     1      -1.974   3.918  25.789  0.00  0.00    -0.022 C 
ATOM     18  C   UNL     1      -3.521   5.401  27.041  0.00  0.00    +0.039 C 
ENDROOT
BRANCH   7  11
ATOM     11  C   UNL     1      -2.411   1.566  22.735  0.00  0.00    -0.013 C 
ATOM     16  C   UNL     1      -3.236   0.302  22.515  0.00  0.00    +0.007 C 
ATOM     17  C   UNL     1      -2.595   2.540  21.574  0.00  0.00    +0.007 C 
ENDBRANCH   7  11
BRANCH   8  14
ATOM     14  C   UNL     1      -0.655   1.854  25.371  0.00  0.00    +0.113 C 
BRANCH  14   3
ATOM      2  O   UNL     1       0.482   0.157  23.347  0.00  0.00    -0.253 OA
ATOM      3  N   UNL     1       0.660   1.944  24.819  0.00  0.00    -0.299 N 
ATOM      4  N   UNL     1       2.451   1.381  23.468  0.00  0.00    -0.297 N 
ATOM     26  C   UNL     1       1.141   1.076  23.831  0.00  0.00    +0.300 C 
ATOM     33  H   UNL     1       1.257   2.714  25.105  0.00  0.00    +0.150 HD
ATOM     34  H   UNL     1       2.928   2.111  23.987  0.00  0.00    +0.151 HD
BRANCH   4  19
ATOM     19  C   UNL     1       3.189   0.640  22.469  0.00  0.00    +0.074 C 
ATOM     20  C   UNL     1       4.664   1.054  22.455  0.00  0.00    +0.022 C 
ATOM     21  C   UNL     1       3.038  -0.871  22.679  0.00  0.00    +0.022 C 
ATOM     23  C   UNL     1       5.424   0.553  23.682  0.00  0.00    +0.002 C 
ATOM     24  C   UNL     1       3.801  -1.369  23.906  0.00  0.00    +0.002 C 
ATOM     25  C   UNL     1       5.268  -0.955  23.864  0.00  0.00    +0.000 C 
ENDBRANCH   4  19
ENDBRANCH  14   3
ENDBRANCH   8  14
BRANCH  10  15
ATOM     15  C   UNL     1      -5.322   2.999  25.900  0.00  0.00    +0.103 C 
BRANCH  15  22
ATOM      1  O   UNL     1      -6.433   1.603  24.267  0.00  0.00    -0.276 OA
ATOM      5  N   UNL     1      -4.776   0.689  25.617  0.00  0.00    -0.311 N 
ATOM     22  C   UNL     1      -5.594   1.711  25.157  0.00  0.00    +0.214 C 
ATOM     35  H   UNL     1      -4.107   0.878  26.357  0.00  0.00    +0.149 HD
BRANCH   5  27
ATOM     27  C   UNL     1      -4.819  -0.655  25.088  0.00  0.00    +0.141 C 
BRANCH  27  28
ATOM      6  N   UNL     1      -1.187  -1.328  25.900  0.00  0.00    -0.263 NA
ATOM     28  C   UNL     1      -3.465  -1.302  25.088  0.00  0.00    -0.012 A 
ATOM     29  C   UNL     1      -3.210  -2.431  24.317  0.00  0.00    +0.008 A 
ATOM     30  C   UNL     1      -2.429  -0.794  25.856  0.00  0.00    +0.115 A 
ATOM     31  C   UNL     1      -1.945  -3.008  24.336  0.00  0.00    +0.020 A 
ATOM     32  C   UNL     1      -0.977  -2.424  25.136  0.00  0.00    +0.111 A 
ENDBRANCH  27  28
ENDBRANCH   5  27
ENDBRANCH  15  22
ENDBRANCH  10  15
TORSDOF 8
ENDMDL
MODEL 3
REMARK VINA RESULT:      -2.2      1.738      6.090
REMARK  Name = 38028459
REMARK  11 active torsions:
REMARK  status: ('A' for Active; 'I' for Inactive)
REMARK    1  A    between atoms: N_3  and  C_14
REMARK    2  A    between atoms: N_4  and  C_19
REMARK    3  A    between atoms: N_5  and  C_27
REMARK    4  A    between atoms: C_7  and  C_11
REMARK    5  A    between atoms: C_8  and  C_14
REMARK    6  A    between atoms: C_10  and  C_15
REMARK    7  A    between atoms: C_11  and  C_16
REMARK    8  A    between atoms: C_11  and  C_17
REMARK    9  A    between atoms: C_12  and  C_18
REMARK   10  A    between atoms: C_15  and  C_22
REMARK   11  A    between atoms: C_27  and  C_28
REMARK                            x       y       z     vdW  Elec       q    Type
REMARK                         _______ _______ _______ _____ _____    ______ ____
ROOT
ATOM      7  C   UNL     1      -3.596   3.309  25.550  0.00  0.00    +0.000 C 
ATOM      8  C   UNL     1      -3.681   3.851  24.102  0.00  0.00    +0.032 C 
ATOM      9  C   UNL     1      -2.447   3.987  26.310  0.00  0.00    +0.012 C 
ATOM     10  C   UNL     1      -1.085   3.765  25.626  0.00  0.00    +0.023 C 
ATOM     12  C   UNL     1      -1.156   4.024  24.135  0.00  0.00    -0.073 C 
ATOM     13  C   UNL     1      -2.325   4.072  23.474  0.00  0.00    -0.022 C 
ATOM     18  C   UNL     1       0.148   4.271  23.428  0.00  0.00    +0.039 C 
ENDROOT
BRANCH   7  11
ATOM     11  C   UNL     1      -4.911   3.510  26.310  0.00  0.00    -0.013 C 
ATOM     16  C   UNL     1      -5.777   4.553  25.610  0.00  0.00    +0.007 C 
ATOM     17  C   UNL     1      -5.658   2.186  26.440  0.00  0.00    +0.007 C 
ENDBRANCH   7  11
BRANCH   8  14
ATOM     14  C   UNL     1      -4.512   2.922  23.211  0.00  0.00    +0.113 C 
BRANCH  14   3
ATOM      2  O   UNL     1      -5.008   0.619  24.859  0.00  0.00    -0.253 OA
ATOM      3  N   UNL     1      -3.891   1.639  23.098  0.00  0.00    -0.299 N 
ATOM      4  N   UNL     1      -3.446  -0.569  23.619  0.00  0.00    -0.297 N 
ATOM     26  C   UNL     1      -4.189   0.563  23.943  0.00  0.00    +0.300 C 
ATOM     33  H   UNL     1      -3.251   1.473  22.327  0.00  0.00    +0.150 HD
ATOM     34  H   UNL     1      -2.741  -0.482  22.893  0.00  0.00    +0.151 HD
BRANCH   4  19
ATOM     19  C   UNL     1      -3.558  -1.821  24.335  0.00  0.00    +0.074 C 
ATOM     20  C   UNL     1      -2.536  -2.842  23.822  0.00  0.00    +0.022 C 
ATOM     21  C   UNL     1      -3.420  -1.608  25.845  0.00  0.00    +0.022 C 
ATOM     23  C   UNL     1      -1.107  -2.497  24.238  0.00  0.00    +0.002 C 
ATOM     24  C   UNL     1      -1.988  -1.265  26.259  0.00  0.00    +0.002 C 
ATOM     25  C   UNL     1      -0.992  -2.299  25.747  0.00  0.00    +0.000 C 
ENDBRANCH   4  19
ENDBRANCH  14   3
ENDBRANCH   8  14
BRANCH  10  15
ATOM     15  C   UNL     1      -0.545   2.360  25.915  0.00  0.00    +0.103 C 
BRANCH  15  22
ATOM      1  O   UNL     1      -1.327   1.065  24.028  0.00  0.00    -0.276 OA
ATOM      5  N   UNL     1       0.953   1.406  24.315  0.00  0.00    -0.311 N 
ATOM     22  C   UNL     1      -0.384   1.541  24.654  0.00  0.00    +0.214 C 
ATOM     35  H   UNL     1       1.664   1.842  24.896  0.00  0.00    +0.149 HD
BRANCH   5  27
ATOM     27  C   UNL     1       1.404   0.672  23.155  0.00  0.00    +0.141 C 
BRANCH  27  28
ATOM      6  N   UNL     1       4.384  -1.560  23.819  0.00  0.00    -0.263 NA
ATOM     28  C   UNL     1       2.827   0.214  23.296  0.00  0.00    -0.012 A 
ATOM     29  C   UNL     1       3.886   1.083  23.055  0.00  0.00    +0.008 A 
ATOM     30  C   UNL     1       3.126  -1.085  23.673  0.00  0.00    +0.115 A 
ATOM     31  C   UNL     1       5.193   0.631  23.195  0.00  0.00    +0.020 A 
ATOM     32  C   UNL     1       5.387  -0.687  23.576  0.00  0.00    +0.111 A 
ENDBRANCH  27  28
ENDBRANCH   5  27
ENDBRANCH  15  22
ENDBRANCH  10  15
TORSDOF 8
ENDMDL
MODEL 4
REMARK VINA RESULT:      -2.1      1.463      4.282
REMARK  Name = 38028459
REMARK  11 active torsions:
REMARK  status: ('A' for Active; 'I' for Inactive)
REMARK    1  A    between atoms: N_3  and  C_14
REMARK    2  A    between atoms: N_4  and  C_19
REMARK    3  A    between atoms: N_5  and  C_27
REMARK    4  A    between atoms: C_7  and  C_11
REMARK    5  A    between atoms: C_8  and  C_14
REMARK    6  A    between atoms: C_10  and  C_15
REMARK    7  A    between atoms: C_11  and  C_16
REMARK    8  A    between atoms: C_11  and  C_17
REMARK    9  A    between atoms: C_12  and  C_18
REMARK   10  A    between atoms: C_15  and  C_22
REMARK   11  A    between atoms: C_27  and  C_28
REMARK                            x       y       z     vdW  Elec       q    Type
REMARK                         _______ _______ _______ _____ _____    ______ ____
ROOT
ATOM      7  C   UNL     1      -2.503   2.360  23.627  0.00  0.00    +0.000 C 
ATOM      8  C   UNL     1      -1.080   1.753  23.678  0.00  0.00    +0.032 C 
ATOM      9  C   UNL     1      -2.457   3.865  23.933  0.00  0.00    +0.012 C 
ATOM     10  C   UNL     1      -1.850   4.158  25.319  0.00  0.00    +0.023 C 
ATOM     12  C   UNL     1      -0.571   3.380  25.549  0.00  0.00    -0.073 C 
ATOM     13  C   UNL     1      -0.237   2.317  24.798  0.00  0.00    -0.022 C 
ATOM     18  C   UNL     1       0.339   3.881  26.636  0.00  0.00    +0.039 C 
ENDROOT
BRANCH   7  11
ATOM     11  C   UNL     1      -3.172   2.128  22.268  0.00  0.00    -0.013 C 
ATOM     16  C   UNL     1      -4.106   3.287  21.930  0.00  0.00    +0.007 C 
ATOM     17  C   UNL     1      -2.118   1.948  21.181  0.00  0.00    +0.007 C 
ENDBRANCH   7  11
BRANCH   8  14
ATOM     14  C   UNL     1      -1.133   0.226  23.797  0.00  0.00    +0.113 C 
BRANCH  14   3
ATOM      2  O   UNL     1       1.038   0.013  21.924  0.00  0.00    -0.253 OA
ATOM      3  N   UNL     1       0.168  -0.308  24.053  0.00  0.00    -0.299 N 
ATOM      4  N   UNL     1       2.345  -0.938  23.590  0.00  0.00    -0.297 N 
ATOM     26  C   UNL     1       1.176  -0.376  23.082  0.00  0.00    +0.300 C 
ATOM     33  H   UNL     1       0.402  -0.592  25.000  0.00  0.00    +0.150 HD
ATOM     34  H   UNL     1       2.324  -1.297  24.540  0.00  0.00    +0.151 HD
BRANCH   4  19
ATOM     19  C   UNL     1       3.541  -1.126  22.800  0.00  0.00    +0.074 C 
ATOM     20  C   UNL     1       3.898   0.149  22.028  0.00  0.00    +0.022 C 
ATOM     21  C   UNL     1       4.711  -1.593  23.672  0.00  0.00    +0.022 C 
ATOM     23  C   UNL     1       4.429   1.254  22.940  0.00  0.00    +0.002 C 
ATOM     24  C   UNL     1       5.241  -0.484  24.581  0.00  0.00    +0.002 C 
ATOM     25  C   UNL     1       5.599   0.769  23.790  0.00  0.00    +0.000 C 
ENDBRANCH   4  19
ENDBRANCH  14   3
ENDBRANCH   8  14
BRANCH  10  15
ATOM     15  C   UNL     1      -2.867   3.888  26.434  0.00  0.00    +0.103 C 
BRANCH  15  22
ATOM      1  O   UNL     1      -5.144   3.797  25.625  0.00  0.00    -0.276 OA
ATOM      5  N   UNL     1      -3.920   1.832  25.824  0.00  0.00    -0.311 N 
ATOM     22  C   UNL     1      -4.111   3.202  25.917  0.00  0.00    +0.214 C 
ATOM     35  H   UNL     1      -3.024   1.431  26.086  0.00  0.00    +0.149 HD
BRANCH   5  27
ATOM     27  C   UNL     1      -4.943   0.922  25.359  0.00  0.00    +0.141 C 
BRANCH  27  28
ATOM      6  N   UNL     1      -3.098  -2.350  25.790  0.00  0.00    -0.263 NA
ATOM     28  C   UNL     1      -4.391  -0.441  25.062  0.00  0.00    -0.012 A 
ATOM     29  C   UNL     1      -4.629  -1.060  23.839  0.00  0.00    +0.008 A 
ATOM     30  C   UNL     1      -3.626  -1.123  25.995  0.00  0.00    +0.115 A 
ATOM     31  C   UNL     1      -4.103  -2.323  23.591  0.00  0.00    +0.020 A 
ATOM     32  C   UNL     1      -3.351  -2.920  24.590  0.00  0.00    +0.111 A 
ENDBRANCH  27  28
ENDBRANCH   5  27
ENDBRANCH  15  22
ENDBRANCH  10  15
TORSDOF 8
ENDMDL
MODEL 5
REMARK VINA RESULT:      -1.7      1.763      6.356
REMARK  Name = 38028459
REMARK  11 active torsions:
REMARK  status: ('A' for Active; 'I' for Inactive)
REMARK    1  A    between atoms: N_3  and  C_14
REMARK    2  A    between atoms: N_4  and  C_19
REMARK    3  A    between atoms: N_5  and  C_27
REMARK    4  A    between atoms: C_7  and  C_11
REMARK    5  A    between atoms: C_8  and  C_14
REMARK    6  A    between atoms: C_10  and  C_15
REMARK    7  A    between atoms: C_11  and  C_16
REMARK    8  A    between atoms: C_11  and  C_17
REMARK    9  A    between atoms: C_12  and  C_18
REMARK   10  A    between atoms: C_15  and  C_22
REMARK   11  A    between atoms: C_27  and  C_28
REMARK                            x       y       z     vdW  Elec       q    Type
REMARK                         _______ _______ _______ _____ _____    ______ ____
ROOT
ATOM      7  C   UNL     1      -2.696  -1.888  24.443  0.00  0.00    +0.000 C 
ATOM      8  C   UNL     1      -3.241  -1.289  25.764  0.00  0.00    +0.032 C 
ATOM      9  C   UNL     1      -1.168  -2.026  24.507  0.00  0.00    +0.012 C 
ATOM     10  C   UNL     1      -0.470  -0.675  24.754  0.00  0.00    +0.023 C 
ATOM     12  C   UNL     1      -1.128   0.100  25.878  0.00  0.00    -0.073 C 
ATOM     13  C   UNL     1      -2.360  -0.197  26.325  0.00  0.00    -0.022 C 
ATOM     18  C   UNL     1      -0.316   1.197  26.508  0.00  0.00    +0.039 C 
ENDROOT
BRANCH   7  11
ATOM     11  C   UNL     1      -3.328  -3.249  24.133  0.00  0.00    -0.013 C 
ATOM     16  C   UNL     1      -4.659  -3.065  23.409  0.00  0.00    +0.007 C 
ATOM     17  C   UNL     1      -2.373  -4.101  23.302  0.00  0.00    +0.007 C 
ENDBRANCH   7  11
BRANCH   8  14
ATOM     14  C   UNL     1      -4.666  -0.754  25.583  0.00  0.00    +0.113 C 
BRANCH  14   3
ATOM      2  O   UNL     1      -3.632   1.016  23.566  0.00  0.00    -0.253 OA
ATOM      3  N   UNL     1      -4.678   0.675  25.611  0.00  0.00    -0.299 N 
ATOM      4  N   UNL     1      -4.292   2.828  24.860  0.00  0.00    -0.297 N 
ATOM     26  C   UNL     1      -4.153   1.470  24.584  0.00  0.00    +0.300 C 
ATOM     33  H   UNL     1      -5.149   1.143  26.379  0.00  0.00    +0.150 HD
ATOM     34  H   UNL     1      -4.666   3.091  25.766  0.00  0.00    +0.151 HD
BRANCH   4  19
ATOM     19  C   UNL     1      -3.833   3.868  23.966  0.00  0.00    +0.074 C 
ATOM     20  C   UNL     1      -3.666   5.198  24.709  0.00  0.00    +0.022 C 
ATOM     21  C   UNL     1      -2.534   3.458  23.263  0.00  0.00    +0.022 C 
ATOM     23  C   UNL     1      -2.464   5.195  25.651  0.00  0.00    +0.002 C 
ATOM     24  C   UNL     1      -1.332   3.458  24.209  0.00  0.00    +0.002 C 
ATOM     25  C   UNL     1      -1.181   4.794  24.927  0.00  0.00    +0.000 C 
ENDBRANCH   4  19
ENDBRANCH  14   3
ENDBRANCH   8  14
BRANCH  10  15
ATOM     15  C   UNL     1      -0.415   0.160  23.470  0.00  0.00    +0.103 C 
BRANCH  15  22
ATOM      1  O   UNL     1       1.523   1.575  23.775  0.00  0.00    -0.276 OA
ATOM      5  N   UNL     1       1.555  -0.074  22.137  0.00  0.00    -0.311 N 
ATOM     22  C   UNL     1       0.984   0.652  23.171  0.00  0.00    +0.214 C 
ATOM     35  H   UNL     1       1.029  -0.825  21.701  0.00  0.00    +0.149 HD
BRANCH   5  27
ATOM     27  C   UNL     1       2.888   0.179  21.638  0.00  0.00    +0.141 C 
BRANCH  27  28
ATOM      6  N   UNL     1       4.961  -1.650  24.218  0.00  0.00    -0.263 NA
ATOM     28  C   UNL     1       3.938  -0.095  22.674  0.00  0.00    -0.012 A 
ATOM     29  C   UNL     1       4.838   0.893  23.061  0.00  0.00    +0.008 A 
ATOM     30  C   UNL     1       4.041  -1.338  23.278  0.00  0.00    +0.115 A 
ATOM     31  C   UNL     1       5.799   0.610  24.025  0.00  0.00    +0.020 A 
ATOM     32  C   UNL     1       5.818  -0.664  24.568  0.00  0.00    +0.111 A 
ENDBRANCH  27  28
ENDBRANCH   5  27
ENDBRANCH  15  22
ENDBRANCH  10  15
TORSDOF 8
ENDMDL
MODEL 6
REMARK VINA RESULT:      -1.6      1.810      4.301
REMARK  Name = 38028459
REMARK  11 active torsions:
REMARK  status: ('A' for Active; 'I' for Inactive)
REMARK    1  A    between atoms: N_3  and  C_14
REMARK    2  A    between atoms: N_4  and  C_19
REMARK    3  A    between atoms: N_5  and  C_27
REMARK    4  A    between atoms: C_7  and  C_11
REMARK    5  A    between atoms: C_8  and  C_14
REMARK    6  A    between atoms: C_10  and  C_15
REMARK    7  A    between atoms: C_11  and  C_16
REMARK    8  A    between atoms: C_11  and  C_17
REMARK    9  A    between atoms: C_12  and  C_18
REMARK   10  A    between atoms: C_15  and  C_22
REMARK   11  A    between atoms: C_27  and  C_28
REMARK                            x       y       z     vdW  Elec       q    Type
REMARK                         _______ _______ _______ _____ _____    ______ ____
ROOT
ATOM      7  C   UNL     1      -3.035   2.018  24.366  0.00  0.00    +0.000 C 
ATOM      8  C   UNL     1      -2.085   2.183  23.154  0.00  0.00    +0.032 C 
ATOM      9  C   UNL     1      -3.368   3.388  24.976  0.00  0.00    +0.012 C 
ATOM     10  C   UNL     1      -2.108   4.141  25.442  0.00  0.00    +0.023 C 
ATOM     12  C   UNL     1      -1.017   4.115  24.391  0.00  0.00    -0.073 C 
ATOM     13  C   UNL     1      -1.031   3.243  23.368  0.00  0.00    -0.022 C 
ATOM     18  C   UNL     1       0.068   5.148  24.517  0.00  0.00    +0.039 C 
ENDROOT
BRANCH   7  11
ATOM     11  C   UNL     1      -4.328   1.293  23.982  0.00  0.00    -0.013 C 
ATOM     16  C   UNL     1      -4.026  -0.139  23.547  0.00  0.00    +0.007 C 
ATOM     17  C   UNL     1      -5.312   1.307  25.148  0.00  0.00    +0.007 C 
ENDBRANCH   7  11
BRANCH   8  14
ATOM     14  C   UNL     1      -1.410   0.855  22.795  0.00  0.00    +0.113 C 
BRANCH  14   3
ATOM      2  O   UNL     1       0.725  -0.350  21.292  0.00  0.00    -0.253 OA
ATOM      3  N   UNL     1      -0.016   0.895  23.107  0.00  0.00    -0.299 N 
ATOM      4  N   UNL     1       2.243   0.471  22.845  0.00  0.00    -0.297 N 
ATOM     26  C   UNL     1       0.967   0.281  22.320  0.00  0.00    +0.300 C 
ATOM     33  H   UNL     1       0.291   1.451  23.900  0.00  0.00    +0.150 HD
ATOM     34  H   UNL     1       2.321   0.941  23.742  0.00  0.00    +0.151 HD
BRANCH   4  19
ATOM     19  C   UNL     1       3.439  -0.059  22.230  0.00  0.00    +0.074 C 
ATOM     20  C   UNL     1       4.637   0.868  22.466  0.00  0.00    +0.022 C 
ATOM     21  C   UNL     1       3.731  -1.480  22.725  0.00  0.00    +0.022 C 
ATOM     23  C   UNL     1       5.123   0.838  23.914  0.00  0.00    +0.002 C 
ATOM     24  C   UNL     1       4.219  -1.506  24.173  0.00  0.00    +0.002 C 
ATOM     25  C   UNL     1       5.416  -0.585  24.381  0.00  0.00    +0.000 C 
ENDBRANCH   4  19
ENDBRANCH  14   3
ENDBRANCH   8  14
BRANCH  10  15
ATOM     15  C   UNL     1      -1.597   3.589  26.777  0.00  0.00    +0.103 C 
BRANCH  15  22
ATOM      1  O   UNL     1       0.618   2.636  26.587  0.00  0.00    -0.276 OA
ATOM      5  N   UNL     1      -1.242   1.254  26.414  0.00  0.00    -0.311 N 
ATOM     22  C   UNL     1      -0.599   2.469  26.587  0.00  0.00    +0.214 C 
ATOM     35  H   UNL     1      -2.257   1.216  26.434  0.00  0.00    +0.149 HD
BRANCH   5  27
ATOM     27  C   UNL     1      -0.537   0.009  26.209  0.00  0.00    +0.141 C 
BRANCH  27  28
ATOM      6  N   UNL     1      -1.797  -2.935  24.199  0.00  0.00    -0.263 NA
ATOM     28  C   UNL     1      -1.443  -1.075  25.701  0.00  0.00    -0.012 A 
ATOM     29  C   UNL     1      -2.723  -1.239  26.220  0.00  0.00    +0.008 A 
ATOM     30  C   UNL     1      -1.031  -1.941  24.701  0.00  0.00    +0.115 A 
ATOM     31  C   UNL     1      -3.540  -2.251  25.727  0.00  0.00    +0.020 A 
ATOM     32  C   UNL     1      -3.035  -3.064  24.726  0.00  0.00    +0.111 A 
ENDBRANCH  27  28
ENDBRANCH   5  27
ENDBRANCH  15  22
ENDBRANCH  10  15
TORSDOF 8
ENDMDL
