MODEL 1
REMARK VINA RESULT:       1.2      0.000      0.000
REMARK  Name = 11865846
REMARK  10 active torsions:
REMARK  status: ('A' for Active; 'I' for Inactive)
REMARK    1  A    between atoms: S_1  and  C_25
REMARK    2  A    between atoms: S_1  and  C_29
REMARK    3  A    between atoms: N_7  and  C_11
REMARK    4  A    between atoms: N_8  and  C_15
REMARK    5  A    between atoms: N_9  and  C_24
REMARK    6  A    between atoms: C_12  and  C_20
REMARK    7  A    between atoms: C_22  and  C_25
REMARK    8  A    between atoms: C_24  and  C_26
REMARK    9  A    between atoms: C_24  and  C_27
REMARK   10  A    between atoms: C_26  and  C_28
REMARK                            x       y       z     vdW  Elec       q    Type
REMARK                         _______ _______ _______ _____ _____    ______ ____
ROOT
ATOM      3  O   UNL     1       0.005   3.425  25.904  0.00  0.00    -0.275 OA
ATOM      6  N   UNL     1      -0.320   1.154  25.591  0.00  0.00    -0.287 N 
ATOM     11  C   UNL     1      -0.352  -0.242  23.675  0.00  0.00    +0.105 C 
ATOM     12  C   UNL     1      -0.482   1.208  24.142  0.00  0.00    +0.182 C 
ATOM     13  C   UNL     1      -0.820  -1.051  24.888  0.00  0.00    +0.043 C 
ATOM     14  C   UNL     1      -0.354  -0.222  26.079  0.00  0.00    +0.110 C 
ATOM     22  C   UNL     1      -0.014   2.275  26.348  0.00  0.00    +0.226 C 
ENDROOT
BRANCH  11   7
ATOM      4  O   UNL     1       1.818   1.620  23.384  0.00  0.00    -0.253 OA
ATOM      7  N   UNL     1       1.015  -0.555  23.331  0.00  0.00    -0.294 N 
ATOM      8  N   UNL     1       3.231  -0.150  22.873  0.00  0.00    -0.297 N 
ATOM     23  C   UNL     1       2.005   0.416  23.212  0.00  0.00    +0.300 C 
ATOM     35  H   UNL     1       1.250  -1.516  23.097  0.00  0.00    +0.151 HD
ATOM     36  H   UNL     1       3.289  -1.164  22.829  0.00  0.00    +0.151 HD
BRANCH   8  15
ATOM     15  C   UNL     1       4.436   0.625  22.684  0.00  0.00    +0.074 C 
ATOM     16  C   UNL     1       4.922   1.220  24.011  0.00  0.00    +0.022 C 
ATOM     17  C   UNL     1       5.532  -0.213  22.018  0.00  0.00    +0.022 C 
ATOM     18  C   UNL     1       5.505   0.163  24.947  0.00  0.00    +0.002 C 
ATOM     19  C   UNL     1       6.115  -1.269  22.958  0.00  0.00    +0.002 C 
ATOM     21  C   UNL     1       6.601  -0.651  24.264  0.00  0.00    +0.000 C 
ENDBRANCH   8  15
ENDBRANCH  11   7
BRANCH  12  20
ATOM      2  O   UNL     1      -2.258   1.988  22.749  0.00  0.00    -0.274 OA
ATOM      9  N   UNL     1      -2.570   1.944  25.056  0.00  0.00    -0.302 N 
ATOM     20  C   UNL     1      -1.858   1.746  23.885  0.00  0.00    +0.236 C 
ATOM     37  H   UNL     1      -2.166   1.634  25.934  0.00  0.00    +0.150 HD
BRANCH   9  24
ATOM     24  C   UNL     1      -3.913   2.476  25.083  0.00  0.00    +0.163 C 
BRANCH  24  27
ATOM      5  O   UNL     1      -3.377   4.779  24.519  0.00  0.00    -0.274 OA
ATOM     10  N   UNL     1      -4.558   3.522  23.001  0.00  0.00    -0.328 N 
ATOM     27  C   UNL     1      -3.920   3.721  24.207  0.00  0.00    +0.231 C 
ATOM     38  H   UNL     1      -4.982   2.635  22.748  0.00  0.00    +0.145 HD
ATOM     39  H   UNL     1      -4.622   4.268  22.316  0.00  0.00    +0.145 HD
ENDBRANCH  24  27
BRANCH  24  26
ATOM     26  C   UNL     1      -4.948   1.464  24.580  0.00  0.00    +0.067 C 
BRANCH  26  28
ATOM     28  C   UNL     1      -4.486   0.035  24.725  0.00  0.00    -0.045 A 
ATOM     30  C   UNL     1      -4.503  -0.819  23.621  0.00  0.00    +0.004 A 
ATOM     31  C   UNL     1      -4.039  -0.433  25.960  0.00  0.00    +0.004 A 
ATOM     32  C   UNL     1      -4.075  -2.140  23.755  0.00  0.00    +0.000 A 
ATOM     33  C   UNL     1      -3.611  -1.753  26.094  0.00  0.00    +0.000 A 
ATOM     34  C   UNL     1      -3.629  -2.607  24.991  0.00  0.00    +0.000 A 
ENDBRANCH  26  28
ENDBRANCH  24  26
ENDBRANCH   9  24
ENDBRANCH  12  20
BRANCH  22  25
ATOM     25  C   UNL     1       0.295   2.015  27.801  0.00  0.00    +0.164 C 
BRANCH  25   1
ATOM      1  S   UNL     1       1.811   2.895  28.203  0.00  0.00    -0.155 S 
ATOM     29  C   UNL     1       2.003   2.353  29.919  0.00  0.00    +0.085 C 
ENDBRANCH  25   1
ENDBRANCH  22  25
TORSDOF 9
ENDMDL
MODEL 2
REMARK VINA RESULT:       1.4      2.076      3.003
REMARK  Name = 11865846
REMARK  10 active torsions:
REMARK  status: ('A' for Active; 'I' for Inactive)
REMARK    1  A    between atoms: S_1  and  C_25
REMARK    2  A    between atoms: S_1  and  C_29
REMARK    3  A    between atoms: N_7  and  C_11
REMARK    4  A    between atoms: N_8  and  C_15
REMARK    5  A    between atoms: N_9  and  C_24
REMARK    6  A    between atoms: C_12  and  C_20
REMARK    7  A    between atoms: C_22  and  C_25
REMARK    8  A    between atoms: C_24  and  C_26
REMARK    9  A    between atoms: C_24  and  C_27
REMARK   10  A    between atoms: C_26  and  C_28
REMARK                            x       y       z     vdW  Elec       q    Type
REMARK                         _______ _______ _______ _____ _____    ______ ____
ROOT
ATOM      3  O   UNL     1      -3.017   4.549  23.383  0.00  0.00    -0.275 OA
ATOM      6  N   UNL     1      -1.874   3.261  24.931  0.00  0.00    -0.287 N 
ATOM     11  C   UNL     1      -0.671   1.223  24.790  0.00  0.00    +0.105 C 
ATOM     12  C   UNL     1      -1.722   2.081  24.086  0.00  0.00    +0.182 C 
ATOM     13  C   UNL     1      -0.823   1.610  26.263  0.00  0.00    +0.043 C 
ATOM     14  C   UNL     1      -1.199   3.087  26.214  0.00  0.00    +0.110 C 
ATOM     22  C   UNL     1      -2.453   4.435  24.474  0.00  0.00    +0.226 C 
ENDROOT
BRANCH  11   7
ATOM      4  O   UNL     1       0.976  -0.460  23.141  0.00  0.00    -0.253 OA
ATOM      7  N   UNL     1       0.654   1.522  24.302  0.00  0.00    -0.294 N 
ATOM      8  N   UNL     1       2.625   1.173  23.172  0.00  0.00    -0.297 N 
ATOM     23  C   UNL     1       1.382   0.643  23.503  0.00  0.00    +0.300 C 
ATOM     35  H   UNL     1       1.105   2.379  24.610  0.00  0.00    +0.151 HD
ATOM     36  H   UNL     1       2.829   2.125  23.463  0.00  0.00    +0.151 HD
BRANCH   8  15
ATOM     15  C   UNL     1       3.590   0.475  22.351  0.00  0.00    +0.074 C 
ATOM     16  C   UNL     1       5.006   1.008  22.593  0.00  0.00    +0.022 C 
ATOM     17  C   UNL     1       3.519  -1.038  22.584  0.00  0.00    +0.022 C 
ATOM     18  C   UNL     1       5.562   0.596  23.955  0.00  0.00    +0.002 C 
ATOM     19  C   UNL     1       4.078  -1.448  23.947  0.00  0.00    +0.002 C 
ATOM     21  C   UNL     1       5.491  -0.915  24.159  0.00  0.00    +0.000 C 
ENDBRANCH   8  15
ENDBRANCH  11   7
BRANCH  12  20
ATOM      2  O   UNL     1      -3.589   1.058  23.005  0.00  0.00    -0.274 OA
ATOM      9  N   UNL     1      -3.593   1.243  25.325  0.00  0.00    -0.302 N 
ATOM     20  C   UNL     1      -3.058   1.401  24.058  0.00  0.00    +0.236 C 
ATOM     37  H   UNL     1      -3.027   1.495  26.130  0.00  0.00    +0.150 HD
BRANCH   9  24
ATOM     24  C   UNL     1      -4.881   0.637  25.569  0.00  0.00    +0.163 C 
BRANCH  24  27
ATOM      5  O   UNL     1      -6.463   2.001  24.327  0.00  0.00    -0.274 OA
ATOM     10  N   UNL     1      -6.256   2.344  26.589  0.00  0.00    -0.328 N 
ATOM     27  C   UNL     1      -5.929   1.727  25.400  0.00  0.00    +0.231 C 
ATOM     38  H   UNL     1      -5.822   2.091  27.472  0.00  0.00    +0.145 HD
ATOM     39  H   UNL     1      -6.953   3.081  26.619  0.00  0.00    +0.145 HD
ENDBRANCH  24  27
BRANCH  24  26
ATOM     26  C   UNL     1      -5.164  -0.529  24.614  0.00  0.00    +0.067 C 
BRANCH  26  28
ATOM     28  C   UNL     1      -4.029  -1.522  24.553  0.00  0.00    -0.045 A 
ATOM     30  C   UNL     1      -4.053  -2.552  23.613  0.00  0.00    +0.004 A 
ATOM     31  C   UNL     1      -2.955  -1.410  25.436  0.00  0.00    +0.004 A 
ATOM     32  C   UNL     1      -3.004  -3.470  23.556  0.00  0.00    +0.000 A 
ATOM     33  C   UNL     1      -1.907  -2.327  25.380  0.00  0.00    +0.000 A 
ATOM     34  C   UNL     1      -1.931  -3.357  24.440  0.00  0.00    +0.000 A 
ENDBRANCH  26  28
ENDBRANCH  24  26
ENDBRANCH   9  24
ENDBRANCH  12  20
BRANCH  22  25
ATOM     25  C   UNL     1      -2.369   5.612  25.413  0.00  0.00    +0.164 C 
BRANCH  25   1
ATOM      1  S   UNL     1      -3.578   5.354  26.720  0.00  0.00    -0.155 S 
ATOM     29  C   UNL     1      -4.996   4.879  25.700  0.00  0.00    +0.085 C 
ENDBRANCH  25   1
ENDBRANCH  22  25
TORSDOF 9
ENDMDL
MODEL 3
REMARK VINA RESULT:       2.2      2.375      3.686
REMARK  Name = 11865846
REMARK  10 active torsions:
REMARK  status: ('A' for Active; 'I' for Inactive)
REMARK    1  A    between atoms: S_1  and  C_25
REMARK    2  A    between atoms: S_1  and  C_29
REMARK    3  A    between atoms: N_7  and  C_11
REMARK    4  A    between atoms: N_8  and  C_15
REMARK    5  A    between atoms: N_9  and  C_24
REMARK    6  A    between atoms: C_12  and  C_20
REMARK    7  A    between atoms: C_22  and  C_25
REMARK    8  A    between atoms: C_24  and  C_26
REMARK    9  A    between atoms: C_24  and  C_27
REMARK   10  A    between atoms: C_26  and  C_28
REMARK                            x       y       z     vdW  Elec       q    Type
REMARK                         _______ _______ _______ _____ _____    ______ ____
ROOT
ATOM      3  O   UNL     1      -2.718  -0.585  26.629  0.00  0.00    -0.275 OA
ATOM      6  N   UNL     1      -1.981   0.291  24.617  0.00  0.00    -0.287 N 
ATOM     11  C   UNL     1       0.072   1.238  23.902  0.00  0.00    +0.105 C 
ATOM     12  C   UNL     1      -0.764   0.903  25.138  0.00  0.00    +0.182 C 
ATOM     13  C   UNL     1      -0.979   1.441  22.807  0.00  0.00    +0.043 C 
ATOM     14  C   UNL     1      -2.078   0.449  23.168  0.00  0.00    +0.110 C 
ATOM     22  C   UNL     1      -2.828  -0.473  25.407  0.00  0.00    +0.226 C 
ENDROOT
BRANCH  11   7
ATOM      4  O   UNL     1       2.816   1.471  23.080  0.00  0.00    -0.253 OA
ATOM      7  N   UNL     1       0.970   0.157  23.575  0.00  0.00    -0.294 N 
ATOM      8  N   UNL     1       2.936  -0.842  22.928  0.00  0.00    -0.297 N 
ATOM     23  C   UNL     1       2.290   0.363  23.185  0.00  0.00    +0.300 C 
ATOM     35  H   UNL     1       0.605  -0.792  23.560  0.00  0.00    +0.151 HD
ATOM     36  H   UNL     1       2.429  -1.702  23.118  0.00  0.00    +0.151 HD
BRANCH   8  15
ATOM     15  C   UNL     1       4.316  -0.927  22.504  0.00  0.00    +0.074 C 
ATOM     16  C   UNL     1       4.888   0.464  22.209  0.00  0.00    +0.022 C 
ATOM     17  C   UNL     1       5.166  -1.668  23.541  0.00  0.00    +0.022 C 
ATOM     18  C   UNL     1       5.115   1.285  23.478  0.00  0.00    +0.002 C 
ATOM     19  C   UNL     1       5.393  -0.844  24.810  0.00  0.00    +0.002 C 
ATOM     21  C   UNL     1       5.973   0.530  24.490  0.00  0.00    +0.000 C 
ENDBRANCH   8  15
ENDBRANCH  11   7
BRANCH  12  20
ATOM      2  O   UNL     1      -0.969   2.296  27.067  0.00  0.00    -0.274 OA
ATOM      9  N   UNL     1      -1.848   3.036  25.042  0.00  0.00    -0.302 N 
ATOM     20  C   UNL     1      -1.187   2.143  25.868  0.00  0.00    +0.236 C 
ATOM     37  H   UNL     1      -1.902   2.838  24.048  0.00  0.00    +0.150 HD
BRANCH   9  24
ATOM     24  C   UNL     1      -2.378   4.297  25.507  0.00  0.00    +0.163 C 
BRANCH  24  27
ATOM      5  O   UNL     1      -1.685   6.584  25.064  0.00  0.00    -0.274 OA
ATOM     10  N   UNL     1      -0.194   4.884  24.651  0.00  0.00    -0.328 N 
ATOM     27  C   UNL     1      -1.418   5.384  25.046  0.00  0.00    +0.231 C 
ATOM     38  H   UNL     1       0.019   3.892  24.664  0.00  0.00    +0.145 HD
ATOM     39  H   UNL     1       0.543   5.505  24.334  0.00  0.00    +0.145 HD
ENDBRANCH  24  27
BRANCH  24  26
ATOM     26  C   UNL     1      -3.789   4.567  24.970  0.00  0.00    +0.067 C 
BRANCH  26  28
ATOM     28  C   UNL     1      -4.721   3.397  25.164  0.00  0.00    -0.045 A 
ATOM     30  C   UNL     1      -4.923   2.486  24.127  0.00  0.00    +0.004 A 
ATOM     31  C   UNL     1      -5.382   3.226  26.380  0.00  0.00    +0.004 A 
ATOM     32  C   UNL     1      -5.785   1.404  24.307  0.00  0.00    +0.000 A 
ATOM     33  C   UNL     1      -6.244   2.145  26.561  0.00  0.00    +0.000 A 
ATOM     34  C   UNL     1      -6.445   1.234  25.524  0.00  0.00    +0.000 A 
ENDBRANCH  26  28
ENDBRANCH  24  26
ENDBRANCH   9  24
ENDBRANCH  12  20
BRANCH  22  25
ATOM     25  C   UNL     1      -3.940  -1.179  24.674  0.00  0.00    +0.164 C 
BRANCH  25   1
ATOM      1  S   UNL     1      -3.556  -2.936  24.659  0.00  0.00    -0.155 S 
ATOM     29  C   UNL     1      -1.776  -2.830  24.343  0.00  0.00    +0.085 C 
ENDBRANCH  25   1
ENDBRANCH  22  25
TORSDOF 9
ENDMDL
MODEL 4
REMARK VINA RESULT:       2.8      2.155      3.752
REMARK  Name = 11865846
REMARK  10 active torsions:
REMARK  status: ('A' for Active; 'I' for Inactive)
REMARK    1  A    between atoms: S_1  and  C_25
REMARK    2  A    between atoms: S_1  and  C_29
REMARK    3  A    between atoms: N_7  and  C_11
REMARK    4  A    between atoms: N_8  and  C_15
REMARK    5  A    between atoms: N_9  and  C_24
REMARK    6  A    between atoms: C_12  and  C_20
REMARK    7  A    between atoms: C_22  and  C_25
REMARK    8  A    between atoms: C_24  and  C_26
REMARK    9  A    between atoms: C_24  and  C_27
REMARK   10  A    between atoms: C_26  and  C_28
REMARK                            x       y       z     vdW  Elec       q    Type
REMARK                         _______ _______ _______ _____ _____    ______ ____
ROOT
ATOM      3  O   UNL     1      -2.906   4.144  23.164  0.00  0.00    -0.275 OA
ATOM      6  N   UNL     1      -1.858   2.742  24.680  0.00  0.00    -0.287 N 
ATOM     11  C   UNL     1      -0.459   0.842  24.449  0.00  0.00    +0.105 C 
ATOM     12  C   UNL     1      -1.486   1.708  23.720  0.00  0.00    +0.182 C 
ATOM     13  C   UNL     1      -0.837   1.006  25.924  0.00  0.00    +0.043 C 
ATOM     14  C   UNL     1      -1.341   2.442  26.012  0.00  0.00    +0.110 C 
ATOM     22  C   UNL     1      -2.482   3.921  24.299  0.00  0.00    +0.226 C 
ENDROOT
BRANCH  11   7
ATOM      4  O   UNL     1       1.541  -0.464  22.849  0.00  0.00    -0.253 OA
ATOM      7  N   UNL     1       0.884   1.307  24.196  0.00  0.00    -0.294 N 
ATOM      8  N   UNL     1       3.009   1.270  23.322  0.00  0.00    -0.297 N 
ATOM     23  C   UNL     1       1.789   0.606  23.403  0.00  0.00    +0.300 C 
ATOM     35  H   UNL     1       1.207   2.145  24.672  0.00  0.00    +0.151 HD
ATOM     36  H   UNL     1       3.082   2.185  23.758  0.00  0.00    +0.151 HD
BRANCH   8  15
ATOM     15  C   UNL     1       4.135   0.770  22.564  0.00  0.00    +0.074 C 
ATOM     16  C   UNL     1       5.461   1.236  23.176  0.00  0.00    +0.022 C 
ATOM     17  C   UNL     1       4.084  -0.757  22.446  0.00  0.00    +0.022 C 
ATOM     18  C   UNL     1       5.776   0.533  24.495  0.00  0.00    +0.002 C 
ATOM     19  C   UNL     1       4.401  -1.458  23.768  0.00  0.00    +0.002 C 
ATOM     21  C   UNL     1       5.730  -0.986  24.350  0.00  0.00    +0.000 C 
ENDBRANCH   8  15
ENDBRANCH  11   7
BRANCH  12  20
ATOM      2  O   UNL     1      -3.557   1.334  22.591  0.00  0.00    -0.274 OA
ATOM      9  N   UNL     1      -2.842  -0.213  24.176  0.00  0.00    -0.302 N 
ATOM     20  C   UNL     1      -2.737   0.939  23.415  0.00  0.00    +0.236 C 
ATOM     37  H   UNL     1      -2.063  -0.481  24.771  0.00  0.00    +0.150 HD
BRANCH   9  24
ATOM     24  C   UNL     1      -3.964  -1.118  24.089  0.00  0.00    +0.163 C 
BRANCH  24  27
ATOM      5  O   UNL     1      -4.072  -3.544  24.006  0.00  0.00    -0.274 OA
ATOM     10  N   UNL     1      -2.081  -2.552  24.581  0.00  0.00    -0.328 N 
ATOM     27  C   UNL     1      -3.414  -2.530  24.228  0.00  0.00    +0.231 C 
ATOM     38  H   UNL     1      -1.544  -1.705  24.739  0.00  0.00    +0.145 HD
ATOM     39  H   UNL     1      -1.586  -3.431  24.693  0.00  0.00    +0.145 HD
ENDBRANCH  24  27
BRANCH  24  26
ATOM     26  C   UNL     1      -5.014  -0.845  25.173  0.00  0.00    +0.067 C 
BRANCH  26  28
ATOM     28  C   UNL     1      -5.361   0.618  25.295  0.00  0.00    -0.045 A 
ATOM     30  C   UNL     1      -4.698   1.416  26.228  0.00  0.00    +0.004 A 
ATOM     31  C   UNL     1      -6.342   1.174  24.475  0.00  0.00    +0.004 A 
ATOM     32  C   UNL     1      -5.018   2.769  26.341  0.00  0.00    +0.000 A 
ATOM     33  C   UNL     1      -6.663   2.526  24.587  0.00  0.00    +0.000 A 
ATOM     34  C   UNL     1      -6.000   3.324  25.521  0.00  0.00    +0.000 A 
ENDBRANCH  26  28
ENDBRANCH  24  26
ENDBRANCH   9  24
ENDBRANCH  12  20
BRANCH  22  25
ATOM     25  C   UNL     1      -2.632   4.957  25.385  0.00  0.00    +0.164 C 
BRANCH  25   1
ATOM      1  S   UNL     1      -1.424   6.253  25.075  0.00  0.00    -0.155 S 
ATOM     29  C   UNL     1      -0.070   5.228  24.447  0.00  0.00    +0.085 C 
ENDBRANCH  25   1
ENDBRANCH  22  25
TORSDOF 9
ENDMDL
MODEL 5
REMARK VINA RESULT:       3.1      2.435      3.607
REMARK  Name = 11865846
REMARK  10 active torsions:
REMARK  status: ('A' for Active; 'I' for Inactive)
REMARK    1  A    between atoms: S_1  and  C_25
REMARK    2  A    between atoms: S_1  and  C_29
REMARK    3  A    between atoms: N_7  and  C_11
REMARK    4  A    between atoms: N_8  and  C_15
REMARK    5  A    between atoms: N_9  and  C_24
REMARK    6  A    between atoms: C_12  and  C_20
REMARK    7  A    between atoms: C_22  and  C_25
REMARK    8  A    between atoms: C_24  and  C_26
REMARK    9  A    between atoms: C_24  and  C_27
REMARK   10  A    between atoms: C_26  and  C_28
REMARK                            x       y       z     vdW  Elec       q    Type
REMARK                         _______ _______ _______ _____ _____    ______ ____
ROOT
ATOM      3  O   UNL     1      -2.714   0.809  22.275  0.00  0.00    -0.275 OA
ATOM      6  N   UNL     1      -1.695   2.394  23.620  0.00  0.00    -0.287 N 
ATOM     11  C   UNL     1      -0.067   2.273  25.340  0.00  0.00    +0.105 C 
ATOM     12  C   UNL     1      -1.095   1.453  24.560  0.00  0.00    +0.182 C 
ATOM     13  C   UNL     1      -0.632   3.695  25.288  0.00  0.00    +0.043 C 
ATOM     14  C   UNL     1      -1.308   3.769  23.924  0.00  0.00    +0.110 C 
ATOM     22  C   UNL     1      -2.403   1.979  22.502  0.00  0.00    +0.226 C 
ENDROOT
BRANCH  11   7
ATOM      4  O   UNL     1       0.831   0.297  23.455  0.00  0.00    -0.253 OA
ATOM      7  N   UNL     1       1.233   2.202  24.716  0.00  0.00    -0.294 N 
ATOM      8  N   UNL     1       2.889   1.367  23.358  0.00  0.00    -0.297 N 
ATOM     23  C   UNL     1       1.582   1.205  23.809  0.00  0.00    +0.300 C 
ATOM     35  H   UNL     1       1.947   2.865  25.003  0.00  0.00    +0.151 HD
ATOM     36  H   UNL     1       3.396   2.194  23.659  0.00  0.00    +0.151 HD
BRANCH   8  15
ATOM     15  C   UNL     1       3.515   0.474  22.409  0.00  0.00    +0.074 C 
ATOM     16  C   UNL     1       5.038   0.654  22.406  0.00  0.00    +0.022 C 
ATOM     17  C   UNL     1       3.129  -0.983  22.684  0.00  0.00    +0.022 C 
ATOM     18  C   UNL     1       5.694   0.100  23.669  0.00  0.00    +0.002 C 
ATOM     19  C   UNL     1       3.789  -1.535  23.948  0.00  0.00    +0.002 C 
ATOM     21  C   UNL     1       5.304  -1.355  23.916  0.00  0.00    +0.000 C 
ENDBRANCH   8  15
ENDBRANCH  11   7
BRANCH  12  20
ATOM      2  O   UNL     1      -1.990   0.240  26.412  0.00  0.00    -0.274 OA
ATOM      9  N   UNL     1      -3.442   1.431  25.037  0.00  0.00    -0.302 N 
ATOM     20  C   UNL     1      -2.203   0.972  25.450  0.00  0.00    +0.236 C 
ATOM     37  H   UNL     1      -3.489   2.097  24.272  0.00  0.00    +0.150 HD
BRANCH   9  24
ATOM     24  C   UNL     1      -4.674   1.093  25.711  0.00  0.00    +0.163 C 
BRANCH  24  27
ATOM      5  O   UNL     1      -5.238   3.380  26.308  0.00  0.00    -0.274 OA
ATOM     10  N   UNL     1      -6.679   2.211  24.951  0.00  0.00    -0.328 N 
ATOM     27  C   UNL     1      -5.540   2.344  25.719  0.00  0.00    +0.231 C 
ATOM     38  H   UNL     1      -6.903   1.356  24.452  0.00  0.00    +0.145 HD
ATOM     39  H   UNL     1      -7.337   2.978  24.859  0.00  0.00    +0.145 HD
ENDBRANCH  24  27
BRANCH  24  26
ATOM     26  C   UNL     1      -5.412  -0.063  25.025  0.00  0.00    +0.067 C 
BRANCH  26  28
ATOM     28  C   UNL     1      -4.529  -1.264  24.794  0.00  0.00    -0.045 A 
ATOM     30  C   UNL     1      -3.749  -1.768  25.835  0.00  0.00    +0.004 A 
ATOM     31  C   UNL     1      -4.492  -1.871  23.539  0.00  0.00    +0.004 A 
ATOM     32  C   UNL     1      -2.932  -2.879  25.621  0.00  0.00    +0.000 A 
ATOM     33  C   UNL     1      -3.675  -2.981  23.324  0.00  0.00    +0.000 A 
ATOM     34  C   UNL     1      -2.895  -3.485  24.365  0.00  0.00    +0.000 A 
ENDBRANCH  26  28
ENDBRANCH  24  26
ENDBRANCH   9  24
ENDBRANCH  12  20
BRANCH  22  25
ATOM     25  C   UNL     1      -2.800   3.072  21.541  0.00  0.00    +0.164 C 
BRANCH  25   1
ATOM      1  S   UNL     1      -4.452   3.623  21.993  0.00  0.00    -0.155 S 
ATOM     29  C   UNL     1      -4.029   4.611  23.449  0.00  0.00    +0.085 C 
ENDBRANCH  25   1
ENDBRANCH  22  25
TORSDOF 9
ENDMDL
MODEL 6
REMARK VINA RESULT:       3.8      2.541      4.316
REMARK  Name = 11865846
REMARK  10 active torsions:
REMARK  status: ('A' for Active; 'I' for Inactive)
REMARK    1  A    between atoms: S_1  and  C_25
REMARK    2  A    between atoms: S_1  and  C_29
REMARK    3  A    between atoms: N_7  and  C_11
REMARK    4  A    between atoms: N_8  and  C_15
REMARK    5  A    between atoms: N_9  and  C_24
REMARK    6  A    between atoms: C_12  and  C_20
REMARK    7  A    between atoms: C_22  and  C_25
REMARK    8  A    between atoms: C_24  and  C_26
REMARK    9  A    between atoms: C_24  and  C_27
REMARK   10  A    between atoms: C_26  and  C_28
REMARK                            x       y       z     vdW  Elec       q    Type
REMARK                         _______ _______ _______ _____ _____    ______ ____
ROOT
ATOM      3  O   UNL     1      -2.350  -0.538  26.270  0.00  0.00    -0.275 OA
ATOM      6  N   UNL     1      -1.293  -0.554  24.209  0.00  0.00    -0.287 N 
ATOM     11  C   UNL     1      -0.152   1.097  22.947  0.00  0.00    +0.105 C 
ATOM     12  C   UNL     1      -1.155   0.893  24.083  0.00  0.00    +0.182 C 
ATOM     13  C   UNL     1      -0.334  -0.153  22.083  0.00  0.00    +0.043 C 
ATOM     14  C   UNL     1      -0.661  -1.248  23.091  0.00  0.00    +0.110 C 
ATOM     22  C   UNL     1      -1.822  -1.155  25.342  0.00  0.00    +0.226 C 
ENDROOT
BRANCH  11   7
ATOM      4  O   UNL     1       2.251   0.237  21.625  0.00  0.00    -0.253 OA
ATOM      7  N   UNL     1       1.195   1.193  23.456  0.00  0.00    -0.294 N 
ATOM      8  N   UNL     1       3.482   0.957  23.456  0.00  0.00    -0.297 N 
ATOM     23  C   UNL     1       2.305   0.749  22.742  0.00  0.00    +0.300 C 
ATOM     35  H   UNL     1       1.335   1.534  24.403  0.00  0.00    +0.151 HD
ATOM     36  H   UNL     1       3.419   1.456  24.339  0.00  0.00    +0.151 HD
BRANCH   8  15
ATOM     15  C   UNL     1       4.788   0.590  22.956  0.00  0.00    +0.074 C 
ATOM     16  C   UNL     1       5.880   0.904  23.984  0.00  0.00    +0.022 C 
ATOM     17  C   UNL     1       4.824  -0.883  22.539  0.00  0.00    +0.022 C 
ATOM     18  C   UNL     1       5.847  -0.046  25.180  0.00  0.00    +0.002 C 
ATOM     19  C   UNL     1       4.793  -1.832  23.738  0.00  0.00    +0.002 C 
ATOM     21  C   UNL     1       5.896  -1.507  24.741  0.00  0.00    +0.000 C 
ENDBRANCH   8  15
ENDBRANCH  11   7
BRANCH  12  20
ATOM      2  O   UNL     1      -2.837   1.626  22.554  0.00  0.00    -0.274 OA
ATOM      9  N   UNL     1      -3.296   1.659  24.836  0.00  0.00    -0.302 N 
ATOM     20  C   UNL     1      -2.510   1.422  23.721  0.00  0.00    +0.236 C 
ATOM     37  H   UNL     1      -2.949   1.378  25.749  0.00  0.00    +0.150 HD
BRANCH   9  24
ATOM     24  C   UNL     1      -4.637   2.191  24.760  0.00  0.00    +0.163 C 
BRANCH  24  27
ATOM      5  O   UNL     1      -5.386   0.163  25.870  0.00  0.00    -0.274 OA
ATOM     10  N   UNL     1      -6.383   2.156  26.432  0.00  0.00    -0.328 N 
ATOM     27  C   UNL     1      -5.497   1.378  25.716  0.00  0.00    +0.231 C 
ATOM     38  H   UNL     1      -6.447   3.162  26.310  0.00  0.00    +0.145 HD
ATOM     39  H   UNL     1      -7.007   1.740  27.116  0.00  0.00    +0.145 HD
ENDBRANCH  24  27
BRANCH  24  26
ATOM     26  C   UNL     1      -4.692   3.679  25.125  0.00  0.00    +0.067 C 
BRANCH  26  28
ATOM     28  C   UNL     1      -3.343   4.351  25.043  0.00  0.00    -0.045 A 
ATOM     30  C   UNL     1      -2.308   3.940  25.883  0.00  0.00    +0.004 A 
ATOM     31  C   UNL     1      -3.132   5.382  24.128  0.00  0.00    +0.004 A 
ATOM     32  C   UNL     1      -1.060   4.561  25.807  0.00  0.00    +0.000 A 
ATOM     33  C   UNL     1      -1.886   6.003  24.052  0.00  0.00    +0.000 A 
ATOM     34  C   UNL     1      -0.850   5.592  24.891  0.00  0.00    +0.000 A 
ENDBRANCH  26  28
ENDBRANCH  24  26
ENDBRANCH   9  24
ENDBRANCH  12  20
BRANCH  22  25
ATOM     25  C   UNL     1      -1.728  -2.659  25.384  0.00  0.00    +0.164 C 
BRANCH  25   1
ATOM      1  S   UNL     1      -3.376  -3.319  25.096  0.00  0.00    -0.155 S 
ATOM     29  C   UNL     1      -3.979  -2.067  23.936  0.00  0.00    +0.085 C 
ENDBRANCH  25   1
ENDBRANCH  22  25
TORSDOF 9
ENDMDL
MODEL 7
REMARK VINA RESULT:       4.5      3.335      5.494
REMARK  Name = 11865846
REMARK  10 active torsions:
REMARK  status: ('A' for Active; 'I' for Inactive)
REMARK    1  A    between atoms: S_1  and  C_25
REMARK    2  A    between atoms: S_1  and  C_29
REMARK    3  A    between atoms: N_7  and  C_11
REMARK    4  A    between atoms: N_8  and  C_15
REMARK    5  A    between atoms: N_9  and  C_24
REMARK    6  A    between atoms: C_12  and  C_20
REMARK    7  A    between atoms: C_22  and  C_25
REMARK    8  A    between atoms: C_24  and  C_26
REMARK    9  A    between atoms: C_24  and  C_27
REMARK   10  A    between atoms: C_26  and  C_28
REMARK                            x       y       z     vdW  Elec       q    Type
REMARK                         _______ _______ _______ _____ _____    ______ ____
ROOT
ATOM      3  O   UNL     1      -3.445  -1.083  26.131  0.00  0.00    -0.275 OA
ATOM      6  N   UNL     1      -1.648  -0.605  24.752  0.00  0.00    -0.287 N 
ATOM     11  C   UNL     1      -0.375   1.354  24.349  0.00  0.00    +0.105 C 
ATOM     12  C   UNL     1      -1.708   0.846  24.898  0.00  0.00    +0.182 C 
ATOM     13  C   UNL     1       0.022   0.283  23.329  0.00  0.00    +0.043 C 
ATOM     14  C   UNL     1      -0.508  -1.011  23.935  0.00  0.00    +0.110 C 
ATOM     22  C   UNL     1      -2.490  -1.459  25.449  0.00  0.00    +0.226 C 
ENDROOT
BRANCH  11   7
ATOM      4  O   UNL     1      -0.233   3.408  26.355  0.00  0.00    -0.253 OA
ATOM      7  N   UNL     1       0.608   1.469  25.399  0.00  0.00    -0.294 N 
ATOM      8  N   UNL     1       1.653   2.378  27.234  0.00  0.00    -0.297 N 
ATOM     23  C   UNL     1       0.600   2.502  26.333  0.00  0.00    +0.300 C 
ATOM     35  H   UNL     1       1.381   0.809  25.418  0.00  0.00    +0.151 HD
ATOM     36  H   UNL     1       2.238   1.550  27.169  0.00  0.00    +0.151 HD
BRANCH   8  15
ATOM     15  C   UNL     1       1.888   3.314  28.311  0.00  0.00    +0.074 C 
ATOM     16  C   UNL     1       0.692   3.361  29.269  0.00  0.00    +0.022 C 
ATOM     17  C   UNL     1       3.184   2.981  29.057  0.00  0.00    +0.022 C 
ATOM     18  C   UNL     1       0.573   2.097  30.120  0.00  0.00    +0.002 C 
ATOM     19  C   UNL     1       3.062   1.717  29.909  0.00  0.00    +0.002 C 
ATOM     21  C   UNL     1       1.872   1.794  30.861  0.00  0.00    +0.000 C 
ENDBRANCH   8  15
ENDBRANCH  11   7
BRANCH  12  20
ATOM      2  O   UNL     1      -2.766   1.445  22.843  0.00  0.00    -0.274 OA
ATOM      9  N   UNL     1      -3.987   1.580  24.820  0.00  0.00    -0.302 N 
ATOM     20  C   UNL     1      -2.861   1.312  24.060  0.00  0.00    +0.236 C 
ATOM     37  H   UNL     1      -3.974   1.357  25.811  0.00  0.00    +0.150 HD
BRANCH   9  24
ATOM     24  C   UNL     1      -5.224   2.064  24.255  0.00  0.00    +0.163 C 
BRANCH  24  27
ATOM      5  O   UNL     1      -6.153   1.642  26.461  0.00  0.00    -0.274 OA
ATOM     10  N   UNL     1      -7.565   1.602  24.648  0.00  0.00    -0.328 N 
ATOM     27  C   UNL     1      -6.330   1.735  25.248  0.00  0.00    +0.231 C 
ATOM     38  H   UNL     1      -7.699   1.705  23.647  0.00  0.00    +0.145 HD
ATOM     39  H   UNL     1      -8.392   1.396  25.200  0.00  0.00    +0.145 HD
ENDBRANCH  24  27
BRANCH  24  26
ATOM     26  C   UNL     1      -5.186   3.572  23.979  0.00  0.00    +0.067 C 
BRANCH  26  28
ATOM     28  C   UNL     1      -3.925   4.226  24.489  0.00  0.00    -0.045 A 
ATOM     30  C   UNL     1      -2.992   4.738  23.588  0.00  0.00    +0.004 A 
ATOM     31  C   UNL     1      -3.694   4.320  25.861  0.00  0.00    +0.004 A 
ATOM     32  C   UNL     1      -1.826   5.344  24.059  0.00  0.00    +0.000 A 
ATOM     33  C   UNL     1      -2.529   4.925  26.333  0.00  0.00    +0.000 A 
ATOM     34  C   UNL     1      -1.595   5.437  25.432  0.00  0.00    +0.000 A 
ENDBRANCH  26  28
ENDBRANCH  24  26
ENDBRANCH   9  24
ENDBRANCH  12  20
BRANCH  22  25
ATOM     25  C   UNL     1      -2.177  -2.928  25.322  0.00  0.00    +0.164 C 
BRANCH  25   1
ATOM      1  S   UNL     1      -3.431  -3.664  24.263  0.00  0.00    -0.155 S 
ATOM     29  C   UNL     1      -4.239  -2.148  23.692  0.00  0.00    +0.085 C 
ENDBRANCH  25   1
ENDBRANCH  22  25
TORSDOF 9
ENDMDL
MODEL 8
REMARK VINA RESULT:       5.0      2.638      4.624
REMARK  Name = 11865846
REMARK  10 active torsions:
REMARK  status: ('A' for Active; 'I' for Inactive)
REMARK    1  A    between atoms: S_1  and  C_25
REMARK    2  A    between atoms: S_1  and  C_29
REMARK    3  A    between atoms: N_7  and  C_11
REMARK    4  A    between atoms: N_8  and  C_15
REMARK    5  A    between atoms: N_9  and  C_24
REMARK    6  A    between atoms: C_12  and  C_20
REMARK    7  A    between atoms: C_22  and  C_25
REMARK    8  A    between atoms: C_24  and  C_26
REMARK    9  A    between atoms: C_24  and  C_27
REMARK   10  A    between atoms: C_26  and  C_28
REMARK                            x       y       z     vdW  Elec       q    Type
REMARK                         _______ _______ _______ _____ _____    ______ ____
ROOT
ATOM      3  O   UNL     1      -2.400   0.923  21.532  0.00  0.00    -0.275 OA
ATOM      6  N   UNL     1      -1.596   2.167  23.312  0.00  0.00    -0.287 N 
ATOM     11  C   UNL     1      -0.087   1.701  25.080  0.00  0.00    +0.105 C 
ATOM     12  C   UNL     1      -0.995   1.052  24.036  0.00  0.00    +0.182 C 
ATOM     13  C   UNL     1      -0.751   3.057  25.336  0.00  0.00    +0.043 C 
ATOM     14  C   UNL     1      -1.333   3.439  23.980  0.00  0.00    +0.110 C 
ATOM     22  C   UNL     1      -2.192   2.013  22.069  0.00  0.00    +0.226 C 
ENDROOT
BRANCH  11   7
ATOM      4  O   UNL     1       1.300  -0.076  23.298  0.00  0.00    -0.253 OA
ATOM      7  N   UNL     1       1.255   1.861  24.572  0.00  0.00    -0.294 N 
ATOM      8  N   UNL     1       3.142   1.335  23.371  0.00  0.00    -0.297 N 
ATOM     23  C   UNL     1       1.849   0.946  23.708  0.00  0.00    +0.300 C 
ATOM     35  H   UNL     1       1.816   2.636  24.914  0.00  0.00    +0.151 HD
ATOM     36  H   UNL     1       3.470   2.236  23.708  0.00  0.00    +0.151 HD
BRANCH   8  15
ATOM     15  C   UNL     1       3.994   0.571  22.487  0.00  0.00    +0.074 C 
ATOM     16  C   UNL     1       5.473   0.783  22.829  0.00  0.00    +0.022 C 
ATOM     17  C   UNL     1       3.626  -0.916  22.516  0.00  0.00    +0.022 C 
ATOM     18  C   UNL     1       5.875   0.102  24.137  0.00  0.00    +0.002 C 
ATOM     19  C   UNL     1       4.030  -1.595  23.825  0.00  0.00    +0.002 C 
ATOM     21  C   UNL     1       5.508  -1.379  24.137  0.00  0.00    +0.000 C 
ENDBRANCH   8  15
ENDBRANCH  11   7
BRANCH  12  20
ATOM      2  O   UNL     1      -2.038  -0.145  25.820  0.00  0.00    -0.274 OA
ATOM      9  N   UNL     1      -3.215   0.173  23.837  0.00  0.00    -0.302 N 
ATOM     20  C   UNL     1      -2.124   0.302  24.679  0.00  0.00    +0.236 C 
ATOM     37  H   UNL     1      -3.203   0.653  22.942  0.00  0.00    +0.150 HD
BRANCH   9  24
ATOM     24  C   UNL     1      -4.422  -0.526  24.209  0.00  0.00    +0.163 C 
BRANCH  24  27
ATOM      5  O   UNL     1      -4.123  -2.796  23.395  0.00  0.00    -0.274 OA
ATOM     10  N   UNL     1      -3.626  -2.343  25.592  0.00  0.00    -0.328 N 
ATOM     27  C   UNL     1      -4.067  -2.001  24.330  0.00  0.00    +0.231 C 
ATOM     38  H   UNL     1      -3.563  -1.670  26.349  0.00  0.00    +0.145 HD
ATOM     39  H   UNL     1      -3.343  -3.294  25.804  0.00  0.00    +0.145 HD
ENDBRANCH  24  27
BRANCH  24  26
ATOM     26  C   UNL     1      -5.009  -0.009  25.528  0.00  0.00    +0.067 C 
BRANCH  26  28
ATOM     28  C   UNL     1      -5.187   1.489  25.539  0.00  0.00    -0.045 A 
ATOM     30  C   UNL     1      -6.421   2.048  25.204  0.00  0.00    +0.004 A 
ATOM     31  C   UNL     1      -4.119   2.317  25.885  0.00  0.00    +0.004 A 
ATOM     32  C   UNL     1      -6.586   3.433  25.214  0.00  0.00    +0.000 A 
ATOM     33  C   UNL     1      -4.284   3.701  25.896  0.00  0.00    +0.000 A 
ATOM     34  C   UNL     1      -5.518   4.259  25.560  0.00  0.00    +0.000 A 
ENDBRANCH  26  28
ENDBRANCH  24  26
ENDBRANCH   9  24
ENDBRANCH  12  20
BRANCH  22  25
ATOM     25  C   UNL     1      -2.601   3.291  21.381  0.00  0.00    +0.164 C 
BRANCH  25   1
ATOM      1  S   UNL     1      -4.355   3.543  21.693  0.00  0.00    -0.155 S 
ATOM     29  C   UNL     1      -4.875   3.991  20.018  0.00  0.00    +0.085 C 
ENDBRANCH  25   1
ENDBRANCH  22  25
TORSDOF 9
ENDMDL
