MODEL 1
REMARK VINA RESULT:      -3.3      0.000      0.000
REMARK  Name = 75536712
REMARK  11 active torsions:
REMARK  status: ('A' for Active; 'I' for Inactive)
REMARK    1  A    between atoms: S_1  and  N_9
REMARK    2  A    between atoms: S_1  and  C_17
REMARK    3  A    between atoms: O_3  and  C_11
REMARK    4  A    between atoms: O_6  and  C_29
REMARK    5  A    between atoms: N_8  and  C_10
REMARK    6  A    between atoms: N_8  and  C_15
REMARK    7  A    between atoms: N_9  and  C_14
REMARK    8  A    between atoms: C_12  and  C_14
REMARK    9  A    between atoms: C_15  and  C_16
REMARK   10  A    between atoms: C_24  and  C_29
REMARK   11  A    between atoms: C_27  and  C_28
REMARK                            x       y       z     vdW  Elec       q    Type
REMARK                         _______ _______ _______ _____ _____    ______ ____
ROOT
ATOM      2  O   UNL     1      -1.367   3.399  26.057  0.00  0.00    -0.371 OA
ATOM     10  C   UNL     1      -0.691   1.903  24.340  0.00  0.00    +0.111 C 
ATOM     11  C   UNL     1      -2.164   2.226  24.163  0.00  0.00    +0.164 C 
ATOM     12  C   UNL     1      -2.274   3.526  24.948  0.00  0.00    +0.164 C 
ATOM     13  C   UNL     1      -0.465   2.311  25.786  0.00  0.00    +0.181 C 
ENDROOT
BRANCH  11   3
ATOM      3  O   UNL     1      -2.525   2.398  22.806  0.00  0.00    -0.388 OA
ATOM     31  H   UNL     1      -2.972   1.590  22.504  0.00  0.00    +0.210 HD
ENDBRANCH  11   3
BRANCH  10   8
ATOM      8  N   UNL     1      -0.366   0.508  24.089  0.00  0.00    -0.305 NA
ATOM     30  H   UNL     1      -1.230  -0.034  24.057  0.00  0.00    +0.123 HD
BRANCH   8  15
ATOM     15  C   UNL     1       0.334   0.354  22.819  0.00  0.00    +0.116 C 
BRANCH  15  16
ATOM     16  C   UNL     1       1.811   0.138  23.017  0.00  0.00    -0.034 A 
ATOM     18  C   UNL     1       2.707   1.178  22.769  0.00  0.00    +0.006 A 
ATOM     19  C   UNL     1       2.283  -1.102  23.447  0.00  0.00    +0.006 A 
ATOM     22  C   UNL     1       4.075   0.978  22.951  0.00  0.00    +0.015 A 
ATOM     23  C   UNL     1       3.652  -1.302  23.630  0.00  0.00    +0.015 A 
ATOM     24  C   UNL     1       4.548  -0.261  23.383  0.00  0.00    +0.059 A 
BRANCH  24  29
ATOM      7  O   UNL     1       6.855  -0.193  22.754  0.00  0.00    -0.245 OA
ATOM     29  C   UNL     1       5.974  -0.469  23.574  0.00  0.00    +0.337 C 
BRANCH  29   6
ATOM      6  O   UNL     1       6.262  -1.019  24.787  0.00  0.00    -0.477 OA
ATOM     33  H   UNL     1       5.591  -0.784  25.462  0.00  0.00    +0.295 HD
ENDBRANCH  29   6
ENDBRANCH  24  29
ENDBRANCH  15  16
ENDBRANCH   8  15
ENDBRANCH  10   8
BRANCH  12  14
ATOM     14  C   UNL     1      -3.677   3.799  25.463  0.00  0.00    +0.140 C 
BRANCH  14   9
ATOM      9  N   UNL     1      -4.662   3.106  24.608  0.00  0.00    -0.187 NA
ATOM     32  H   UNL     1      -4.987   3.630  23.786  0.00  0.00    +0.148 HD
BRANCH   9   1
ATOM      1  S   UNL     1      -5.693   1.930  25.278  0.00  0.00    +0.058 S 
ATOM      4  O   UNL     1      -6.879   1.807  24.453  0.00  0.00    -0.153 OA
ATOM      5  O   UNL     1      -5.816   2.168  26.703  0.00  0.00    -0.153 OA
BRANCH   1  17
ATOM     17  C   UNL     1      -4.737   0.457  25.082  0.00  0.00    +0.105 A 
ATOM     20  C   UNL     1      -3.944  -0.005  26.132  0.00  0.00    +0.029 A 
ATOM     21  C   UNL     1      -4.771  -0.241  23.874  0.00  0.00    +0.029 A 
ATOM     25  C   UNL     1      -3.187  -1.167  25.976  0.00  0.00    +0.005 A 
ATOM     26  C   UNL     1      -4.014  -1.403  23.719  0.00  0.00    +0.005 A 
ATOM     27  C   UNL     1      -3.221  -1.865  24.771  0.00  0.00    -0.050 A 
ATOM     28  C   UNL     1      -2.412  -3.106  24.604  0.00  0.00    +0.044 C 
ENDBRANCH   1  17
ENDBRANCH   9   1
ENDBRANCH  14   9
ENDBRANCH  12  14
TORSDOF 10
ENDMDL
MODEL 2
REMARK VINA RESULT:      -3.2      2.783      7.159
REMARK  Name = 75536712
REMARK  11 active torsions:
REMARK  status: ('A' for Active; 'I' for Inactive)
REMARK    1  A    between atoms: S_1  and  N_9
REMARK    2  A    between atoms: S_1  and  C_17
REMARK    3  A    between atoms: O_3  and  C_11
REMARK    4  A    between atoms: O_6  and  C_29
REMARK    5  A    between atoms: N_8  and  C_10
REMARK    6  A    between atoms: N_8  and  C_15
REMARK    7  A    between atoms: N_9  and  C_14
REMARK    8  A    between atoms: C_12  and  C_14
REMARK    9  A    between atoms: C_15  and  C_16
REMARK   10  A    between atoms: C_24  and  C_29
REMARK   11  A    between atoms: C_27  and  C_28
REMARK                            x       y       z     vdW  Elec       q    Type
REMARK                         _______ _______ _______ _____ _____    ______ ____
ROOT
ATOM      2  O   UNL     1      -0.467   4.741  24.182  0.00  0.00    -0.371 OA
ATOM     10  C   UNL     1      -2.076   4.291  25.871  0.00  0.00    +0.111 C 
ATOM     11  C   UNL     1      -1.361   3.001  25.513  0.00  0.00    +0.164 C 
ATOM     12  C   UNL     1      -0.088   3.539  24.875  0.00  0.00    +0.164 C 
ATOM     13  C   UNL     1      -1.758   5.157  24.663  0.00  0.00    +0.181 C 
ENDROOT
BRANCH  11   3
ATOM      3  O   UNL     1      -1.085   2.198  26.645  0.00  0.00    -0.388 OA
ATOM     31  H   UNL     1      -0.382   1.570  26.410  0.00  0.00    +0.210 HD
ENDBRANCH  11   3
BRANCH  10   8
ATOM      8  N   UNL     1      -3.504   4.125  26.088  0.00  0.00    -0.305 NA
ATOM     30  H   UNL     1      -3.900   5.013  26.395  0.00  0.00    +0.123 HD
BRANCH   8  15
ATOM     15  C   UNL     1      -4.175   3.709  24.862  0.00  0.00    +0.116 C 
BRANCH  15  16
ATOM     16  C   UNL     1      -4.062   2.225  24.637  0.00  0.00    -0.034 A 
ATOM     18  C   UNL     1      -4.740   1.339  25.476  0.00  0.00    +0.006 A 
ATOM     19  C   UNL     1      -3.280   1.735  23.592  0.00  0.00    +0.006 A 
ATOM     22  C   UNL     1      -4.635  -0.036  25.268  0.00  0.00    +0.015 A 
ATOM     23  C   UNL     1      -3.175   0.359  23.385  0.00  0.00    +0.015 A 
ATOM     24  C   UNL     1      -3.853  -0.527  24.222  0.00  0.00    +0.059 A 
BRANCH  24  29
ATOM      7  O   UNL     1      -4.652  -2.695  23.602  0.00  0.00    -0.245 OA
ATOM     29  C   UNL     1      -3.745  -1.960  24.005  0.00  0.00    +0.337 C 
BRANCH  29   6
ATOM      6  O   UNL     1      -2.504  -2.439  24.298  0.00  0.00    -0.477 OA
ATOM     33  H   UNL     1      -2.173  -2.094  25.154  0.00  0.00    +0.295 HD
ENDBRANCH  29   6
ENDBRANCH  24  29
ENDBRANCH  15  16
ENDBRANCH   8  15
ENDBRANCH  10   8
BRANCH  12  14
ATOM     14  C   UNL     1       0.554   2.566  23.901  0.00  0.00    +0.140 C 
BRANCH  14   9
ATOM      9  N   UNL     1       0.411   1.188  24.411  0.00  0.00    -0.187 NA
ATOM     32  H   UNL     1       0.561   1.068  25.421  0.00  0.00    +0.148 HD
BRANCH   9   1
ATOM      1  S   UNL     1       0.711  -0.135  23.385  0.00  0.00    +0.058 S 
ATOM      4  O   UNL     1       0.244   0.178  22.048  0.00  0.00    -0.153 OA
ATOM      5  O   UNL     1       0.275  -1.351  24.045  0.00  0.00    -0.153 OA
BRANCH   1  17
ATOM     17  C   UNL     1       2.478  -0.173  23.350  0.00  0.00    +0.105 A 
ATOM     20  C   UNL     1       3.160  -1.299  23.811  0.00  0.00    +0.029 A 
ATOM     21  C   UNL     1       3.189   0.925  22.867  0.00  0.00    +0.029 A 
ATOM     25  C   UNL     1       4.555  -1.328  23.786  0.00  0.00    +0.005 A 
ATOM     26  C   UNL     1       4.584   0.896  22.842  0.00  0.00    +0.005 A 
ATOM     27  C   UNL     1       5.267  -0.231  23.302  0.00  0.00    -0.050 A 
ATOM     28  C   UNL     1       6.757  -0.262  23.276  0.00  0.00    +0.044 C 
ENDBRANCH   1  17
ENDBRANCH   9   1
ENDBRANCH  14   9
ENDBRANCH  12  14
TORSDOF 10
ENDMDL
MODEL 3
REMARK VINA RESULT:      -2.9      1.266      1.892
REMARK  Name = 75536712
REMARK  11 active torsions:
REMARK  status: ('A' for Active; 'I' for Inactive)
REMARK    1  A    between atoms: S_1  and  N_9
REMARK    2  A    between atoms: S_1  and  C_17
REMARK    3  A    between atoms: O_3  and  C_11
REMARK    4  A    between atoms: O_6  and  C_29
REMARK    5  A    between atoms: N_8  and  C_10
REMARK    6  A    between atoms: N_8  and  C_15
REMARK    7  A    between atoms: N_9  and  C_14
REMARK    8  A    between atoms: C_12  and  C_14
REMARK    9  A    between atoms: C_15  and  C_16
REMARK   10  A    between atoms: C_24  and  C_29
REMARK   11  A    between atoms: C_27  and  C_28
REMARK                            x       y       z     vdW  Elec       q    Type
REMARK                         _______ _______ _______ _____ _____    ______ ____
ROOT
ATOM      2  O   UNL     1      -0.894   2.573  26.541  0.00  0.00    -0.371 OA
ATOM     10  C   UNL     1       0.035   1.437  24.673  0.00  0.00    +0.111 C 
ATOM     11  C   UNL     1      -0.667   2.693  24.189  0.00  0.00    +0.164 C 
ATOM     12  C   UNL     1      -0.712   3.515  25.470  0.00  0.00    +0.164 C 
ATOM     13  C   UNL     1      -0.585   1.257  26.048  0.00  0.00    +0.181 C 
ENDROOT
BRANCH  11   3
ATOM      3  O   UNL     1       0.046   3.356  23.162  0.00  0.00    -0.388 OA
ATOM     31  H   UNL     1      -0.590   3.643  22.486  0.00  0.00    +0.210 HD
ENDBRANCH  11   3
BRANCH  10   8
ATOM      8  N   UNL     1      -0.166   0.287  23.806  0.00  0.00    -0.305 NA
ATOM     30  H   UNL     1      -1.149   0.240  23.539  0.00  0.00    +0.123 HD
BRANCH   8  15
ATOM     15  C   UNL     1       0.645   0.393  22.599  0.00  0.00    +0.116 C 
BRANCH  15  16
ATOM     16  C   UNL     1       2.105   0.156  22.882  0.00  0.00    -0.034 A 
ATOM     18  C   UNL     1       2.529  -1.082  23.367  0.00  0.00    +0.006 A 
ATOM     19  C   UNL     1       3.033   1.174  22.661  0.00  0.00    +0.006 A 
ATOM     22  C   UNL     1       3.881  -1.301  23.630  0.00  0.00    +0.015 A 
ATOM     23  C   UNL     1       4.385   0.954  22.925  0.00  0.00    +0.015 A 
ATOM     24  C   UNL     1       4.810  -0.284  23.408  0.00  0.00    +0.059 A 
BRANCH  24  29
ATOM      7  O   UNL     1       7.152  -0.228  22.923  0.00  0.00    -0.245 OA
ATOM     29  C   UNL     1       6.219  -0.513  23.681  0.00  0.00    +0.337 C 
BRANCH  29   6
ATOM      6  O   UNL     1       6.427  -1.093  24.896  0.00  0.00    -0.477 OA
ATOM     33  H   UNL     1       6.154  -0.505  25.632  0.00  0.00    +0.295 HD
ENDBRANCH  29   6
ENDBRANCH  24  29
ENDBRANCH  15  16
ENDBRANCH   8  15
ENDBRANCH  10   8
BRANCH  12  14
ATOM     14  C   UNL     1      -1.836   4.536  25.489  0.00  0.00    +0.140 C 
BRANCH  14   9
ATOM      9  N   UNL     1      -3.076   3.899  25.974  0.00  0.00    -0.187 NA
ATOM     32  H   UNL     1      -2.982   3.328  26.823  0.00  0.00    +0.148 HD
BRANCH   9   1
ATOM      1  S   UNL     1      -4.326   3.526  24.882  0.00  0.00    +0.058 S 
ATOM      4  O   UNL     1      -4.057   4.166  23.608  0.00  0.00    -0.153 OA
ATOM      5  O   UNL     1      -5.603   3.722  25.542  0.00  0.00    -0.153 OA
BRANCH   1  17
ATOM     17  C   UNL     1      -4.116   1.784  24.672  0.00  0.00    +0.105 A 
ATOM     20  C   UNL     1      -3.601   1.284  23.477  0.00  0.00    +0.029 A 
ATOM     21  C   UNL     1      -4.469   0.910  25.701  0.00  0.00    +0.029 A 
ATOM     25  C   UNL     1      -3.438  -0.092  23.310  0.00  0.00    +0.005 A 
ATOM     26  C   UNL     1      -4.306  -0.466  25.533  0.00  0.00    +0.005 A 
ATOM     27  C   UNL     1      -3.790  -0.966  24.337  0.00  0.00    -0.050 A 
ATOM     28  C   UNL     1      -3.615  -2.436  24.159  0.00  0.00    +0.044 C 
ENDBRANCH   1  17
ENDBRANCH   9   1
ENDBRANCH  14   9
ENDBRANCH  12  14
TORSDOF 10
ENDMDL
MODEL 4
REMARK VINA RESULT:      -2.1      2.933      7.458
REMARK  Name = 75536712
REMARK  11 active torsions:
REMARK  status: ('A' for Active; 'I' for Inactive)
REMARK    1  A    between atoms: S_1  and  N_9
REMARK    2  A    between atoms: S_1  and  C_17
REMARK    3  A    between atoms: O_3  and  C_11
REMARK    4  A    between atoms: O_6  and  C_29
REMARK    5  A    between atoms: N_8  and  C_10
REMARK    6  A    between atoms: N_8  and  C_15
REMARK    7  A    between atoms: N_9  and  C_14
REMARK    8  A    between atoms: C_12  and  C_14
REMARK    9  A    between atoms: C_15  and  C_16
REMARK   10  A    between atoms: C_24  and  C_29
REMARK   11  A    between atoms: C_27  and  C_28
REMARK                            x       y       z     vdW  Elec       q    Type
REMARK                         _______ _______ _______ _____ _____    ______ ____
ROOT
ATOM      2  O   UNL     1      -3.013  -2.200  23.771  0.00  0.00    -0.371 OA
ATOM     10  C   UNL     1      -4.100  -0.243  24.567  0.00  0.00    +0.111 C 
ATOM     11  C   UNL     1      -2.724  -0.339  25.203  0.00  0.00    +0.164 C 
ATOM     12  C   UNL     1      -2.016  -1.270  24.229  0.00  0.00    +0.164 C 
ATOM     13  C   UNL     1      -4.312  -1.672  24.094  0.00  0.00    +0.181 C 
ENDROOT
BRANCH  11   3
ATOM      3  O   UNL     1      -2.078   0.917  25.296  0.00  0.00    -0.388 OA
ATOM     31  H   UNL     1      -1.315   0.824  25.890  0.00  0.00    +0.210 HD
ENDBRANCH  11   3
BRANCH  10   8
ATOM      8  N   UNL     1      -5.135   0.209  25.483  0.00  0.00    -0.305 NA
ATOM     30  H   UNL     1      -4.742   0.275  26.422  0.00  0.00    +0.123 HD
BRANCH   8  15
ATOM     15  C   UNL     1      -5.644   1.518  25.093  0.00  0.00    +0.116 C 
BRANCH  15  16
ATOM     16  C   UNL     1      -4.552   2.554  25.050  0.00  0.00    -0.034 A 
ATOM     18  C   UNL     1      -3.966   2.898  23.831  0.00  0.00    +0.006 A 
ATOM     19  C   UNL     1      -4.126   3.168  26.227  0.00  0.00    +0.006 A 
ATOM     22  C   UNL     1      -2.953   3.856  23.791  0.00  0.00    +0.015 A 
ATOM     23  C   UNL     1      -3.114   4.127  26.186  0.00  0.00    +0.015 A 
ATOM     24  C   UNL     1      -2.528   4.472  24.968  0.00  0.00    +0.059 A 
BRANCH  24  29
ATOM      7  O   UNL     1      -1.632   6.688  25.082  0.00  0.00    -0.245 OA
ATOM     29  C   UNL     1      -1.473   5.473  24.926  0.00  0.00    +0.337 C 
BRANCH  29   6
ATOM      6  O   UNL     1      -0.248   4.928  24.689  0.00  0.00    -0.477 OA
ATOM     33  H   UNL     1       0.473   5.473  25.069  0.00  0.00    +0.295 HD
ENDBRANCH  29   6
ENDBRANCH  24  29
ENDBRANCH  15  16
ENDBRANCH   8  15
ENDBRANCH  10   8
BRANCH  12  14
ATOM     14  C   UNL     1      -0.859  -2.028  24.857  0.00  0.00    +0.140 C 
BRANCH  14   9
ATOM      9  N   UNL     1       0.365  -1.205  24.791  0.00  0.00    -0.187 NA
ATOM     32  H   UNL     1       0.762  -0.922  25.697  0.00  0.00    +0.148 HD
BRANCH   9   1
ATOM      1  S   UNL     1       0.659  -0.220  23.436  0.00  0.00    +0.058 S 
ATOM      4  O   UNL     1       0.204   1.128  23.715  0.00  0.00    -0.153 OA
ATOM      5  O   UNL     1       0.205  -0.912  22.244  0.00  0.00    -0.153 OA
BRANCH   1  17
ATOM     17  C   UNL     1       2.425  -0.199  23.380  0.00  0.00    +0.105 A 
ATOM     20  C   UNL     1       3.149  -1.306  23.820  0.00  0.00    +0.029 A 
ATOM     21  C   UNL     1       3.094   0.927  22.899  0.00  0.00    +0.029 A 
ATOM     25  C   UNL     1       4.544  -1.288  23.779  0.00  0.00    +0.005 A 
ATOM     26  C   UNL     1       4.489   0.944  22.858  0.00  0.00    +0.005 A 
ATOM     27  C   UNL     1       5.213  -0.164  23.298  0.00  0.00    -0.050 A 
ATOM     28  C   UNL     1       6.704  -0.145  23.254  0.00  0.00    +0.044 C 
ENDBRANCH   1  17
ENDBRANCH   9   1
ENDBRANCH  14   9
ENDBRANCH  12  14
TORSDOF 10
ENDMDL
MODEL 5
REMARK VINA RESULT:      -1.8      3.255      7.619
REMARK  Name = 75536712
REMARK  11 active torsions:
REMARK  status: ('A' for Active; 'I' for Inactive)
REMARK    1  A    between atoms: S_1  and  N_9
REMARK    2  A    between atoms: S_1  and  C_17
REMARK    3  A    between atoms: O_3  and  C_11
REMARK    4  A    between atoms: O_6  and  C_29
REMARK    5  A    between atoms: N_8  and  C_10
REMARK    6  A    between atoms: N_8  and  C_15
REMARK    7  A    between atoms: N_9  and  C_14
REMARK    8  A    between atoms: C_12  and  C_14
REMARK    9  A    between atoms: C_15  and  C_16
REMARK   10  A    between atoms: C_24  and  C_29
REMARK   11  A    between atoms: C_27  and  C_28
REMARK                            x       y       z     vdW  Elec       q    Type
REMARK                         _______ _______ _______ _____ _____    ______ ____
ROOT
ATOM      2  O   UNL     1      -1.859  -1.598  26.482  0.00  0.00    -0.371 OA
ATOM     10  C   UNL     1      -3.487  -2.347  24.923  0.00  0.00    +0.111 C 
ATOM     11  C   UNL     1      -2.121  -2.369  24.261  0.00  0.00    +0.164 C 
ATOM     12  C   UNL     1      -1.207  -2.394  25.478  0.00  0.00    +0.164 C 
ATOM     13  C   UNL     1      -3.236  -1.421  26.102  0.00  0.00    +0.181 C 
ENDROOT
BRANCH  11   3
ATOM      3  O   UNL     1      -1.933  -3.503  23.436  0.00  0.00    -0.388 OA
ATOM     31  H   UNL     1      -1.151  -3.985  23.753  0.00  0.00    +0.210 HD
ENDBRANCH  11   3
BRANCH  10   8
ATOM      8  N   UNL     1      -4.550  -1.875  24.050  0.00  0.00    -0.305 NA
ATOM     30  H   UNL     1      -5.346  -1.588  24.620  0.00  0.00    +0.123 HD
BRANCH   8  15
ATOM     15  C   UNL     1      -4.107  -0.736  23.254  0.00  0.00    +0.116 C 
BRANCH  15  16
ATOM     16  C   UNL     1      -4.411   0.573  23.932  0.00  0.00    -0.034 A 
ATOM     18  C   UNL     1      -3.780   1.742  23.506  0.00  0.00    +0.006 A 
ATOM     19  C   UNL     1      -5.324   0.618  24.986  0.00  0.00    +0.006 A 
ATOM     22  C   UNL     1      -4.061   2.956  24.135  0.00  0.00    +0.015 A 
ATOM     23  C   UNL     1      -5.605   1.831  25.615  0.00  0.00    +0.015 A 
ATOM     24  C   UNL     1      -4.975   3.000  25.189  0.00  0.00    +0.059 A 
BRANCH  24  29
ATOM      7  O   UNL     1      -4.462   4.944  26.486  0.00  0.00    -0.245 OA
ATOM     29  C   UNL     1      -5.269   4.265  25.843  0.00  0.00    +0.337 C 
BRANCH  29   6
ATOM      6  O   UNL     1      -6.566   4.648  25.677  0.00  0.00    -0.477 OA
ATOM     33  H   UNL     1      -6.945   4.300  24.842  0.00  0.00    +0.295 HD
ENDBRANCH  29   6
ENDBRANCH  24  29
ENDBRANCH  15  16
ENDBRANCH   8  15
ENDBRANCH  10   8
BRANCH  12  14
ATOM     14  C   UNL     1       0.178  -1.835  25.200  0.00  0.00    +0.140 C 
BRANCH  14   9
ATOM      9  N   UNL     1       0.134  -0.360  25.240  0.00  0.00    -0.187 NA
ATOM     32  H   UNL     1      -0.450   0.049  25.980  0.00  0.00    +0.148 HD
BRANCH   9   1
ATOM      1  S   UNL     1       0.387   0.538  23.818  0.00  0.00    +0.058 S 
ATOM      4  O   UNL     1      -0.460   0.016  22.763  0.00  0.00    -0.153 OA
ATOM      5  O   UNL     1       1.814   0.688  23.603  0.00  0.00    -0.153 OA
BRANCH   1  17
ATOM     17  C   UNL     1      -0.234   2.127  24.279  0.00  0.00    +0.105 A 
ATOM     20  C   UNL     1      -0.132   3.199  23.392  0.00  0.00    +0.029 A 
ATOM     21  C   UNL     1      -0.821   2.311  25.531  0.00  0.00    +0.029 A 
ATOM     25  C   UNL     1      -0.620   4.455  23.757  0.00  0.00    +0.005 A 
ATOM     26  C   UNL     1      -1.309   3.566  25.895  0.00  0.00    +0.005 A 
ATOM     27  C   UNL     1      -1.208   4.638  25.008  0.00  0.00    -0.050 A 
ATOM     28  C   UNL     1      -1.729   5.980  25.398  0.00  0.00    +0.044 C 
ENDBRANCH   1  17
ENDBRANCH   9   1
ENDBRANCH  14   9
ENDBRANCH  12  14
TORSDOF 10
ENDMDL
MODEL 6
REMARK VINA RESULT:      -1.8      2.844      6.395
REMARK  Name = 75536712
REMARK  11 active torsions:
REMARK  status: ('A' for Active; 'I' for Inactive)
REMARK    1  A    between atoms: S_1  and  N_9
REMARK    2  A    between atoms: S_1  and  C_17
REMARK    3  A    between atoms: O_3  and  C_11
REMARK    4  A    between atoms: O_6  and  C_29
REMARK    5  A    between atoms: N_8  and  C_10
REMARK    6  A    between atoms: N_8  and  C_15
REMARK    7  A    between atoms: N_9  and  C_14
REMARK    8  A    between atoms: C_12  and  C_14
REMARK    9  A    between atoms: C_15  and  C_16
REMARK   10  A    between atoms: C_24  and  C_29
REMARK   11  A    between atoms: C_27  and  C_28
REMARK                            x       y       z     vdW  Elec       q    Type
REMARK                         _______ _______ _______ _____ _____    ______ ____
ROOT
ATOM      2  O   UNL     1      -3.073   4.285  24.083  0.00  0.00    -0.371 OA
ATOM     10  C   UNL     1      -4.693   3.784  25.745  0.00  0.00    +0.111 C 
ATOM     11  C   UNL     1      -3.307   3.666  26.354  0.00  0.00    +0.164 C 
ATOM     12  C   UNL     1      -2.488   4.500  25.379  0.00  0.00    +0.164 C 
ATOM     13  C   UNL     1      -4.378   3.706  24.261  0.00  0.00    +0.181 C 
ENDROOT
BRANCH  11   3
ATOM      3  O   UNL     1      -3.244   4.180  27.671  0.00  0.00    -0.388 OA
ATOM     31  H   UNL     1      -4.105   4.576  27.886  0.00  0.00    +0.210 HD
ENDBRANCH  11   3
BRANCH  10   8
ATOM      8  N   UNL     1      -5.612   2.745  26.184  0.00  0.00    -0.305 NA
ATOM     30  H   UNL     1      -6.458   3.182  26.549  0.00  0.00    +0.123 HD
BRANCH   8  15
ATOM     15  C   UNL     1      -5.975   1.866  25.078  0.00  0.00    +0.116 C 
BRANCH  15  16
ATOM     16  C   UNL     1      -5.031   0.700  24.956  0.00  0.00    -0.034 A 
ATOM     18  C   UNL     1      -4.403   0.189  26.093  0.00  0.00    +0.006 A 
ATOM     19  C   UNL     1      -4.783   0.130  23.707  0.00  0.00    +0.006 A 
ATOM     22  C   UNL     1      -3.528  -0.891  25.980  0.00  0.00    +0.015 A 
ATOM     23  C   UNL     1      -3.907  -0.950  23.595  0.00  0.00    +0.015 A 
ATOM     24  C   UNL     1      -3.280  -1.462  24.731  0.00  0.00    +0.059 A 
BRANCH  24  29
ATOM      7  O   UNL     1      -1.164  -2.567  24.885  0.00  0.00    -0.245 OA
ATOM     29  C   UNL     1      -2.369  -2.588  24.614  0.00  0.00    +0.337 C 
BRANCH  29   6
ATOM      6  O   UNL     1      -2.988  -3.713  24.159  0.00  0.00    -0.477 OA
ATOM     33  H   UNL     1      -3.730  -3.502  23.554  0.00  0.00    +0.295 HD
ENDBRANCH  29   6
ENDBRANCH  24  29
ENDBRANCH  15  16
ENDBRANCH   8  15
ENDBRANCH  10   8
BRANCH  12  14
ATOM     14  C   UNL     1      -1.018   4.117  25.349  0.00  0.00    +0.140 C 
BRANCH  14   9
ATOM      9  N   UNL     1      -0.724   3.379  24.105  0.00  0.00    -0.187 NA
ATOM     32  H   UNL     1      -0.834   3.912  23.233  0.00  0.00    +0.148 HD
BRANCH   9   1
ATOM      1  S   UNL     1      -0.916   1.690  24.050  0.00  0.00    +0.058 S 
ATOM      4  O   UNL     1      -1.849   1.346  22.994  0.00  0.00    -0.153 OA
ATOM      5  O   UNL     1      -1.124   1.195  25.398  0.00  0.00    -0.153 OA
BRANCH   1  17
ATOM     17  C   UNL     1       0.694   1.159  23.549  0.00  0.00    +0.105 A 
ATOM     20  C   UNL     1       1.759   2.059  23.562  0.00  0.00    +0.029 A 
ATOM     21  C   UNL     1       0.897  -0.158  23.136  0.00  0.00    +0.029 A 
ATOM     25  C   UNL     1       3.030   1.641  23.163  0.00  0.00    +0.005 A 
ATOM     26  C   UNL     1       2.167  -0.575  22.737  0.00  0.00    +0.005 A 
ATOM     27  C   UNL     1       3.234   0.325  22.751  0.00  0.00    -0.050 A 
ATOM     28  C   UNL     1       4.591  -0.122  22.325  0.00  0.00    +0.044 C 
ENDBRANCH   1  17
ENDBRANCH   9   1
ENDBRANCH  14   9
ENDBRANCH  12  14
TORSDOF 10
ENDMDL
MODEL 7
REMARK VINA RESULT:      -1.3      1.614      3.636
REMARK  Name = 75536712
REMARK  11 active torsions:
REMARK  status: ('A' for Active; 'I' for Inactive)
REMARK    1  A    between atoms: S_1  and  N_9
REMARK    2  A    between atoms: S_1  and  C_17
REMARK    3  A    between atoms: O_3  and  C_11
REMARK    4  A    between atoms: O_6  and  C_29
REMARK    5  A    between atoms: N_8  and  C_10
REMARK    6  A    between atoms: N_8  and  C_15
REMARK    7  A    between atoms: N_9  and  C_14
REMARK    8  A    between atoms: C_12  and  C_14
REMARK    9  A    between atoms: C_15  and  C_16
REMARK   10  A    between atoms: C_24  and  C_29
REMARK   11  A    between atoms: C_27  and  C_28
REMARK                            x       y       z     vdW  Elec       q    Type
REMARK                         _______ _______ _______ _____ _____    ______ ____
ROOT
ATOM      2  O   UNL     1      -3.158  -0.947  23.918  0.00  0.00    -0.371 OA
ATOM     10  C   UNL     1      -0.878  -0.393  24.287  0.00  0.00    +0.111 C 
ATOM     11  C   UNL     1      -1.667  -0.113  25.553  0.00  0.00    +0.164 C 
ATOM     12  C   UNL     1      -2.896  -0.983  25.331  0.00  0.00    +0.164 C 
ATOM     13  C   UNL     1      -1.987  -0.448  23.248  0.00  0.00    +0.181 C 
ENDROOT
BRANCH  11   3
ATOM      3  O   UNL     1      -0.965  -0.482  26.726  0.00  0.00    -0.388 OA
ATOM     31  H   UNL     1      -1.559  -1.010  27.284  0.00  0.00    +0.210 HD
ENDBRANCH  11   3
BRANCH  10   8
ATOM      8  N   UNL     1       0.125   0.616  23.990  0.00  0.00    -0.305 NA
ATOM     30  H   UNL     1       0.803   0.646  24.752  0.00  0.00    +0.123 HD
BRANCH   8  15
ATOM     15  C   UNL     1       0.826   0.310  22.748  0.00  0.00    +0.116 C 
BRANCH  15  16
ATOM     16  C   UNL     1       2.296   0.081  22.977  0.00  0.00    -0.034 A 
ATOM     18  C   UNL     1       2.745  -1.155  23.445  0.00  0.00    +0.006 A 
ATOM     19  C   UNL     1       3.210   1.103  22.722  0.00  0.00    +0.006 A 
ATOM     22  C   UNL     1       4.107  -1.367  23.657  0.00  0.00    +0.015 A 
ATOM     23  C   UNL     1       4.572   0.891  22.935  0.00  0.00    +0.015 A 
ATOM     24  C   UNL     1       5.021  -0.345  23.401  0.00  0.00    +0.059 A 
BRANCH  24  29
ATOM      7  O   UNL     1       7.340  -0.308  22.815  0.00  0.00    -0.245 OA
ATOM     29  C   UNL     1       6.441  -0.567  23.621  0.00  0.00    +0.337 C 
BRANCH  29   6
ATOM      6  O   UNL     1       6.700  -1.108  24.844  0.00  0.00    -0.477 OA
ATOM     33  H   UNL     1       7.304  -1.878  24.782  0.00  0.00    +0.295 HD
ENDBRANCH  29   6
ENDBRANCH  24  29
ENDBRANCH  15  16
ENDBRANCH   8  15
ENDBRANCH  10   8
BRANCH  12  14
ATOM     14  C   UNL     1      -4.119  -0.501  26.092  0.00  0.00    +0.140 C 
BRANCH  14   9
ATOM      9  N   UNL     1      -5.085   0.097  25.150  0.00  0.00    -0.187 NA
ATOM     32  H   UNL     1      -5.009  -0.217  24.174  0.00  0.00    +0.148 HD
BRANCH   9   1
ATOM      1  S   UNL     1      -5.732   1.640  25.456  0.00  0.00    +0.058 S 
ATOM      4  O   UNL     1      -6.173   1.709  26.837  0.00  0.00    -0.153 OA
ATOM      5  O   UNL     1      -6.640   1.992  24.381  0.00  0.00    -0.153 OA
BRANCH   1  17
ATOM     17  C   UNL     1      -4.306   2.670  25.287  0.00  0.00    +0.105 A 
ATOM     20  C   UNL     1      -3.527   2.597  24.133  0.00  0.00    +0.029 A 
ATOM     21  C   UNL     1      -3.958   3.552  26.310  0.00  0.00    +0.029 A 
ATOM     25  C   UNL     1      -2.400   3.409  24.000  0.00  0.00    +0.005 A 
ATOM     26  C   UNL     1      -2.830   4.363  26.177  0.00  0.00    +0.005 A 
ATOM     27  C   UNL     1      -2.051   4.291  25.022  0.00  0.00    -0.050 A 
ATOM     28  C   UNL     1      -0.846   5.158  24.880  0.00  0.00    +0.044 C 
ENDBRANCH   1  17
ENDBRANCH   9   1
ENDBRANCH  14   9
ENDBRANCH  12  14
TORSDOF 10
ENDMDL
MODEL 8
REMARK VINA RESULT:      -0.7      2.854      5.908
REMARK  Name = 75536712
REMARK  11 active torsions:
REMARK  status: ('A' for Active; 'I' for Inactive)
REMARK    1  A    between atoms: S_1  and  N_9
REMARK    2  A    between atoms: S_1  and  C_17
REMARK    3  A    between atoms: O_3  and  C_11
REMARK    4  A    between atoms: O_6  and  C_29
REMARK    5  A    between atoms: N_8  and  C_10
REMARK    6  A    between atoms: N_8  and  C_15
REMARK    7  A    between atoms: N_9  and  C_14
REMARK    8  A    between atoms: C_12  and  C_14
REMARK    9  A    between atoms: C_15  and  C_16
REMARK   10  A    between atoms: C_24  and  C_29
REMARK   11  A    between atoms: C_27  and  C_28
REMARK                            x       y       z     vdW  Elec       q    Type
REMARK                         _______ _______ _______ _____ _____    ______ ____
ROOT
ATOM      2  O   UNL     1      -3.283   3.582  23.893  0.00  0.00    -0.371 OA
ATOM     10  C   UNL     1      -5.470   2.754  24.311  0.00  0.00    +0.111 C 
ATOM     11  C   UNL     1      -4.827   3.142  25.631  0.00  0.00    +0.164 C 
ATOM     12  C   UNL     1      -3.739   4.095  25.157  0.00  0.00    +0.164 C 
ATOM     13  C   UNL     1      -4.254   2.638  23.407  0.00  0.00    +0.181 C 
ENDROOT
BRANCH  11   3
ATOM      3  O   UNL     1      -5.733   3.774  26.514  0.00  0.00    -0.388 OA
ATOM     31  H   UNL     1      -6.560   3.945  26.033  0.00  0.00    +0.210 HD
ENDBRANCH  11   3
BRANCH  10   8
ATOM      8  N   UNL     1      -6.243   1.525  24.379  0.00  0.00    -0.305 NA
ATOM     30  H   UNL     1      -6.076   0.979  23.534  0.00  0.00    +0.123 HD
BRANCH   8  15
ATOM     15  C   UNL     1      -5.859   0.727  25.538  0.00  0.00    +0.116 C 
BRANCH  15  16
ATOM     16  C   UNL     1      -4.677  -0.157  25.242  0.00  0.00    -0.034 A 
ATOM     18  C   UNL     1      -3.599  -0.200  26.126  0.00  0.00    +0.006 A 
ATOM     19  C   UNL     1      -4.660  -0.934  24.083  0.00  0.00    +0.006 A 
ATOM     22  C   UNL     1      -2.503  -1.018  25.851  0.00  0.00    +0.015 A 
ATOM     23  C   UNL     1      -3.565  -1.753  23.809  0.00  0.00    +0.015 A 
ATOM     24  C   UNL     1      -2.486  -1.797  24.693  0.00  0.00    +0.059 A 
BRANCH  24  29
ATOM      7  O   UNL     1      -1.288  -3.491  23.504  0.00  0.00    -0.245 OA
ATOM     29  C   UNL     1      -1.346  -2.651  24.407  0.00  0.00    +0.337 C 
BRANCH  29   6
ATOM      6  O   UNL     1      -0.305  -2.433  25.259  0.00  0.00    -0.477 OA
ATOM     33  H   UNL     1      -0.381  -1.567  25.713  0.00  0.00    +0.295 HD
ENDBRANCH  29   6
ENDBRANCH  24  29
ENDBRANCH  15  16
ENDBRANCH   8  15
ENDBRANCH  10   8
BRANCH  12  14
ATOM     14  C   UNL     1      -2.569   4.198  26.120  0.00  0.00    +0.140 C 
BRANCH  14   9
ATOM      9  N   UNL     1      -1.713   3.002  25.990  0.00  0.00    -0.187 NA
ATOM     32  H   UNL     1      -2.040   2.163  26.486  0.00  0.00    +0.148 HD
BRANCH   9   1
ATOM      1  S   UNL     1      -0.045   3.175  25.705  0.00  0.00    +0.058 S 
ATOM      4  O   UNL     1       0.688   2.777  26.891  0.00  0.00    -0.153 OA
ATOM      5  O   UNL     1       0.197   4.469  25.096  0.00  0.00    -0.153 OA
BRANCH   1  17
ATOM     17  C   UNL     1       0.236   1.957  24.455  0.00  0.00    +0.105 A 
ATOM     20  C   UNL     1      -0.846   1.324  23.843  0.00  0.00    +0.029 A 
ATOM     21  C   UNL     1       1.539   1.625  24.086  0.00  0.00    +0.029 A 
ATOM     25  C   UNL     1      -0.624   0.360  22.859  0.00  0.00    +0.005 A 
ATOM     26  C   UNL     1       1.761   0.661  23.101  0.00  0.00    +0.005 A 
ATOM     27  C   UNL     1       0.678   0.029  22.488  0.00  0.00    -0.050 A 
ATOM     28  C   UNL     1       0.915  -1.002  21.437  0.00  0.00    +0.044 C 
ENDBRANCH   1  17
ENDBRANCH   9   1
ENDBRANCH  14   9
ENDBRANCH  12  14
TORSDOF 10
ENDMDL
MODEL 9
REMARK VINA RESULT:      -0.5      2.854      7.856
REMARK  Name = 75536712
REMARK  11 active torsions:
REMARK  status: ('A' for Active; 'I' for Inactive)
REMARK    1  A    between atoms: S_1  and  N_9
REMARK    2  A    between atoms: S_1  and  C_17
REMARK    3  A    between atoms: O_3  and  C_11
REMARK    4  A    between atoms: O_6  and  C_29
REMARK    5  A    between atoms: N_8  and  C_10
REMARK    6  A    between atoms: N_8  and  C_15
REMARK    7  A    between atoms: N_9  and  C_14
REMARK    8  A    between atoms: C_12  and  C_14
REMARK    9  A    between atoms: C_15  and  C_16
REMARK   10  A    between atoms: C_24  and  C_29
REMARK   11  A    between atoms: C_27  and  C_28
REMARK                            x       y       z     vdW  Elec       q    Type
REMARK                         _______ _______ _______ _____ _____    ______ ____
ROOT
ATOM      2  O   UNL     1      -1.791  -1.556  26.440  0.00  0.00    -0.371 OA
ATOM     10  C   UNL     1      -3.406  -2.442  24.941  0.00  0.00    +0.111 C 
ATOM     11  C   UNL     1      -2.049  -2.441  24.261  0.00  0.00    +0.164 C 
ATOM     12  C   UNL     1      -1.119  -2.372  25.464  0.00  0.00    +0.164 C 
ATOM     13  C   UNL     1      -3.178  -1.452  26.071  0.00  0.00    +0.181 C 
ENDROOT
BRANCH  11   3
ATOM      3  O   UNL     1      -1.825  -3.605  23.488  0.00  0.00    -0.388 OA
ATOM     31  H   UNL     1      -2.022  -4.380  24.039  0.00  0.00    +0.210 HD
ENDBRANCH  11   3
BRANCH  10   8
ATOM      8  N   UNL     1      -4.498  -2.055  24.062  0.00  0.00    -0.305 NA
ATOM     30  H   UNL     1      -5.295  -1.766  24.629  0.00  0.00    +0.123 HD
BRANCH   8  15
ATOM     15  C   UNL     1      -4.108  -0.947  23.198  0.00  0.00    +0.116 C 
BRANCH  15  16
ATOM     16  C   UNL     1      -4.276   0.383  23.884  0.00  0.00    -0.034 A 
ATOM     18  C   UNL     1      -3.332   1.392  23.691  0.00  0.00    +0.006 A 
ATOM     19  C   UNL     1      -5.376   0.606  24.713  0.00  0.00    +0.006 A 
ATOM     22  C   UNL     1      -3.488   2.624  24.326  0.00  0.00    +0.015 A 
ATOM     23  C   UNL     1      -5.531   1.838  25.349  0.00  0.00    +0.015 A 
ATOM     24  C   UNL     1      -4.588   2.848  25.155  0.00  0.00    +0.059 A 
BRANCH  24  29
ATOM      7  O   UNL     1      -3.843   4.793  26.331  0.00  0.00    -0.245 OA
ATOM     29  C   UNL     1      -4.751   4.132  25.816  0.00  0.00    +0.337 C 
BRANCH  29   6
ATOM      6  O   UNL     1      -6.045   4.557  25.818  0.00  0.00    -0.477 OA
ATOM     33  H   UNL     1      -6.205   5.236  26.507  0.00  0.00    +0.295 HD
ENDBRANCH  29   6
ENDBRANCH  24  29
ENDBRANCH  15  16
ENDBRANCH   8  15
ENDBRANCH  10   8
BRANCH  12  14
ATOM     14  C   UNL     1       0.238  -1.772  25.141  0.00  0.00    +0.140 C 
BRANCH  14   9
ATOM      9  N   UNL     1       0.090  -0.329  24.869  0.00  0.00    -0.187 NA
ATOM     32  H   UNL     1      -0.620   0.160  25.428  0.00  0.00    +0.148 HD
BRANCH   9   1
ATOM      1  S   UNL     1       0.482   0.293  23.335  0.00  0.00    +0.058 S 
ATOM      4  O   UNL     1       0.168   1.709  23.297  0.00  0.00    -0.153 OA
ATOM      5  O   UNL     1      -0.040  -0.598  22.317  0.00  0.00    -0.153 OA
BRANCH   1  17
ATOM     17  C   UNL     1       2.242   0.125  23.315  0.00  0.00    +0.105 A 
ATOM     20  C   UNL     1       2.832  -1.067  23.733  0.00  0.00    +0.029 A 
ATOM     21  C   UNL     1       3.039   1.187  22.886  0.00  0.00    +0.029 A 
ATOM     25  C   UNL     1       4.222  -1.199  23.720  0.00  0.00    +0.005 A 
ATOM     26  C   UNL     1       4.428   1.054  22.874  0.00  0.00    +0.005 A 
ATOM     27  C   UNL     1       5.019  -0.139  23.291  0.00  0.00    -0.050 A 
ATOM     28  C   UNL     1       6.503  -0.280  23.278  0.00  0.00    +0.044 C 
ENDBRANCH   1  17
ENDBRANCH   9   1
ENDBRANCH  14   9
ENDBRANCH  12  14
TORSDOF 10
ENDMDL
MODEL 10
REMARK VINA RESULT:       0.3      2.952      6.955
REMARK  Name = 75536712
REMARK  11 active torsions:
REMARK  status: ('A' for Active; 'I' for Inactive)
REMARK    1  A    between atoms: S_1  and  N_9
REMARK    2  A    between atoms: S_1  and  C_17
REMARK    3  A    between atoms: O_3  and  C_11
REMARK    4  A    between atoms: O_6  and  C_29
REMARK    5  A    between atoms: N_8  and  C_10
REMARK    6  A    between atoms: N_8  and  C_15
REMARK    7  A    between atoms: N_9  and  C_14
REMARK    8  A    between atoms: C_12  and  C_14
REMARK    9  A    between atoms: C_15  and  C_16
REMARK   10  A    between atoms: C_24  and  C_29
REMARK   11  A    between atoms: C_27  and  C_28
REMARK                            x       y       z     vdW  Elec       q    Type
REMARK                         _______ _______ _______ _____ _____    ______ ____
ROOT
ATOM      2  O   UNL     1      -3.153  -0.957  26.265  0.00  0.00    -0.371 OA
ATOM     10  C   UNL     1      -5.055  -0.543  24.904  0.00  0.00    +0.111 C 
ATOM     11  C   UNL     1      -3.956  -1.148  24.048  0.00  0.00    +0.164 C 
ATOM     12  C   UNL     1      -3.091  -1.811  25.110  0.00  0.00    +0.164 C 
ATOM     13  C   UNL     1      -4.266  -0.058  26.108  0.00  0.00    +0.181 C 
ENDROOT
BRANCH  11   3
ATOM      3  O   UNL     1      -4.450  -2.085  23.110  0.00  0.00    -0.388 OA
ATOM     31  H   UNL     1      -4.192  -1.790  22.220  0.00  0.00    +0.210 HD
ENDBRANCH  11   3
BRANCH  10   8
ATOM      8  N   UNL     1      -5.788   0.524  24.241  0.00  0.00    -0.305 NA
ATOM     30  H   UNL     1      -6.709   0.177  23.972  0.00  0.00    +0.123 HD
BRANCH   8  15
ATOM     15  C   UNL     1      -5.958   1.671  25.125  0.00  0.00    +0.116 C 
BRANCH  15  16
ATOM     16  C   UNL     1      -4.764   2.588  25.089  0.00  0.00    -0.034 A 
ATOM     18  C   UNL     1      -4.327   3.211  26.258  0.00  0.00    +0.006 A 
ATOM     19  C   UNL     1      -4.094   2.814  23.886  0.00  0.00    +0.006 A 
ATOM     22  C   UNL     1      -3.221   4.061  26.224  0.00  0.00    +0.015 A 
ATOM     23  C   UNL     1      -2.989   3.663  23.852  0.00  0.00    +0.015 A 
ATOM     24  C   UNL     1      -2.551   4.286  25.021  0.00  0.00    +0.059 A 
BRANCH  24  29
ATOM      7  O   UNL     1      -0.245   4.834  24.697  0.00  0.00    -0.245 OA
ATOM     29  C   UNL     1      -1.398   5.171  24.986  0.00  0.00    +0.337 C 
BRANCH  29   6
ATOM      6  O   UNL     1      -1.715   6.454  25.314  0.00  0.00    -0.477 OA
ATOM     33  H   UNL     1      -2.478   6.495  25.929  0.00  0.00    +0.295 HD
ENDBRANCH  29   6
ENDBRANCH  24  29
ENDBRANCH  15  16
ENDBRANCH   8  15
ENDBRANCH  10   8
BRANCH  12  14
ATOM     14  C   UNL     1      -1.645  -1.989  24.681  0.00  0.00    +0.140 C 
BRANCH  14   9
ATOM      9  N   UNL     1      -1.373  -1.153  23.495  0.00  0.00    -0.187 NA
ATOM     32  H   UNL     1      -1.007  -1.650  22.673  0.00  0.00    +0.148 HD
BRANCH   9   1
ATOM      1  S   UNL     1      -0.991   0.494  23.683  0.00  0.00    +0.058 S 
ATOM      4  O   UNL     1      -1.157   0.870  25.074  0.00  0.00    -0.153 OA
ATOM      5  O   UNL     1      -1.650   1.253  22.638  0.00  0.00    -0.153 OA
BRANCH   1  17
ATOM     17  C   UNL     1       0.738   0.507  23.318  0.00  0.00    +0.105 A 
ATOM     20  C   UNL     1       1.287  -0.484  22.504  0.00  0.00    +0.029 A 
ATOM     21  C   UNL     1       1.555   1.506  23.848  0.00  0.00    +0.029 A 
ATOM     25  C   UNL     1       2.653  -0.475  22.218  0.00  0.00    +0.005 A 
ATOM     26  C   UNL     1       2.921   1.514  23.562  0.00  0.00    +0.005 A 
ATOM     27  C   UNL     1       3.469   0.523  22.747  0.00  0.00    -0.050 A 
ATOM     28  C   UNL     1       4.929   0.532  22.442  0.00  0.00    +0.044 C 
ENDBRANCH   1  17
ENDBRANCH   9   1
ENDBRANCH  14   9
ENDBRANCH  12  14
TORSDOF 10
ENDMDL
