MODEL 1
REMARK VINA RESULT:      13.8      0.000      0.000
REMARK  Name = 11941369
REMARK  4 active torsions:
REMARK  status: ('A' for Active; 'I' for Inactive)
REMARK    1  A    between atoms: N_3  and  C_11
REMARK    2  A    between atoms: C_20  and  C_23
REMARK    3  A    between atoms: C_22  and  C_24
REMARK    4  A    between atoms: C_25  and  C_28
REMARK                            x       y       z     vdW  Elec       q    Type
REMARK                         _______ _______ _______ _____ _____    ______ ____
ROOT
ATOM      1  O   UNL     1      -2.762   1.885  26.562  0.00  0.00    -0.267 OA
ATOM      3  N   UNL     1       0.428  -0.836  23.812  0.00  0.00    -0.298 NA
ATOM      4  N   UNL     1      -2.305   0.051  25.196  0.00  0.00    -0.311 N 
ATOM      6  C   UNL     1      -0.653  -1.792  25.862  0.00  0.00    +0.024 C 
ATOM      7  C   UNL     1      -1.819  -1.923  23.713  0.00  0.00    +0.050 C 
ATOM      8  C   UNL     1      -1.536  -2.689  25.002  0.00  0.00    +0.017 C 
ATOM      9  C   UNL     1       0.659  -1.470  25.115  0.00  0.00    +0.090 C 
ATOM     10  C   UNL     1      -0.489  -1.632  22.982  0.00  0.00    +0.094 C 
ATOM     12  C   UNL     1      -1.444  -0.531  26.236  0.00  0.00    +0.130 C 
ATOM     13  C   UNL     1      -2.559  -0.631  24.004  0.00  0.00    +0.026 A 
ATOM     18  C   UNL     1      -3.435  -0.134  23.118  0.00  0.00    +0.022 A 
ATOM     19  C   UNL     1      -2.935   1.273  25.508  0.00  0.00    +0.259 A 
ATOM     20  C   UNL     1      -3.887   1.821  24.479  0.00  0.00    +0.047 A 
ATOM     21  C   UNL     1      -4.103   1.113  23.360  0.00  0.00    +0.015 A 
ENDROOT
BRANCH   3  11
ATOM      2  O   UNL     1       6.554  -0.623  24.075  0.00  0.00    -0.276 OA
ATOM      5  N   UNL     1       4.515   0.030  23.173  0.00  0.00    -0.302 N 
ATOM     11  C   UNL     1       1.689  -0.595  23.114  0.00  0.00    +0.060 C 
ATOM     14  C   UNL     1       2.191   0.823  23.410  0.00  0.00    +0.038 C 
ATOM     15  C   UNL     1       2.734  -1.634  23.542  0.00  0.00    +0.038 C 
ATOM     16  C   UNL     1       3.557   1.066  22.767  0.00  0.00    +0.109 C 
ATOM     17  C   UNL     1       4.088  -1.343  22.897  0.00  0.00    +0.109 C 
ATOM     22  C   UNL     1       5.766   0.266  23.742  0.00  0.00    +0.212 C 
ATOM     24  C   UNL     1       6.151   1.708  23.953  0.00  0.00    +0.109 C 
ENDBRANCH   3  11
BRANCH  20  23
ATOM     23  C   UNL     1      -4.568   3.113  24.680  0.00  0.00    -0.010 A 
ATOM     25  C   UNL     1      -5.688   3.225  25.506  0.00  0.00    -0.043 A 
ATOM     26  C   UNL     1      -4.073   4.243  24.025  0.00  0.00    +0.009 A 
ATOM     27  C   UNL     1      -6.312   4.462  25.676  0.00  0.00    +0.004 A 
ATOM     28  C   UNL     1      -6.248   2.039  26.224  0.00  0.00    +0.044 C 
ATOM     29  C   UNL     1      -4.697   5.479  24.196  0.00  0.00    +0.001 A 
ATOM     30  C   UNL     1      -5.815   5.589  25.021  0.00  0.00    +0.000 A 
ENDBRANCH  20  23
TORSDOF 2
ENDMDL
MODEL 2
REMARK VINA RESULT:      14.9      0.347      1.249
REMARK  Name = 11941369
REMARK  4 active torsions:
REMARK  status: ('A' for Active; 'I' for Inactive)
REMARK    1  A    between atoms: N_3  and  C_11
REMARK    2  A    between atoms: C_20  and  C_23
REMARK    3  A    between atoms: C_22  and  C_24
REMARK    4  A    between atoms: C_25  and  C_28
REMARK                            x       y       z     vdW  Elec       q    Type
REMARK                         _______ _______ _______ _____ _____    ______ ____
ROOT
ATOM      1  O   UNL     1      -2.794   1.698  26.692  0.00  0.00    -0.267 OA
ATOM      3  N   UNL     1       0.408  -0.860  23.804  0.00  0.00    -0.298 NA
ATOM      4  N   UNL     1      -2.321  -0.078  25.258  0.00  0.00    -0.311 N 
ATOM      6  C   UNL     1      -0.622  -1.908  25.836  0.00  0.00    +0.024 C 
ATOM      7  C   UNL     1      -1.818  -1.990  23.700  0.00  0.00    +0.050 C 
ATOM      8  C   UNL     1      -1.499  -2.793  24.958  0.00  0.00    +0.017 C 
ATOM      9  C   UNL     1       0.671  -1.533  25.081  0.00  0.00    +0.090 C 
ATOM     10  C   UNL     1      -0.505  -1.646  22.960  0.00  0.00    +0.094 C 
ATOM     12  C   UNL     1      -1.433  -0.678  26.264  0.00  0.00    +0.130 C 
ATOM     13  C   UNL     1      -2.579  -0.724  24.047  0.00  0.00    +0.026 A 
ATOM     18  C   UNL     1      -3.479  -0.216  23.191  0.00  0.00    +0.022 A 
ATOM     19  C   UNL     1      -2.971   1.119  25.620  0.00  0.00    +0.259 A 
ATOM     20  C   UNL     1      -3.949   1.682  24.625  0.00  0.00    +0.047 A 
ATOM     21  C   UNL     1      -4.168   1.008  23.486  0.00  0.00    +0.015 A 
ENDROOT
BRANCH   3  11
ATOM      2  O   UNL     1       6.536  -0.599  23.963  0.00  0.00    -0.276 OA
ATOM      5  N   UNL     1       4.474   0.080  23.136  0.00  0.00    -0.302 N 
ATOM     11  C   UNL     1       1.653  -0.570  23.097  0.00  0.00    +0.060 C 
ATOM     14  C   UNL     1       2.148   0.836  23.459  0.00  0.00    +0.038 C 
ATOM     15  C   UNL     1       2.716  -1.620  23.448  0.00  0.00    +0.038 C 
ATOM     16  C   UNL     1       3.499   1.127  22.804  0.00  0.00    +0.109 C 
ATOM     17  C   UNL     1       4.054  -1.281  22.795  0.00  0.00    +0.109 C 
ATOM     22  C   UNL     1       5.733   0.298  23.693  0.00  0.00    +0.212 C 
ATOM     24  C   UNL     1       6.109   1.731  23.974  0.00  0.00    +0.109 C 
ENDBRANCH   3  11
BRANCH  20  23
ATOM     23  C   UNL     1      -4.653   2.951  24.880  0.00  0.00    -0.010 A 
ATOM     25  C   UNL     1      -4.074   4.182  24.563  0.00  0.00    -0.043 A 
ATOM     26  C   UNL     1      -5.926   2.912  25.454  0.00  0.00    +0.009 A 
ATOM     27  C   UNL     1      -4.765   5.368  24.817  0.00  0.00    +0.004 A 
ATOM     28  C   UNL     1      -2.714   4.267  23.948  0.00  0.00    +0.044 C 
ATOM     29  C   UNL     1      -6.616   4.097  25.709  0.00  0.00    +0.001 A 
ATOM     30  C   UNL     1      -6.036   5.324  25.390  0.00  0.00    +0.000 A 
ENDBRANCH  20  23
TORSDOF 2
ENDMDL
