MODEL 1
REMARK VINA RESULT:      -3.6      0.000      0.000
REMARK  Name = 38030443
REMARK  12 active torsions:
REMARK  status: ('A' for Active; 'I' for Inactive)
REMARK    1  A    between atoms: N_2  and  C_13
REMARK    2  A    between atoms: N_2  and  C_19
REMARK    3  A    between atoms: N_2  and  C_20
REMARK    4  A    between atoms: C_6  and  C_10
REMARK    5  A    between atoms: C_7  and  C_13
REMARK    6  A    between atoms: C_9  and  C_14
REMARK    7  A    between atoms: C_10  and  C_15
REMARK    8  A    between atoms: C_10  and  C_16
REMARK    9  A    between atoms: C_11  and  C_17
REMARK   10  A    between atoms: C_14  and  C_18
REMARK   11  A    between atoms: C_19  and  C_22
REMARK   12  A    between atoms: C_21  and  C_23
REMARK                            x       y       z     vdW  Elec       q    Type
REMARK                         _______ _______ _______ _____ _____    ______ ____
ROOT
ATOM      6  C   UNL     1      -4.742   1.535  25.919  0.00  0.00    +0.000 C 
ATOM      7  C   UNL     1      -4.360   0.498  24.837  0.00  0.00    +0.029 C 
ATOM      8  C   UNL     1      -3.682   2.643  26.001  0.00  0.00    +0.012 C 
ATOM      9  C   UNL     1      -3.447   3.366  24.657  0.00  0.00    +0.024 C 
ATOM     11  C   UNL     1      -3.465   2.424  23.463  0.00  0.00    -0.073 C 
ATOM     12  C   UNL     1      -3.866   1.143  23.567  0.00  0.00    -0.023 C 
ATOM     17  C   UNL     1      -3.073   2.989  22.126  0.00  0.00    +0.039 C 
ENDROOT
BRANCH   6  10
ATOM     10  C   UNL     1      -6.137   2.121  25.664  0.00  0.00    -0.013 C 
ATOM     15  C   UNL     1      -6.067   3.644  25.577  0.00  0.00    +0.007 C 
ATOM     16  C   UNL     1      -6.737   1.533  24.390  0.00  0.00    +0.007 C 
ENDBRANCH   6  10
BRANCH   7  13
ATOM     13  C   UNL     1      -3.303  -0.487  25.345  0.00  0.00    +0.093 C 
BRANCH  13   2
ATOM      2  N   UNL     1      -3.604  -1.838  24.901  0.00  0.00    -0.294 NA
ATOM     20  C   UNL     1      -4.671  -1.829  23.895  0.00  0.00    +0.105 C 
BRANCH   2  19
ATOM     19  C   UNL     1      -2.407  -2.488  24.361  0.00  0.00    +0.173 C 
BRANCH  19  22
ATOM     22  C   UNL     1      -1.195  -1.970  25.002  0.00  0.00    -0.090 C 
ATOM     24  C   UNL     1      -0.204  -1.547  25.531  0.00  0.00    +0.005 C 
ENDBRANCH  19  22
ENDBRANCH   2  19
ENDBRANCH  13   2
ENDBRANCH   7  13
BRANCH   9  14
ATOM     14  C   UNL     1      -2.149   4.176  24.757  0.00  0.00    +0.105 C 
BRANCH  14  18
ATOM      1  O   UNL     1      -0.418   2.698  23.876  0.00  0.00    -0.420 OA
ATOM      3  N   UNL     1      -0.348   2.970  26.096  0.00  0.00    -0.112 NA
ATOM      4  N   UNL     1       0.680   2.117  25.737  0.00  0.00    -0.107 NA
ATOM     18  C   UNL     1      -0.960   3.283  24.978  0.00  0.00    +0.218 A 
ATOM     21  C   UNL     1       0.600   1.986  24.434  0.00  0.00    +0.250 A 
BRANCH  21  23
ATOM      5  N   UNL     1       1.546  -0.513  21.850  0.00  0.00    -0.263 NA
ATOM     23  C   UNL     1       1.406   1.226  23.523  0.00  0.00    +0.057 A 
ATOM     25  C   UNL     1       2.772   1.457  23.409  0.00  0.00    +0.016 A 
ATOM     26  C   UNL     1       0.847   0.239  22.729  0.00  0.00    +0.124 A 
ATOM     27  C   UNL     1       3.527   0.704  22.516  0.00  0.00    +0.020 A 
ATOM     28  C   UNL     1       2.872  -0.260  21.767  0.00  0.00    +0.111 A 
ENDBRANCH  21  23
ENDBRANCH  14  18
ENDBRANCH   9  14
TORSDOF 8
ENDMDL
MODEL 2
REMARK VINA RESULT:      -2.7      2.284      4.218
REMARK  Name = 38030443
REMARK  12 active torsions:
REMARK  status: ('A' for Active; 'I' for Inactive)
REMARK    1  A    between atoms: N_2  and  C_13
REMARK    2  A    between atoms: N_2  and  C_19
REMARK    3  A    between atoms: N_2  and  C_20
REMARK    4  A    between atoms: C_6  and  C_10
REMARK    5  A    between atoms: C_7  and  C_13
REMARK    6  A    between atoms: C_9  and  C_14
REMARK    7  A    between atoms: C_10  and  C_15
REMARK    8  A    between atoms: C_10  and  C_16
REMARK    9  A    between atoms: C_11  and  C_17
REMARK   10  A    between atoms: C_14  and  C_18
REMARK   11  A    between atoms: C_19  and  C_22
REMARK   12  A    between atoms: C_21  and  C_23
REMARK                            x       y       z     vdW  Elec       q    Type
REMARK                         _______ _______ _______ _____ _____    ______ ____
ROOT
ATOM      6  C   UNL     1      -1.759   3.404  25.891  0.00  0.00    +0.000 C 
ATOM      7  C   UNL     1      -3.224   3.610  25.437  0.00  0.00    +0.029 C 
ATOM      8  C   UNL     1      -1.250   2.024  25.453  0.00  0.00    +0.012 C 
ATOM      9  C   UNL     1      -1.354   1.786  23.931  0.00  0.00    +0.024 C 
ATOM     11  C   UNL     1      -2.634   2.346  23.328  0.00  0.00    -0.073 C 
ATOM     12  C   UNL     1      -3.461   3.150  24.021  0.00  0.00    -0.023 C 
ATOM     17  C   UNL     1      -2.924   2.020  21.889  0.00  0.00    +0.039 C 
ENDROOT
BRANCH   6  10
ATOM     10  C   UNL     1      -0.848   4.522  25.366  0.00  0.00    -0.013 C 
ATOM     15  C   UNL     1      -0.023   4.025  24.183  0.00  0.00    +0.007 C 
ATOM     16  C   UNL     1      -1.676   5.742  24.974  0.00  0.00    +0.007 C 
ENDBRANCH   6  10
BRANCH   7  13
ATOM     13  C   UNL     1      -4.210   2.900  26.369  0.00  0.00    +0.093 C 
BRANCH  13   2
ATOM      2  N   UNL     1      -5.577   3.096  25.916  0.00  0.00    -0.294 NA
ATOM     20  C   UNL     1      -5.735   4.416  25.297  0.00  0.00    +0.105 C 
BRANCH   2  19
ATOM     19  C   UNL     1      -5.970   2.046  24.973  0.00  0.00    +0.173 C 
BRANCH  19  22
ATOM     22  C   UNL     1      -5.152   0.844  25.156  0.00  0.00    -0.090 C 
ATOM     24  C   UNL     1      -4.486  -0.144  25.306  0.00  0.00    +0.005 C 
ENDBRANCH  19  22
ENDBRANCH   2  19
ENDBRANCH  13   2
ENDBRANCH   7  13
BRANCH   9  14
ATOM     14  C   UNL     1      -1.170   0.289  23.655  0.00  0.00    +0.105 C 
BRANCH  14  18
ATOM      1  O   UNL     1       1.259   0.057  23.663  0.00  0.00    -0.420 OA
ATOM      3  N   UNL     1       0.316  -0.251  21.658  0.00  0.00    -0.112 NA
ATOM      4  N   UNL     1       1.682  -0.412  21.517  0.00  0.00    -0.107 NA
ATOM     18  C   UNL     1       0.116   0.020  22.926  0.00  0.00    +0.218 A 
ATOM     21  C   UNL     1       2.192  -0.222  22.711  0.00  0.00    +0.250 A 
BRANCH  21  23
ATOM      5  N   UNL     1       5.349  -1.516  24.185  0.00  0.00    -0.263 NA
ATOM     23  C   UNL     1       3.553  -0.265  23.160  0.00  0.00    +0.057 A 
ATOM     25  C   UNL     1       4.388   0.838  23.026  0.00  0.00    +0.016 A 
ATOM     26  C   UNL     1       4.077  -1.408  23.741  0.00  0.00    +0.124 A 
ATOM     27  C   UNL     1       5.704   0.766  23.470  0.00  0.00    +0.020 A 
ATOM     28  C   UNL     1       6.132  -0.423  24.038  0.00  0.00    +0.111 A 
ENDBRANCH  21  23
ENDBRANCH  14  18
ENDBRANCH   9  14
TORSDOF 8
ENDMDL
MODEL 3
REMARK VINA RESULT:      -2.1      2.003      5.425
REMARK  Name = 38030443
REMARK  12 active torsions:
REMARK  status: ('A' for Active; 'I' for Inactive)
REMARK    1  A    between atoms: N_2  and  C_13
REMARK    2  A    between atoms: N_2  and  C_19
REMARK    3  A    between atoms: N_2  and  C_20
REMARK    4  A    between atoms: C_6  and  C_10
REMARK    5  A    between atoms: C_7  and  C_13
REMARK    6  A    between atoms: C_9  and  C_14
REMARK    7  A    between atoms: C_10  and  C_15
REMARK    8  A    between atoms: C_10  and  C_16
REMARK    9  A    between atoms: C_11  and  C_17
REMARK   10  A    between atoms: C_14  and  C_18
REMARK   11  A    between atoms: C_19  and  C_22
REMARK   12  A    between atoms: C_21  and  C_23
REMARK                            x       y       z     vdW  Elec       q    Type
REMARK                         _______ _______ _______ _____ _____    ______ ____
ROOT
ATOM      6  C   UNL     1      -0.765   3.281  23.730  0.00  0.00    +0.000 C 
ATOM      7  C   UNL     1      -0.560   2.286  24.897  0.00  0.00    +0.029 C 
ATOM      8  C   UNL     1      -2.248   3.648  23.590  0.00  0.00    +0.012 C 
ATOM      9  C   UNL     1      -2.859   4.236  24.880  0.00  0.00    +0.024 C 
ATOM     11  C   UNL     1      -2.368   3.543  26.142  0.00  0.00    -0.073 C 
ATOM     12  C   UNL     1      -1.346   2.666  26.126  0.00  0.00    -0.023 C 
ATOM     17  C   UNL     1      -3.027   3.915  27.440  0.00  0.00    +0.039 C 
ENDROOT
BRANCH   6  10
ATOM     10  C   UNL     1       0.102   4.535  23.907  0.00  0.00    -0.013 C 
ATOM     15  C   UNL     1       0.557   5.063  22.549  0.00  0.00    +0.007 C 
ATOM     16  C   UNL     1      -0.665   5.608  24.674  0.00  0.00    +0.007 C 
ENDBRANCH   6  10
BRANCH   7  13
ATOM     13  C   UNL     1      -0.923   0.855  24.491  0.00  0.00    +0.093 C 
BRANCH  13   2
ATOM      2  N   UNL     1       0.276   0.052  24.312  0.00  0.00    -0.294 NA
ATOM     20  C   UNL     1       0.042  -1.333  24.731  0.00  0.00    +0.105 C 
BRANCH   2  19
ATOM     19  C   UNL     1       0.724   0.089  22.917  0.00  0.00    +0.173 C 
BRANCH  19  22
ATOM     22  C   UNL     1       2.160   0.365  22.834  0.00  0.00    -0.090 C 
ATOM     24  C   UNL     1       3.337   0.596  22.764  0.00  0.00    +0.005 C 
ENDBRANCH  19  22
ENDBRANCH   2  19
ENDBRANCH  13   2
ENDBRANCH   7  13
BRANCH   9  14
ATOM     14  C   UNL     1      -4.387   4.224  24.749  0.00  0.00    +0.105 C 
BRANCH  14  18
ATOM      1  O   UNL     1      -4.136   1.797  24.752  0.00  0.00    -0.420 OA
ATOM      3  N   UNL     1      -6.132   2.513  25.465  0.00  0.00    -0.112 NA
ATOM      4  N   UNL     1      -6.129   1.131  25.519  0.00  0.00    -0.107 NA
ATOM     18  C   UNL     1      -4.949   2.856  25.012  0.00  0.00    +0.218 A 
ATOM     21  C   UNL     1      -4.946   0.756  25.093  0.00  0.00    +0.250 A 
BRANCH  21  23
ATOM      5  N   UNL     1      -3.068  -2.358  25.861  0.00  0.00    -0.263 NA
ATOM     23  C   UNL     1      -4.384  -0.553  24.937  0.00  0.00    +0.057 A 
ATOM     25  C   UNL     1      -4.582  -1.285  23.771  0.00  0.00    +0.016 A 
ATOM     26  C   UNL     1      -3.625  -1.130  25.943  0.00  0.00    +0.124 A 
ATOM     27  C   UNL     1      -4.024  -2.554  23.649  0.00  0.00    +0.020 A 
ATOM     28  C   UNL     1      -3.282  -3.040  24.713  0.00  0.00    +0.111 A 
ENDBRANCH  21  23
ENDBRANCH  14  18
ENDBRANCH   9  14
TORSDOF 8
ENDMDL
MODEL 4
REMARK VINA RESULT:      -1.9      1.747      4.994
REMARK  Name = 38030443
REMARK  12 active torsions:
REMARK  status: ('A' for Active; 'I' for Inactive)
REMARK    1  A    between atoms: N_2  and  C_13
REMARK    2  A    between atoms: N_2  and  C_19
REMARK    3  A    between atoms: N_2  and  C_20
REMARK    4  A    between atoms: C_6  and  C_10
REMARK    5  A    between atoms: C_7  and  C_13
REMARK    6  A    between atoms: C_9  and  C_14
REMARK    7  A    between atoms: C_10  and  C_15
REMARK    8  A    between atoms: C_10  and  C_16
REMARK    9  A    between atoms: C_11  and  C_17
REMARK   10  A    between atoms: C_14  and  C_18
REMARK   11  A    between atoms: C_19  and  C_22
REMARK   12  A    between atoms: C_21  and  C_23
REMARK                            x       y       z     vdW  Elec       q    Type
REMARK                         _______ _______ _______ _____ _____    ______ ____
ROOT
ATOM      6  C   UNL     1      -3.920  -0.949  24.077  0.00  0.00    +0.000 C 
ATOM      7  C   UNL     1      -3.682  -0.319  25.469  0.00  0.00    +0.029 C 
ATOM      8  C   UNL     1      -2.636  -0.899  23.237  0.00  0.00    +0.012 C 
ATOM      9  C   UNL     1      -1.433  -1.590  23.915  0.00  0.00    +0.024 C 
ATOM     11  C   UNL     1      -1.367  -1.335  25.413  0.00  0.00    -0.073 C 
ATOM     12  C   UNL     1      -2.378  -0.756  26.087  0.00  0.00    -0.023 C 
ATOM     17  C   UNL     1      -0.143  -1.811  26.145  0.00  0.00    +0.039 C 
ENDROOT
BRANCH   6  10
ATOM     10  C   UNL     1      -4.448  -2.385  24.196  0.00  0.00    -0.013 C 
ATOM     15  C   UNL     1      -4.628  -3.003  22.812  0.00  0.00    +0.007 C 
ATOM     16  C   UNL     1      -3.505  -3.230  25.047  0.00  0.00    +0.007 C 
ENDBRANCH   6  10
BRANCH   7  13
ATOM     13  C   UNL     1      -3.724   1.211  25.412  0.00  0.00    +0.093 C 
BRANCH  13   2
ATOM      2  N   UNL     1      -4.841   1.664  24.600  0.00  0.00    -0.294 NA
ATOM     20  C   UNL     1      -6.029   1.892  25.429  0.00  0.00    +0.105 C 
BRANCH   2  19
ATOM     19  C   UNL     1      -4.493   2.886  23.870  0.00  0.00    +0.173 C 
BRANCH  19  22
ATOM     22  C   UNL     1      -3.546   2.600  22.789  0.00  0.00    -0.090 C 
ATOM     24  C   UNL     1      -2.766   2.367  21.906  0.00  0.00    +0.005 C 
ENDBRANCH  19  22
ENDBRANCH   2  19
ENDBRANCH  13   2
ENDBRANCH   7  13
BRANCH   9  14
ATOM     14  C   UNL     1      -0.153  -1.174  23.182  0.00  0.00    +0.105 C 
BRANCH  14  18
ATOM      1  O   UNL     1      -0.682   1.059  24.011  0.00  0.00    -0.420 OA
ATOM      3  N   UNL     1       1.491   0.729  23.593  0.00  0.00    -0.112 NA
ATOM      4  N   UNL     1       1.336   2.024  24.053  0.00  0.00    -0.107 NA
ATOM     18  C   UNL     1       0.288   0.205  23.586  0.00  0.00    +0.218 A 
ATOM     21  C   UNL     1       0.053   2.173  24.283  0.00  0.00    +0.250 A 
BRANCH  21  23
ATOM      5  N   UNL     1      -2.304   4.200  26.322  0.00  0.00    -0.263 NA
ATOM     23  C   UNL     1      -0.681   3.305  24.770  0.00  0.00    +0.057 A 
ATOM     25  C   UNL     1      -0.511   4.566  24.209  0.00  0.00    +0.016 A 
ATOM     26  C   UNL     1      -1.581   3.177  25.815  0.00  0.00    +0.124 A 
ATOM     27  C   UNL     1      -1.236   5.645  24.704  0.00  0.00    +0.020 A 
ATOM     28  C   UNL     1      -2.112   5.411  25.751  0.00  0.00    +0.111 A 
ENDBRANCH  21  23
ENDBRANCH  14  18
ENDBRANCH   9  14
TORSDOF 8
ENDMDL
MODEL 5
REMARK VINA RESULT:      -1.8      2.093      4.402
REMARK  Name = 38030443
REMARK  12 active torsions:
REMARK  status: ('A' for Active; 'I' for Inactive)
REMARK    1  A    between atoms: N_2  and  C_13
REMARK    2  A    between atoms: N_2  and  C_19
REMARK    3  A    between atoms: N_2  and  C_20
REMARK    4  A    between atoms: C_6  and  C_10
REMARK    5  A    between atoms: C_7  and  C_13
REMARK    6  A    between atoms: C_9  and  C_14
REMARK    7  A    between atoms: C_10  and  C_15
REMARK    8  A    between atoms: C_10  and  C_16
REMARK    9  A    between atoms: C_11  and  C_17
REMARK   10  A    between atoms: C_14  and  C_18
REMARK   11  A    between atoms: C_19  and  C_22
REMARK   12  A    between atoms: C_21  and  C_23
REMARK                            x       y       z     vdW  Elec       q    Type
REMARK                         _______ _______ _______ _____ _____    ______ ____
ROOT
ATOM      6  C   UNL     1      -4.203  -0.533  24.166  0.00  0.00    +0.000 C 
ATOM      7  C   UNL     1      -4.350   0.280  25.475  0.00  0.00    +0.029 C 
ATOM      8  C   UNL     1      -3.131   0.092  23.262  0.00  0.00    +0.012 C 
ATOM      9  C   UNL     1      -1.753   0.222  23.945  0.00  0.00    +0.024 C 
ATOM     11  C   UNL     1      -1.848   0.639  25.405  0.00  0.00    -0.073 C 
ATOM     12  C   UNL     1      -3.020   0.669  26.066  0.00  0.00    -0.023 C 
ATOM     17  C   UNL     1      -0.565   0.966  26.118  0.00  0.00    +0.039 C 
ENDROOT
BRANCH   6  10
ATOM     10  C   UNL     1      -3.891  -2.007  24.457  0.00  0.00    -0.013 C 
ATOM     15  C   UNL     1      -4.681  -2.913  23.516  0.00  0.00    +0.007 C 
ATOM     16  C   UNL     1      -2.393  -2.270  24.330  0.00  0.00    +0.007 C 
ENDBRANCH   6  10
BRANCH   7  13
ATOM     13  C   UNL     1      -5.196   1.540  25.265  0.00  0.00    +0.093 C 
BRANCH  13   2
ATOM      2  N   UNL     1      -4.383   2.622  24.736  0.00  0.00    -0.294 NA
ATOM     20  C   UNL     1      -5.035   3.244  23.579  0.00  0.00    +0.105 C 
BRANCH   2  19
ATOM     19  C   UNL     1      -4.118   3.628  25.767  0.00  0.00    +0.173 C 
BRANCH  19  22
ATOM     22  C   UNL     1      -2.803   4.245  25.573  0.00  0.00    -0.090 C 
ATOM     24  C   UNL     1      -1.724   4.746  25.416  0.00  0.00    +0.005 C 
ENDBRANCH  19  22
ENDBRANCH   2  19
ENDBRANCH  13   2
ENDBRANCH   7  13
BRANCH   9  14
ATOM     14  C   UNL     1      -0.879   1.166  23.110  0.00  0.00    +0.105 C 
BRANCH  14  18
ATOM      1  O   UNL     1       1.474   0.568  23.360  0.00  0.00    -0.420 OA
ATOM      3  N   UNL     1       0.514  -0.240  21.507  0.00  0.00    -0.112 NA
ATOM      4  N   UNL     1       1.835  -0.652  21.520  0.00  0.00    -0.107 NA
ATOM     18  C   UNL     1       0.350   0.468  22.600  0.00  0.00    +0.218 A 
ATOM     21  C   UNL     1       2.356  -0.157  22.618  0.00  0.00    +0.250 A 
BRANCH  21  23
ATOM      5  N   UNL     1       5.371  -1.606  24.239  0.00  0.00    -0.263 NA
ATOM     23  C   UNL     1       3.684  -0.261  23.147  0.00  0.00    +0.057 A 
ATOM     25  C   UNL     1       4.562   0.815  23.100  0.00  0.00    +0.016 A 
ATOM     26  C   UNL     1       4.133  -1.439  23.722  0.00  0.00    +0.124 A 
ATOM     27  C   UNL     1       5.845   0.683  23.622  0.00  0.00    +0.020 A 
ATOM     28  C   UNL     1       6.197  -0.537  24.176  0.00  0.00    +0.111 A 
ENDBRANCH  21  23
ENDBRANCH  14  18
ENDBRANCH   9  14
TORSDOF 8
ENDMDL
MODEL 6
REMARK VINA RESULT:      -1.5      1.961      5.862
REMARK  Name = 38030443
REMARK  12 active torsions:
REMARK  status: ('A' for Active; 'I' for Inactive)
REMARK    1  A    between atoms: N_2  and  C_13
REMARK    2  A    between atoms: N_2  and  C_19
REMARK    3  A    between atoms: N_2  and  C_20
REMARK    4  A    between atoms: C_6  and  C_10
REMARK    5  A    between atoms: C_7  and  C_13
REMARK    6  A    between atoms: C_9  and  C_14
REMARK    7  A    between atoms: C_10  and  C_15
REMARK    8  A    between atoms: C_10  and  C_16
REMARK    9  A    between atoms: C_11  and  C_17
REMARK   10  A    between atoms: C_14  and  C_18
REMARK   11  A    between atoms: C_19  and  C_22
REMARK   12  A    between atoms: C_21  and  C_23
REMARK                            x       y       z     vdW  Elec       q    Type
REMARK                         _______ _______ _______ _____ _____    ______ ____
ROOT
ATOM      6  C   UNL     1      -0.208   0.346  23.271  0.00  0.00    +0.000 C 
ATOM      7  C   UNL     1      -0.765  -0.096  24.645  0.00  0.00    +0.029 C 
ATOM      8  C   UNL     1      -0.331   1.867  23.104  0.00  0.00    +0.012 C 
ATOM      9  C   UNL     1       0.371   2.665  24.224  0.00  0.00    +0.024 C 
ATOM     11  C   UNL     1       0.199   2.039  25.599  0.00  0.00    -0.073 C 
ATOM     12  C   UNL     1      -0.321   0.808  25.766  0.00  0.00    -0.023 C 
ATOM     17  C   UNL     1       0.690   2.822  26.785  0.00  0.00    +0.039 C 
ENDROOT
BRANCH   6  10
ATOM     10  C   UNL     1       1.243  -0.116  23.081  0.00  0.00    -0.013 C 
ATOM     15  C   UNL     1       1.430  -0.723  21.693  0.00  0.00    +0.007 C 
ATOM     16  C   UNL     1       2.205   1.048  23.296  0.00  0.00    +0.007 C 
ENDBRANCH   6  10
BRANCH   7  13
ATOM     13  C   UNL     1      -2.295  -0.175  24.636  0.00  0.00    +0.093 C 
BRANCH  13   2
ATOM      2  N   UNL     1      -2.769  -1.055  25.691  0.00  0.00    -0.294 NA
ATOM     20  C   UNL     1      -4.091  -0.634  26.164  0.00  0.00    +0.105 C 
BRANCH   2  19
ATOM     19  C   UNL     1      -2.818  -2.444  25.227  0.00  0.00    +0.173 C 
BRANCH  19  22
ATOM     22  C   UNL     1      -3.808  -2.606  24.159  0.00  0.00    -0.090 C 
ATOM     24  C   UNL     1      -4.623  -2.736  23.287  0.00  0.00    +0.005 C 
ENDBRANCH  19  22
ENDBRANCH   2  19
ENDBRANCH  13   2
ENDBRANCH   7  13
BRANCH   9  14
ATOM     14  C   UNL     1      -0.112   4.119  24.166  0.00  0.00    +0.105 C 
BRANCH  14  18
ATOM      1  O   UNL     1      -2.371   3.332  24.648  0.00  0.00    -0.420 OA
ATOM      3  N   UNL     1      -1.824   5.238  25.683  0.00  0.00    -0.112 NA
ATOM      4  N   UNL     1      -3.120   4.912  26.043  0.00  0.00    -0.107 NA
ATOM     18  C   UNL     1      -1.429   4.288  24.869  0.00  0.00    +0.218 A 
ATOM     21  C   UNL     1      -3.396   3.793  25.416  0.00  0.00    +0.250 A 
BRANCH  21  23
ATOM      5  N   UNL     1      -6.549   2.215  26.593  0.00  0.00    -0.263 NA
ATOM     23  C   UNL     1      -4.588   2.996  25.415  0.00  0.00    +0.057 A 
ATOM     25  C   UNL     1      -4.953   2.252  24.299  0.00  0.00    +0.016 A 
ATOM     26  C   UNL     1      -5.413   2.944  26.527  0.00  0.00    +0.124 A 
ATOM     27  C   UNL     1      -6.116   1.489  24.328  0.00  0.00    +0.020 A 
ATOM     28  C   UNL     1      -6.872   1.505  25.489  0.00  0.00    +0.111 A 
ENDBRANCH  21  23
ENDBRANCH  14  18
ENDBRANCH   9  14
TORSDOF 8
ENDMDL
MODEL 7
REMARK VINA RESULT:      -0.6      1.591      4.145
REMARK  Name = 38030443
REMARK  12 active torsions:
REMARK  status: ('A' for Active; 'I' for Inactive)
REMARK    1  A    between atoms: N_2  and  C_13
REMARK    2  A    between atoms: N_2  and  C_19
REMARK    3  A    between atoms: N_2  and  C_20
REMARK    4  A    between atoms: C_6  and  C_10
REMARK    5  A    between atoms: C_7  and  C_13
REMARK    6  A    between atoms: C_9  and  C_14
REMARK    7  A    between atoms: C_10  and  C_15
REMARK    8  A    between atoms: C_10  and  C_16
REMARK    9  A    between atoms: C_11  and  C_17
REMARK   10  A    between atoms: C_14  and  C_18
REMARK   11  A    between atoms: C_19  and  C_22
REMARK   12  A    between atoms: C_21  and  C_23
REMARK                            x       y       z     vdW  Elec       q    Type
REMARK                         _______ _______ _______ _____ _____    ______ ____
ROOT
ATOM      6  C   UNL     1      -4.570   2.289  24.386  0.00  0.00    +0.000 C 
ATOM      7  C   UNL     1      -3.255   2.499  25.175  0.00  0.00    +0.029 C 
ATOM      8  C   UNL     1      -4.578   0.910  23.711  0.00  0.00    +0.012 C 
ATOM      9  C   UNL     1      -4.381  -0.258  24.702  0.00  0.00    +0.024 C 
ATOM     11  C   UNL     1      -3.359   0.047  25.786  0.00  0.00    -0.073 C 
ATOM     12  C   UNL     1      -2.860   1.283  25.974  0.00  0.00    -0.023 C 
ATOM     17  C   UNL     1      -2.958  -1.079  26.699  0.00  0.00    +0.039 C 
ENDROOT
BRANCH   6  10
ATOM     10  C   UNL     1      -5.798   2.471  25.288  0.00  0.00    -0.013 C 
ATOM     15  C   UNL     1      -6.011   3.949  25.604  0.00  0.00    +0.007 C 
ATOM     16  C   UNL     1      -7.037   1.876  24.626  0.00  0.00    +0.007 C 
ENDBRANCH   6  10
BRANCH   7  13
ATOM     13  C   UNL     1      -2.098   2.892  24.252  0.00  0.00    +0.093 C 
BRANCH  13   2
ATOM      2  N   UNL     1      -1.647   4.243  24.542  0.00  0.00    -0.294 NA
ATOM     20  C   UNL     1      -2.445   4.838  25.618  0.00  0.00    +0.105 C 
BRANCH   2  19
ATOM     19  C   UNL     1      -0.227   4.251  24.904  0.00  0.00    +0.173 C 
BRANCH  19  22
ATOM     22  C   UNL     1       0.039   3.320  26.004  0.00  0.00    -0.090 C 
ATOM     24  C   UNL     1       0.258   2.553  26.902  0.00  0.00    +0.005 C 
ENDBRANCH  19  22
ENDBRANCH   2  19
ENDBRANCH  13   2
ENDBRANCH   7  13
BRANCH   9  14
ATOM     14  C   UNL     1      -4.045  -1.524  23.905  0.00  0.00    +0.105 C 
BRANCH  14  18
ATOM      1  O   UNL     1      -1.757  -0.744  23.574  0.00  0.00    -0.420 OA
ATOM      3  N   UNL     1      -1.916  -2.900  24.150  0.00  0.00    -0.112 NA
ATOM      4  N   UNL     1      -0.575  -2.596  23.996  0.00  0.00    -0.107 NA
ATOM     18  C   UNL     1      -2.566  -1.790  23.894  0.00  0.00    +0.218 A 
ATOM     21  C   UNL     1      -0.530  -1.329  23.660  0.00  0.00    +0.250 A 
BRANCH  21  23
ATOM      5  N   UNL     1       1.727   1.624  23.730  0.00  0.00    -0.263 NA
ATOM     23  C   UNL     1       0.590  -0.480  23.376  0.00  0.00    +0.057 A 
ATOM     25  C   UNL     1       1.601  -0.889  22.513  0.00  0.00    +0.016 A 
ATOM     26  C   UNL     1       0.700   0.775  23.953  0.00  0.00    +0.124 A 
ATOM     27  C   UNL     1       2.676  -0.044  22.259  0.00  0.00    +0.020 A 
ATOM     28  C   UNL     1       2.691   1.191  22.886  0.00  0.00    +0.111 A 
ENDBRANCH  21  23
ENDBRANCH  14  18
ENDBRANCH   9  14
TORSDOF 8
ENDMDL
MODEL 8
REMARK VINA RESULT:      -0.6      1.936      4.149
REMARK  Name = 38030443
REMARK  12 active torsions:
REMARK  status: ('A' for Active; 'I' for Inactive)
REMARK    1  A    between atoms: N_2  and  C_13
REMARK    2  A    between atoms: N_2  and  C_19
REMARK    3  A    between atoms: N_2  and  C_20
REMARK    4  A    between atoms: C_6  and  C_10
REMARK    5  A    between atoms: C_7  and  C_13
REMARK    6  A    between atoms: C_9  and  C_14
REMARK    7  A    between atoms: C_10  and  C_15
REMARK    8  A    between atoms: C_10  and  C_16
REMARK    9  A    between atoms: C_11  and  C_17
REMARK   10  A    between atoms: C_14  and  C_18
REMARK   11  A    between atoms: C_19  and  C_22
REMARK   12  A    between atoms: C_21  and  C_23
REMARK                            x       y       z     vdW  Elec       q    Type
REMARK                         _______ _______ _______ _____ _____    ______ ____
ROOT
ATOM      6  C   UNL     1      -4.100   1.171  24.147  0.00  0.00    +0.000 C 
ATOM      7  C   UNL     1      -3.242   2.114  25.023  0.00  0.00    +0.029 C 
ATOM      8  C   UNL     1      -3.229   0.067  23.532  0.00  0.00    +0.012 C 
ATOM      9  C   UNL     1      -2.460  -0.764  24.582  0.00  0.00    +0.024 C 
ATOM     11  C   UNL     1      -1.917   0.078  25.727  0.00  0.00    -0.073 C 
ATOM     12  C   UNL     1      -2.270   1.365  25.899  0.00  0.00    -0.023 C 
ATOM     17  C   UNL     1      -1.005  -0.597  26.713  0.00  0.00    +0.039 C 
ENDROOT
BRANCH   6  10
ATOM     10  C   UNL     1      -5.267   0.575  24.946  0.00  0.00    -0.013 C 
ATOM     15  C   UNL     1      -6.368   1.615  25.135  0.00  0.00    +0.007 C 
ATOM     16  C   UNL     1      -5.811  -0.667  24.246  0.00  0.00    +0.007 C 
ENDBRANCH   6  10
BRANCH   7  13
ATOM     13  C   UNL     1      -2.473   3.131  24.174  0.00  0.00    +0.093 C 
BRANCH  13   2
ATOM      2  N   UNL     1      -2.391   4.412  24.855  0.00  0.00    -0.294 NA
ATOM     20  C   UNL     1      -3.090   4.362  26.143  0.00  0.00    +0.105 C 
BRANCH   2  19
ATOM     19  C   UNL     1      -0.995   4.809  25.054  0.00  0.00    +0.173 C 
BRANCH  19  22
ATOM     22  C   UNL     1      -0.184   3.672  25.497  0.00  0.00    -0.090 C 
ATOM     24  C   UNL     1       0.484   2.742  25.857  0.00  0.00    +0.005 C 
ENDBRANCH  19  22
ENDBRANCH   2  19
ENDBRANCH  13   2
ENDBRANCH   7  13
BRANCH   9  14
ATOM     14  C   UNL     1      -1.371  -1.571  23.866  0.00  0.00    +0.105 C 
BRANCH  14  18
ATOM      1  O   UNL     1       1.025  -1.129  23.739  0.00  0.00    -0.420 OA
ATOM      3  N   UNL     1      -0.250   0.457  22.810  0.00  0.00    -0.112 NA
ATOM      4  N   UNL     1       1.074   0.833  22.666  0.00  0.00    -0.107 NA
ATOM     18  C   UNL     1      -0.228  -0.693  23.440  0.00  0.00    +0.218 A 
ATOM     21  C   UNL     1       1.782  -0.121  23.223  0.00  0.00    +0.250 A 
BRANCH  21  23
ATOM      5  N   UNL     1       5.083  -1.655  23.973  0.00  0.00    -0.263 NA
ATOM     23  C   UNL     1       3.200  -0.264  23.368  0.00  0.00    +0.057 A 
ATOM     25  C   UNL     1       4.063   0.784  23.065  0.00  0.00    +0.016 A 
ATOM     26  C   UNL     1       3.757  -1.452  23.814  0.00  0.00    +0.124 A 
ATOM     27  C   UNL     1       5.435   0.614  23.215  0.00  0.00    +0.020 A 
ATOM     28  C   UNL     1       5.890  -0.613  23.668  0.00  0.00    +0.111 A 
ENDBRANCH  21  23
ENDBRANCH  14  18
ENDBRANCH   9  14
TORSDOF 8
ENDMDL
