MODEL 1
REMARK VINA RESULT:      -4.8      0.000      0.000
REMARK  Name = 71693984
REMARK  8 active torsions:
REMARK  status: ('A' for Active; 'I' for Inactive)
REMARK    1  A    between atoms: O_4  and  C_11
REMARK    2  A    between atoms: O_5  and  C_13
REMARK    3  A    between atoms: N_7  and  C_10
REMARK    4  A    between atoms: C_9  and  C_14
REMARK    5  A    between atoms: C_15  and  C_18
REMARK    6  A    between atoms: C_18  and  C_21
REMARK    7  A    between atoms: C_18  and  C_22
REMARK    8  A    between atoms: C_20  and  C_23
REMARK                            x       y       z     vdW  Elec       q    Type
REMARK                         _______ _______ _______ _____ _____    ______ ____
ROOT
ATOM      9  C   UNL     1      -1.672   1.761  25.562  0.00  0.00    +0.046 C 
ATOM     10  C   UNL     1      -3.007   1.540  24.814  0.00  0.00    +0.111 C 
ATOM     11  C   UNL     1      -3.908   2.646  25.362  0.00  0.00    +0.164 C 
ATOM     12  C   UNL     1      -1.677   3.247  26.004  0.00  0.00    +0.044 C 
ATOM     13  C   UNL     1      -2.970   3.844  25.453  0.00  0.00    +0.145 C 
ENDROOT
BRANCH   9  14
ATOM      8  N   UNL     1       1.675   1.953  23.785  0.00  0.00    -0.251 NA
ATOM     14  C   UNL     1      -0.462   1.356  24.745  0.00  0.00    -0.024 A 
ATOM     16  C   UNL     1      -0.355   0.077  24.210  0.00  0.00    +0.007 A 
ATOM     17  C   UNL     1       0.569   2.249  24.506  0.00  0.00    +0.115 A 
ATOM     19  C   UNL     1       0.767  -0.265  23.463  0.00  0.00    +0.032 A 
ATOM     20  C   UNL     1       1.745   0.700  23.281  0.00  0.00    +0.144 A 
BRANCH  20  23
ATOM      1  F   UNL     1       2.700   0.085  21.176  0.00  0.00    -0.164 F 
ATOM      2  F   UNL     1       3.887   1.373  22.455  0.00  0.00    -0.164 F 
ATOM      3  F   UNL     1       3.623  -0.723  22.971  0.00  0.00    -0.164 F 
ATOM     23  C   UNL     1       2.963   0.368  22.486  0.00  0.00    +0.434 C 
ENDBRANCH  20  23
ENDBRANCH   9  14
BRANCH  10   7
ATOM      6  O   UNL     1      -3.524  -0.508  22.861  0.00  0.00    -0.276 OA
ATOM      7  N   UNL     1      -3.554   0.230  25.061  0.00  0.00    -0.309 N 
ATOM     15  C   UNL     1      -3.770  -0.699  24.050  0.00  0.00    +0.216 C 
ATOM     24  H   UNL     1      -3.745  -0.035  26.022  0.00  0.00    +0.149 HD
BRANCH  15  18
ATOM     18  C   UNL     1      -4.360  -2.008  24.572  0.00  0.00    +0.069 C 
ATOM     21  C   UNL     1      -4.685  -2.939  23.407  0.00  0.00    +0.017 C 
ATOM     22  C   UNL     1      -3.406  -2.691  25.549  0.00  0.00    +0.017 C 
ENDBRANCH  15  18
ENDBRANCH  10   7
BRANCH  11   4
ATOM      4  O   UNL     1      -5.003   2.918  24.508  0.00  0.00    -0.387 OA
ATOM     25  H   UNL     1      -5.361   3.786  24.760  0.00  0.00    +0.210 HD
ENDBRANCH  11   4
BRANCH  13   5
ATOM      5  O   UNL     1      -2.708   4.386  24.162  0.00  0.00    -0.389 OA
ATOM     26  H   UNL     1      -3.545   4.744  23.821  0.00  0.00    +0.210 HD
ENDBRANCH  13   5
TORSDOF 6
ENDMDL
MODEL 2
REMARK VINA RESULT:      -3.1      3.587      5.966
REMARK  Name = 71693984
REMARK  8 active torsions:
REMARK  status: ('A' for Active; 'I' for Inactive)
REMARK    1  A    between atoms: O_4  and  C_11
REMARK    2  A    between atoms: O_5  and  C_13
REMARK    3  A    between atoms: N_7  and  C_10
REMARK    4  A    between atoms: C_9  and  C_14
REMARK    5  A    between atoms: C_15  and  C_18
REMARK    6  A    between atoms: C_18  and  C_21
REMARK    7  A    between atoms: C_18  and  C_22
REMARK    8  A    between atoms: C_20  and  C_23
REMARK                            x       y       z     vdW  Elec       q    Type
REMARK                         _______ _______ _______ _____ _____    ______ ____
ROOT
ATOM      9  C   UNL     1      -0.985  -0.475  25.648  0.00  0.00    +0.046 C 
ATOM     10  C   UNL     1      -0.816  -1.148  24.266  0.00  0.00    +0.111 C 
ATOM     11  C   UNL     1      -1.318  -2.573  24.500  0.00  0.00    +0.164 C 
ATOM     12  C   UNL     1      -2.071  -1.298  26.387  0.00  0.00    +0.044 C 
ATOM     13  C   UNL     1      -2.531  -2.368  25.399  0.00  0.00    +0.145 C 
ENDROOT
BRANCH   9  14
ATOM      8  N   UNL     1      -2.824   2.770  24.955  0.00  0.00    -0.251 NA
ATOM     14  C   UNL     1      -1.282   1.007  25.552  0.00  0.00    -0.024 A 
ATOM     16  C   UNL     1      -0.341   1.952  25.947  0.00  0.00    +0.007 A 
ATOM     17  C   UNL     1      -2.496   1.462  25.067  0.00  0.00    +0.115 A 
ATOM     19  C   UNL     1      -0.642   3.306  25.846  0.00  0.00    +0.032 A 
ATOM     20  C   UNL     1      -1.886   3.660  25.349  0.00  0.00    +0.144 A 
BRANCH  20  23
ATOM      1  F   UNL     1      -1.159   5.928  25.128  0.00  0.00    -0.164 F 
ATOM      2  F   UNL     1      -3.010   5.387  24.134  0.00  0.00    -0.164 F 
ATOM      3  F   UNL     1      -2.951   5.559  26.301  0.00  0.00    -0.164 F 
ATOM     23  C   UNL     1      -2.243   5.104  25.228  0.00  0.00    +0.434 C 
ENDBRANCH  20  23
ENDBRANCH   9  14
BRANCH  10   7
ATOM      6  O   UNL     1       0.475   0.936  22.760  0.00  0.00    -0.276 OA
ATOM      7  N   UNL     1       0.553  -1.127  23.819  0.00  0.00    -0.309 N 
ATOM     15  C   UNL     1       1.094  -0.073  23.093  0.00  0.00    +0.216 C 
ATOM     24  H   UNL     1       1.156  -1.900  24.088  0.00  0.00    +0.149 HD
BRANCH  15  18
ATOM     18  C   UNL     1       2.563  -0.295  22.738  0.00  0.00    +0.069 C 
ATOM     21  C   UNL     1       3.317   1.032  22.763  0.00  0.00    +0.017 C 
ATOM     22  C   UNL     1       3.214  -1.295  23.691  0.00  0.00    +0.017 C 
ENDBRANCH  15  18
ENDBRANCH  10   7
BRANCH  11   4
ATOM      4  O   UNL     1      -1.678  -3.219  23.294  0.00  0.00    -0.387 OA
ATOM     25  H   UNL     1      -2.633  -3.087  23.166  0.00  0.00    +0.210 HD
ENDBRANCH  11   4
BRANCH  13   5
ATOM      5  O   UNL     1      -3.636  -1.860  24.658  0.00  0.00    -0.389 OA
ATOM     26  H   UNL     1      -4.286  -2.578  24.573  0.00  0.00    +0.210 HD
ENDBRANCH  13   5
TORSDOF 6
ENDMDL
MODEL 3
REMARK VINA RESULT:      -2.7      1.708      3.836
REMARK  Name = 71693984
REMARK  8 active torsions:
REMARK  status: ('A' for Active; 'I' for Inactive)
REMARK    1  A    between atoms: O_4  and  C_11
REMARK    2  A    between atoms: O_5  and  C_13
REMARK    3  A    between atoms: N_7  and  C_10
REMARK    4  A    between atoms: C_9  and  C_14
REMARK    5  A    between atoms: C_15  and  C_18
REMARK    6  A    between atoms: C_18  and  C_21
REMARK    7  A    between atoms: C_18  and  C_22
REMARK    8  A    between atoms: C_20  and  C_23
REMARK                            x       y       z     vdW  Elec       q    Type
REMARK                         _______ _______ _______ _____ _____    ______ ____
ROOT
ATOM      9  C   UNL     1      -1.759  -0.098  23.786  0.00  0.00    +0.046 C 
ATOM     10  C   UNL     1      -2.147   0.158  25.261  0.00  0.00    +0.111 C 
ATOM     11  C   UNL     1      -3.267  -0.850  25.514  0.00  0.00    +0.164 C 
ATOM     12  C   UNL     1      -2.210  -1.548  23.477  0.00  0.00    +0.044 C 
ATOM     13  C   UNL     1      -2.782  -2.097  24.782  0.00  0.00    +0.145 C 
ENDROOT
BRANCH   9  14
ATOM      8  N   UNL     1       1.651   1.564  23.855  0.00  0.00    -0.251 NA
ATOM     14  C   UNL     1      -0.296   0.175  23.504  0.00  0.00    -0.024 A 
ATOM     16  C   UNL     1       0.440  -0.660  22.670  0.00  0.00    +0.007 A 
ATOM     17  C   UNL     1       0.349   1.264  24.066  0.00  0.00    +0.115 A 
ATOM     19  C   UNL     1       1.781  -0.383  22.429  0.00  0.00    +0.032 A 
ATOM     20  C   UNL     1       2.334   0.731  23.039  0.00  0.00    +0.144 A 
BRANCH  20  23
ATOM      1  F   UNL     1       4.010   2.395  22.660  0.00  0.00    -0.164 F 
ATOM      2  F   UNL     1       4.597   0.654  23.814  0.00  0.00    -0.164 F 
ATOM      3  F   UNL     1       4.262   0.474  21.672  0.00  0.00    -0.164 F 
ATOM     23  C   UNL     1       3.771   1.058  22.804  0.00  0.00    +0.434 C 
ENDBRANCH  20  23
ENDBRANCH   9  14
BRANCH  10   7
ATOM      6  O   UNL     1      -3.678   1.785  23.448  0.00  0.00    -0.276 OA
ATOM      7  N   UNL     1      -2.585   1.513  25.477  0.00  0.00    -0.309 N 
ATOM     15  C   UNL     1      -3.325   2.225  24.540  0.00  0.00    +0.216 C 
ATOM     24  H   UNL     1      -2.380   1.945  26.373  0.00  0.00    +0.149 HD
BRANCH  15  18
ATOM     18  C   UNL     1      -3.661   3.640  25.009  0.00  0.00    +0.069 C 
ATOM     21  C   UNL     1      -5.083   3.687  25.564  0.00  0.00    +0.017 C 
ATOM     22  C   UNL     1      -2.663   4.124  26.058  0.00  0.00    +0.017 C 
ENDBRANCH  15  18
ENDBRANCH  10   7
BRANCH  11   4
ATOM      4  O   UNL     1      -3.457  -1.107  26.893  0.00  0.00    -0.387 OA
ATOM     25  H   UNL     1      -4.386  -1.365  27.016  0.00  0.00    +0.210 HD
ENDBRANCH  11   4
BRANCH  13   5
ATOM      5  O   UNL     1      -1.736  -2.737  25.505  0.00  0.00    -0.389 OA
ATOM     26  H   UNL     1      -1.478  -3.530  25.005  0.00  0.00    +0.210 HD
ENDBRANCH  13   5
TORSDOF 6
ENDMDL
MODEL 4
REMARK VINA RESULT:      -2.4      3.928      6.343
REMARK  Name = 71693984
REMARK  8 active torsions:
REMARK  status: ('A' for Active; 'I' for Inactive)
REMARK    1  A    between atoms: O_4  and  C_11
REMARK    2  A    between atoms: O_5  and  C_13
REMARK    3  A    between atoms: N_7  and  C_10
REMARK    4  A    between atoms: C_9  and  C_14
REMARK    5  A    between atoms: C_15  and  C_18
REMARK    6  A    between atoms: C_18  and  C_21
REMARK    7  A    between atoms: C_18  and  C_22
REMARK    8  A    between atoms: C_20  and  C_23
REMARK                            x       y       z     vdW  Elec       q    Type
REMARK                         _______ _______ _______ _____ _____    ______ ____
ROOT
ATOM      9  C   UNL     1      -2.224  -0.925  25.528  0.00  0.00    +0.046 C 
ATOM     10  C   UNL     1      -1.678  -1.480  24.193  0.00  0.00    +0.111 C 
ATOM     11  C   UNL     1      -1.891  -2.988  24.320  0.00  0.00    +0.164 C 
ATOM     12  C   UNL     1      -3.217  -1.993  26.054  0.00  0.00    +0.044 C 
ATOM     13  C   UNL     1      -3.257  -3.088  24.991  0.00  0.00    +0.145 C 
ENDROOT
BRANCH   9  14
ATOM      8  N   UNL     1      -2.494   2.858  25.468  0.00  0.00    -0.251 NA
ATOM     14  C   UNL     1      -2.814   0.463  25.395  0.00  0.00    -0.024 A 
ATOM     16  C   UNL     1      -4.159   0.644  25.092  0.00  0.00    +0.007 A 
ATOM     17  C   UNL     1      -2.031   1.592  25.572  0.00  0.00    +0.115 A 
ATOM     19  C   UNL     1      -4.672   1.931  24.977  0.00  0.00    +0.032 A 
ATOM     20  C   UNL     1      -3.806   2.995  25.173  0.00  0.00    +0.144 A 
BRANCH  20  23
ATOM      1  F   UNL     1      -3.676   5.281  25.866  0.00  0.00    -0.164 F 
ATOM      2  F   UNL     1      -4.214   4.910  23.798  0.00  0.00    -0.164 F 
ATOM      3  F   UNL     1      -5.643   4.490  25.382  0.00  0.00    -0.164 F 
ATOM     23  C   UNL     1      -4.322   4.391  25.056  0.00  0.00    +0.434 C 
ENDBRANCH  20  23
ENDBRANCH   9  14
BRANCH  10   7
ATOM      6  O   UNL     1      -0.630   0.758  22.719  0.00  0.00    -0.276 OA
ATOM      7  N   UNL     1      -0.289  -1.149  23.997  0.00  0.00    -0.309 N 
ATOM     15  C   UNL     1       0.126  -0.042  23.267  0.00  0.00    +0.216 C 
ATOM     24  H   UNL     1       0.409  -1.728  24.453  0.00  0.00    +0.149 HD
BRANCH  15  18
ATOM     18  C   UNL     1       1.648   0.085  23.207  0.00  0.00    +0.069 C 
ATOM     21  C   UNL     1       2.152  -0.297  21.818  0.00  0.00    +0.017 C 
ATOM     22  C   UNL     1       2.097   1.499  23.567  0.00  0.00    +0.017 C 
ENDBRANCH  15  18
ENDBRANCH  10   7
BRANCH  11   4
ATOM      4  O   UNL     1      -1.890  -3.639  23.064  0.00  0.00    -0.387 OA
ATOM     25  H   UNL     1      -1.208  -4.331  23.094  0.00  0.00    +0.210 HD
ENDBRANCH  11   4
BRANCH  13   5
ATOM      5  O   UNL     1      -4.301  -2.791  24.069  0.00  0.00    -0.389 OA
ATOM     26  H   UNL     1      -4.864  -3.581  24.001  0.00  0.00    +0.210 HD
ENDBRANCH  13   5
TORSDOF 6
ENDMDL
MODEL 5
REMARK VINA RESULT:      -2.3      3.418      5.173
REMARK  Name = 71693984
REMARK  8 active torsions:
REMARK  status: ('A' for Active; 'I' for Inactive)
REMARK    1  A    between atoms: O_4  and  C_11
REMARK    2  A    between atoms: O_5  and  C_13
REMARK    3  A    between atoms: N_7  and  C_10
REMARK    4  A    between atoms: C_9  and  C_14
REMARK    5  A    between atoms: C_15  and  C_18
REMARK    6  A    between atoms: C_18  and  C_21
REMARK    7  A    between atoms: C_18  and  C_22
REMARK    8  A    between atoms: C_20  and  C_23
REMARK                            x       y       z     vdW  Elec       q    Type
REMARK                         _______ _______ _______ _____ _____    ______ ____
ROOT
ATOM      9  C   UNL     1      -1.356   1.951  25.940  0.00  0.00    +0.046 C 
ATOM     10  C   UNL     1      -1.971   3.127  25.148  0.00  0.00    +0.111 C 
ATOM     11  C   UNL     1      -0.883   4.199  25.199  0.00  0.00    +0.164 C 
ATOM     12  C   UNL     1       0.179   2.158  25.878  0.00  0.00    +0.044 C 
ATOM     13  C   UNL     1       0.400   3.397  25.013  0.00  0.00    +0.145 C 
ENDROOT
BRANCH   9  14
ATOM      8  N   UNL     1      -3.656  -0.897  24.946  0.00  0.00    -0.251 NA
ATOM     14  C   UNL     1      -1.824   0.597  25.448  0.00  0.00    -0.024 A 
ATOM     16  C   UNL     1      -0.911  -0.377  25.058  0.00  0.00    +0.007 A 
ATOM     17  C   UNL     1      -3.172   0.291  25.374  0.00  0.00    +0.115 A 
ATOM     19  C   UNL     1      -1.371  -1.611  24.612  0.00  0.00    +0.032 A 
ATOM     20  C   UNL     1      -2.741  -1.820  24.575  0.00  0.00    +0.144 A 
BRANCH  20  23
ATOM      1  F   UNL     1      -4.361  -3.018  23.286  0.00  0.00    -0.164 F 
ATOM      2  F   UNL     1      -2.364  -3.860  23.384  0.00  0.00    -0.164 F 
ATOM      3  F   UNL     1      -3.662  -3.940  25.127  0.00  0.00    -0.164 F 
ATOM     23  C   UNL     1      -3.270  -3.132  24.100  0.00  0.00    +0.434 C 
ENDBRANCH  20  23
ENDBRANCH   9  14
BRANCH  10   7
ATOM      6  O   UNL     1      -4.597   2.969  23.984  0.00  0.00    -0.276 OA
ATOM      7  N   UNL     1      -3.205   3.586  25.734  0.00  0.00    -0.309 N 
ATOM     15  C   UNL     1      -4.433   3.468  25.095  0.00  0.00    +0.216 C 
ATOM     24  H   UNL     1      -3.174   3.971  26.674  0.00  0.00    +0.149 HD
BRANCH  15  18
ATOM     18  C   UNL     1      -5.584   4.033  25.926  0.00  0.00    +0.069 C 
ATOM     21  C   UNL     1      -6.211   5.228  25.211  0.00  0.00    +0.017 C 
ATOM     22  C   UNL     1      -6.639   2.965  26.204  0.00  0.00    +0.017 C 
ENDBRANCH  15  18
ENDBRANCH  10   7
BRANCH  11   4
ATOM      4  O   UNL     1      -1.034   5.166  24.178  0.00  0.00    -0.387 OA
ATOM     25  H   UNL     1      -0.216   5.166  23.652  0.00  0.00    +0.210 HD
ENDBRANCH  11   4
BRANCH  13   5
ATOM      5  O   UNL     1       0.553   2.986  23.658  0.00  0.00    -0.389 OA
ATOM     26  H   UNL     1      -0.338   2.843  23.294  0.00  0.00    +0.210 HD
ENDBRANCH  13   5
TORSDOF 6
ENDMDL
MODEL 6
REMARK VINA RESULT:      -2.0      1.785      4.200
REMARK  Name = 71693984
REMARK  8 active torsions:
REMARK  status: ('A' for Active; 'I' for Inactive)
REMARK    1  A    between atoms: O_4  and  C_11
REMARK    2  A    between atoms: O_5  and  C_13
REMARK    3  A    between atoms: N_7  and  C_10
REMARK    4  A    between atoms: C_9  and  C_14
REMARK    5  A    between atoms: C_15  and  C_18
REMARK    6  A    between atoms: C_18  and  C_21
REMARK    7  A    between atoms: C_18  and  C_22
REMARK    8  A    between atoms: C_20  and  C_23
REMARK                            x       y       z     vdW  Elec       q    Type
REMARK                         _______ _______ _______ _____ _____    ______ ____
ROOT
ATOM      9  C   UNL     1      -2.135   0.410  23.543  0.00  0.00    +0.046 C 
ATOM     10  C   UNL     1      -2.574   0.716  24.994  0.00  0.00    +0.111 C 
ATOM     11  C   UNL     1      -3.852  -0.104  25.159  0.00  0.00    +0.164 C 
ATOM     12  C   UNL     1      -2.787  -0.950  23.184  0.00  0.00    +0.044 C 
ATOM     13  C   UNL     1      -3.522  -1.408  24.442  0.00  0.00    +0.145 C 
ENDROOT
BRANCH   9  14
ATOM      8  N   UNL     1       1.362  -0.552  22.428  0.00  0.00    -0.251 NA
ATOM     14  C   UNL     1      -0.632   0.450  23.359  0.00  0.00    -0.024 A 
ATOM     16  C   UNL     1       0.131   1.469  23.918  0.00  0.00    +0.007 A 
ATOM     17  C   UNL     1       0.024  -0.528  22.630  0.00  0.00    +0.115 A 
ATOM     19  C   UNL     1       1.509   1.478  23.732  0.00  0.00    +0.032 A 
ATOM     20  C   UNL     1       2.071   0.454  22.986  0.00  0.00    +0.144 A 
BRANCH  20  23
ATOM      1  F   UNL     1       4.148  -0.711  23.208  0.00  0.00    -0.164 F 
ATOM      2  F   UNL     1       3.905   0.540  21.453  0.00  0.00    -0.164 F 
ATOM      3  F   UNL     1       4.187   1.454  23.406  0.00  0.00    -0.164 F 
ATOM     23  C   UNL     1       3.547   0.433  22.766  0.00  0.00    +0.434 C 
ENDBRANCH  20  23
ENDBRANCH   9  14
BRANCH  10   7
ATOM      6  O   UNL     1      -0.856   2.562  26.379  0.00  0.00    -0.276 OA
ATOM      7  N   UNL     1      -2.807   2.123  25.201  0.00  0.00    -0.309 N 
ATOM     15  C   UNL     1      -1.917   2.942  25.886  0.00  0.00    +0.216 C 
ATOM     24  H   UNL     1      -3.638   2.536  24.788  0.00  0.00    +0.149 HD
BRANCH  15  18
ATOM     18  C   UNL     1      -2.397   4.390  25.971  0.00  0.00    +0.069 C 
ATOM     21  C   UNL     1      -1.512   5.288  25.111  0.00  0.00    +0.017 C 
ATOM     22  C   UNL     1      -3.857   4.512  25.543  0.00  0.00    +0.017 C 
ENDBRANCH  15  18
ENDBRANCH  10   7
BRANCH  11   4
ATOM      4  O   UNL     1      -4.170  -0.334  26.519  0.00  0.00    -0.387 OA
ATOM     25  H   UNL     1      -3.688   0.325  27.046  0.00  0.00    +0.210 HD
ENDBRANCH  11   4
BRANCH  13   5
ATOM      5  O   UNL     1      -2.639  -2.209  25.221  0.00  0.00    -0.389 OA
ATOM     26  H   UNL     1      -2.432  -3.004  24.702  0.00  0.00    +0.210 HD
ENDBRANCH  13   5
TORSDOF 6
ENDMDL
MODEL 7
REMARK VINA RESULT:      -1.0      3.454      5.682
REMARK  Name = 71693984
REMARK  8 active torsions:
REMARK  status: ('A' for Active; 'I' for Inactive)
REMARK    1  A    between atoms: O_4  and  C_11
REMARK    2  A    between atoms: O_5  and  C_13
REMARK    3  A    between atoms: N_7  and  C_10
REMARK    4  A    between atoms: C_9  and  C_14
REMARK    5  A    between atoms: C_15  and  C_18
REMARK    6  A    between atoms: C_18  and  C_21
REMARK    7  A    between atoms: C_18  and  C_22
REMARK    8  A    between atoms: C_20  and  C_23
REMARK                            x       y       z     vdW  Elec       q    Type
REMARK                         _______ _______ _______ _____ _____    ______ ____
ROOT
ATOM      9  C   UNL     1      -1.770   2.288  23.737  0.00  0.00    +0.046 C 
ATOM     10  C   UNL     1      -0.408   2.484  24.442  0.00  0.00    +0.111 C 
ATOM     11  C   UNL     1      -0.428   3.956  24.853  0.00  0.00    +0.164 C 
ATOM     12  C   UNL     1      -2.693   3.407  24.286  0.00  0.00    +0.044 C 
ATOM     13  C   UNL     1      -1.863   4.165  25.321  0.00  0.00    +0.145 C 
ENDROOT
BRANCH   9  14
ATOM      8  N   UNL     1      -1.995  -1.390  24.637  0.00  0.00    -0.251 NA
ATOM     14  C   UNL     1      -2.323   0.888  23.897  0.00  0.00    -0.024 A 
ATOM     16  C   UNL     1      -3.611   0.574  23.476  0.00  0.00    +0.007 A 
ATOM     17  C   UNL     1      -1.563  -0.120  24.466  0.00  0.00    +0.115 A 
ATOM     19  C   UNL     1      -4.091  -0.721  23.635  0.00  0.00    +0.032 A 
ATOM     20  C   UNL     1      -3.251  -1.658  24.216  0.00  0.00    +0.144 A 
BRANCH  20  23
ATOM      1  F   UNL     1      -2.969  -3.989  23.760  0.00  0.00    -0.164 F 
ATOM      2  F   UNL     1      -3.761  -3.457  25.709  0.00  0.00    -0.164 F 
ATOM      3  F   UNL     1      -5.003  -3.241  23.937  0.00  0.00    -0.164 F 
ATOM     23  C   UNL     1      -3.734  -3.058  24.403  0.00  0.00    +0.434 C 
ENDBRANCH  20  23
ENDBRANCH   9  14
BRANCH  10   7
ATOM      6  O   UNL     1       1.000  -0.017  24.241  0.00  0.00    -0.276 OA
ATOM      7  N   UNL     1       0.700   2.184  23.571  0.00  0.00    -0.309 N 
ATOM     15  C   UNL     1       1.321   0.942  23.540  0.00  0.00    +0.216 C 
ATOM     24  H   UNL     1       1.005   2.903  22.921  0.00  0.00    +0.149 HD
BRANCH  15  18
ATOM     18  C   UNL     1       2.469   0.883  22.534  0.00  0.00    +0.069 C 
ATOM     21  C   UNL     1       3.803   0.756  23.265  0.00  0.00    +0.017 C 
ATOM     22  C   UNL     1       2.285  -0.275  21.556  0.00  0.00    +0.017 C 
ENDBRANCH  15  18
ENDBRANCH  10   7
BRANCH  11   4
ATOM      4  O   UNL     1       0.494   4.236  25.890  0.00  0.00    -0.387 OA
ATOM     25  H   UNL     1      -0.009   4.292  26.720  0.00  0.00    +0.210 HD
ENDBRANCH  11   4
BRANCH  13   5
ATOM      5  O   UNL     1      -2.075   3.572  26.598  0.00  0.00    -0.389 OA
ATOM     26  H   UNL     1      -1.207   3.296  26.940  0.00  0.00    +0.210 HD
ENDBRANCH  13   5
TORSDOF 6
ENDMDL
MODEL 8
REMARK VINA RESULT:      -0.9     16.027     17.276
REMARK  Name = 71693984
REMARK  8 active torsions:
REMARK  status: ('A' for Active; 'I' for Inactive)
REMARK    1  A    between atoms: O_4  and  C_11
REMARK    2  A    between atoms: O_5  and  C_13
REMARK    3  A    between atoms: N_7  and  C_10
REMARK    4  A    between atoms: C_9  and  C_14
REMARK    5  A    between atoms: C_15  and  C_18
REMARK    6  A    between atoms: C_18  and  C_21
REMARK    7  A    between atoms: C_18  and  C_22
REMARK    8  A    between atoms: C_20  and  C_23
REMARK                            x       y       z     vdW  Elec       q    Type
REMARK                         _______ _______ _______ _____ _____    ______ ____
ROOT
ATOM      9  C   UNL     1      -6.959  -8.912  11.173  0.00  0.00    +0.046 C 
ATOM     10  C   UNL     1      -7.826 -10.175  10.965  0.00  0.00    +0.111 C 
ATOM     11  C   UNL     1      -8.916  -9.704  10.003  0.00  0.00    +0.164 C 
ATOM     12  C   UNL     1      -7.211  -8.019   9.931  0.00  0.00    +0.044 C 
ATOM     13  C   UNL     1      -8.155  -8.811   9.030  0.00  0.00    +0.145 C 
ENDROOT
BRANCH   9  14
ATOM      8  N   UNL     1      -3.192  -9.029  10.740  0.00  0.00    -0.251 NA
ATOM     14  C   UNL     1      -5.501  -9.231  11.428  0.00  0.00    -0.024 A 
ATOM     16  C   UNL     1      -5.115  -9.989  12.528  0.00  0.00    +0.007 A 
ATOM     17  C   UNL     1      -4.511  -8.779  10.572  0.00  0.00    +0.115 A 
ATOM     19  C   UNL     1      -3.768 -10.266  12.735  0.00  0.00    +0.032 A 
ATOM     20  C   UNL     1      -2.854  -9.768  11.821  0.00  0.00    +0.144 A 
BRANCH  20  23
ATOM      1  F   UNL     1      -0.636  -8.917  12.093  0.00  0.00    -0.164 F 
ATOM      2  F   UNL     1      -1.123 -10.748  13.149  0.00  0.00    -0.164 F 
ATOM      3  F   UNL     1      -0.868 -10.776  10.990  0.00  0.00    -0.164 F 
ATOM     23  C   UNL     1      -1.400 -10.045  12.012  0.00  0.00    +0.434 C 
ENDBRANCH  20  23
ENDBRANCH   9  14
BRANCH  10   7
ATOM      6  O   UNL     1      -9.280  -8.649  12.924  0.00  0.00    -0.276 OA
ATOM      7  N   UNL     1      -8.377 -10.662  12.204  0.00  0.00    -0.309 N 
ATOM     15  C   UNL     1      -9.068  -9.849  13.094  0.00  0.00    +0.216 C 
ATOM     24  H   UNL     1      -8.292 -11.654  12.408  0.00  0.00    +0.149 HD
BRANCH  15  18
ATOM     18  C   UNL     1      -9.547 -10.605  14.332  0.00  0.00    +0.069 C 
ATOM     21  C   UNL     1      -8.396 -10.775  15.321  0.00  0.00    +0.017 C 
ATOM     22  C   UNL     1     -10.720  -9.888  14.996  0.00  0.00    +0.017 C 
ENDBRANCH  15  18
ENDBRANCH  10   7
BRANCH  11   4
ATOM      4  O   UNL     1      -9.539 -10.781   9.329  0.00  0.00    -0.387 OA
ATOM     25  H   UNL     1      -9.862 -10.444   8.476  0.00  0.00    +0.210 HD
ENDBRANCH  11   4
BRANCH  13   5
ATOM      5  O   UNL     1      -7.378  -9.588   8.125  0.00  0.00    -0.389 OA
ATOM     26  H   UNL     1      -7.991 -10.004   7.495  0.00  0.00    +0.210 HD
ENDBRANCH  13   5
TORSDOF 6
ENDMDL
