MODEL 1
REMARK VINA RESULT:      -2.9      0.000      0.000
REMARK  Name = 45784427
REMARK  11 active torsions:
REMARK  status: ('A' for Active; 'I' for Inactive)
REMARK    1  A    between atoms: O_3  and  C_12
REMARK    2  A    between atoms: N_6  and  C_16
REMARK    3  A    between atoms: N_7  and  C_25
REMARK    4  A    between atoms: N_8  and  C_26
REMARK    5  A    between atoms: C_9  and  C_19
REMARK    6  A    between atoms: C_11  and  C_21
REMARK    7  A    between atoms: C_15  and  C_20
REMARK    8  A    between atoms: C_20  and  C_22
REMARK    9  A    between atoms: C_20  and  C_23
REMARK   10  A    between atoms: C_25  and  C_27
REMARK   11  A    between atoms: C_26  and  C_28
REMARK                            x       y       z     vdW  Elec       q    Type
REMARK                         _______ _______ _______ _____ _____    ______ ____
ROOT
ATOM      9  C   UNL     1      -2.246  -0.733  24.968  0.00  0.00    -0.027 C 
ATOM     10  C   UNL     1      -2.445   0.452  23.968  0.00  0.00    +0.028 C 
ATOM     11  C   UNL     1      -1.085   1.187  23.691  0.00  0.00    +0.012 C 
ATOM     12  C   UNL     1      -3.623   1.370  24.409  0.00  0.00    +0.122 C 
ATOM     13  C   UNL     1      -3.579  -1.503  25.130  0.00  0.00    +0.007 C 
ATOM     14  C   UNL     1      -1.203  -1.716  24.385  0.00  0.00    +0.009 C 
ATOM     15  C   UNL     1      -4.927   0.580  24.669  0.00  0.00    +0.029 C 
ATOM     16  C   UNL     1      -0.022   0.176  23.177  0.00  0.00    +0.078 C 
ATOM     17  C   UNL     1      -4.723  -0.616  25.599  0.00  0.00    +0.007 C 
ATOM     18  C   UNL     1       0.132  -1.053  24.072  0.00  0.00    +0.023 C 
ATOM     19  C   UNL     1      -1.773  -0.258  26.366  0.00  0.00    +0.011 C 
ATOM     21  C   UNL     1      -1.204   2.348  22.691  0.00  0.00    +0.010 C 
ENDROOT
BRANCH  16   6
ATOM      5  O   UNL     1       2.539  -1.152  23.084  0.00  0.00    -0.253 OA
ATOM      6  N   UNL     1       1.277   0.795  23.022  0.00  0.00    -0.296 N 
ATOM      8  N   UNL     1       3.562   0.915  22.831  0.00  0.00    -0.300 N 
ATOM     24  C   UNL     1       2.464   0.072  22.988  0.00  0.00    +0.300 C 
ATOM     34  H   UNL     1       1.330   1.810  23.017  0.00  0.00    +0.151 HD
ATOM     37  H   UNL     1       3.403   1.914  22.747  0.00  0.00    +0.150 HD
BRANCH   8  26
ATOM     26  C   UNL     1       4.919   0.427  22.765  0.00  0.00    +0.102 C 
ATOM     28  C   UNL     1       5.433   0.031  24.134  0.00  0.00    +0.024 C 
ENDBRANCH   8  26
ENDBRANCH  16   6
BRANCH  12   3
ATOM      3  O   UNL     1      -3.913   2.305  23.369  0.00  0.00    -0.391 OA
ATOM     35  H   UNL     1      -3.848   1.841  22.517  0.00  0.00    +0.210 HD
ENDBRANCH  12   3
BRANCH  15  20
ATOM     20  C   UNL     1      -6.035   1.480  25.227  0.00  0.00    +0.077 C 
ATOM     22  C   UNL     1      -7.195   1.559  24.241  0.00  0.00    +0.017 C 
BRANCH  20  23
ATOM      4  O   UNL     1      -5.988   3.899  25.118  0.00  0.00    -0.276 OA
ATOM      7  N   UNL     1      -4.338   2.812  26.333  0.00  0.00    -0.311 N 
ATOM     23  C   UNL     1      -5.474   2.864  25.538  0.00  0.00    +0.216 C 
ATOM     36  H   UNL     1      -4.006   1.919  26.682  0.00  0.00    +0.149 HD
BRANCH   7  25
ATOM     25  C   UNL     1      -3.625   3.994  26.757  0.00  0.00    +0.139 C 
BRANCH  25  27
ATOM      1  F   UNL     1       0.904   2.230  26.363  0.00  0.00    -0.205 F 
ATOM      2  F   UNL     1      -0.286   6.083  23.881  0.00  0.00    -0.205 F 
ATOM     27  C   UNL     1      -2.240   4.052  26.182  0.00  0.00    -0.025 A 
ATOM     29  C   UNL     1      -1.900   5.062  25.281  0.00  0.00    +0.043 A 
ATOM     30  C   UNL     1      -1.293   3.095  26.548  0.00  0.00    +0.043 A 
ATOM     31  C   UNL     1      -0.006   3.148  26.012  0.00  0.00    +0.126 A 
ATOM     32  C   UNL     1      -0.613   5.115  24.747  0.00  0.00    +0.126 A 
ATOM     33  C   UNL     1       0.335   4.159  25.112  0.00  0.00    +0.076 A 
ENDBRANCH  25  27
ENDBRANCH   7  25
ENDBRANCH  20  23
ENDBRANCH  15  20
TORSDOF 7
ENDMDL
MODEL 2
REMARK VINA RESULT:       0.4      2.296      4.238
REMARK  Name = 45784427
REMARK  11 active torsions:
REMARK  status: ('A' for Active; 'I' for Inactive)
REMARK    1  A    between atoms: O_3  and  C_12
REMARK    2  A    between atoms: N_6  and  C_16
REMARK    3  A    between atoms: N_7  and  C_25
REMARK    4  A    between atoms: N_8  and  C_26
REMARK    5  A    between atoms: C_9  and  C_19
REMARK    6  A    between atoms: C_11  and  C_21
REMARK    7  A    between atoms: C_15  and  C_20
REMARK    8  A    between atoms: C_20  and  C_22
REMARK    9  A    between atoms: C_20  and  C_23
REMARK   10  A    between atoms: C_25  and  C_27
REMARK   11  A    between atoms: C_26  and  C_28
REMARK                            x       y       z     vdW  Elec       q    Type
REMARK                         _______ _______ _______ _____ _____    ______ ____
ROOT
ATOM      9  C   UNL     1      -2.283   1.706  22.490  0.00  0.00    -0.027 C 
ATOM     10  C   UNL     1      -1.512   2.262  23.733  0.00  0.00    +0.028 C 
ATOM     11  C   UNL     1      -0.393   1.259  24.192  0.00  0.00    +0.012 C 
ATOM     12  C   UNL     1      -2.495   2.722  24.847  0.00  0.00    +0.122 C 
ATOM     13  C   UNL     1      -3.297   2.766  21.996  0.00  0.00    +0.007 C 
ATOM     14  C   UNL     1      -1.276   1.449  21.345  0.00  0.00    +0.009 C 
ATOM     15  C   UNL     1      -3.572   3.701  24.324  0.00  0.00    +0.029 C 
ATOM     16  C   UNL     1       0.570   0.949  23.011  0.00  0.00    +0.078 C 
ATOM     17  C   UNL     1      -4.286   3.188  23.073  0.00  0.00    +0.007 C 
ATOM     18  C   UNL     1      -0.151   0.503  21.740  0.00  0.00    +0.023 C 
ATOM     19  C   UNL     1      -3.046   0.394  22.803  0.00  0.00    +0.011 C 
ATOM     21  C   UNL     1       0.425   1.757  25.394  0.00  0.00    +0.010 C 
ENDROOT
BRANCH  16   6
ATOM      5  O   UNL     1       3.432   1.102  22.676  0.00  0.00    -0.253 OA
ATOM      6  N   UNL     1       1.545  -0.061  23.365  0.00  0.00    -0.296 N 
ATOM      8  N   UNL     1       3.617  -1.021  23.594  0.00  0.00    -0.300 N 
ATOM     24  C   UNL     1       2.911   0.101  23.165  0.00  0.00    +0.300 C 
ATOM     34  H   UNL     1       1.209  -0.959  23.701  0.00  0.00    +0.151 HD
ATOM     37  H   UNL     1       3.103  -1.797  23.998  0.00  0.00    +0.150 HD
BRANCH   8  26
ATOM     26  C   UNL     1       5.054  -1.123  23.503  0.00  0.00    +0.102 C 
ATOM     28  C   UNL     1       5.738   0.015  24.235  0.00  0.00    +0.024 C 
ENDBRANCH   8  26
ENDBRANCH  16   6
BRANCH  12   3
ATOM      3  O   UNL     1      -1.772   3.416  25.865  0.00  0.00    -0.391 OA
ATOM     35  H   UNL     1      -1.615   2.798  26.599  0.00  0.00    +0.210 HD
ENDBRANCH  12   3
BRANCH  15  20
ATOM     20  C   UNL     1      -4.607   4.039  25.403  0.00  0.00    +0.077 C 
ATOM     22  C   UNL     1      -3.957   4.850  26.518  0.00  0.00    +0.017 C 
BRANCH  20  23
ATOM      4  O   UNL     1      -6.212   2.758  26.687  0.00  0.00    -0.276 OA
ATOM      7  N   UNL     1      -4.582   1.617  25.495  0.00  0.00    -0.311 N 
ATOM     23  C   UNL     1      -5.235   2.756  25.941  0.00  0.00    +0.216 C 
ATOM     36  H   UNL     1      -3.813   1.698  24.838  0.00  0.00    +0.149 HD
BRANCH   7  25
ATOM     25  C   UNL     1      -4.991   0.284  25.872  0.00  0.00    +0.139 C 
BRANCH  25  27
ATOM      1  F   UNL     1      -3.741  -3.796  23.509  0.00  0.00    -0.205 F 
ATOM      2  F   UNL     1      -0.452  -1.493  26.020  0.00  0.00    -0.205 F 
ATOM     27  C   UNL     1      -3.972  -0.748  25.483  0.00  0.00    -0.025 A 
ATOM     29  C   UNL     1      -2.659  -0.640  25.942  0.00  0.00    +0.043 A 
ATOM     30  C   UNL     1      -4.338  -1.814  24.660  0.00  0.00    +0.043 A 
ATOM     31  C   UNL     1      -3.390  -2.771  24.298  0.00  0.00    +0.126 A 
ATOM     32  C   UNL     1      -1.713  -1.597  25.580  0.00  0.00    +0.126 A 
ATOM     33  C   UNL     1      -2.077  -2.664  24.758  0.00  0.00    +0.076 A 
ENDBRANCH  25  27
ENDBRANCH   7  25
ENDBRANCH  20  23
ENDBRANCH  15  20
TORSDOF 7
ENDMDL
