MODEL 1
REMARK VINA RESULT:       3.8      0.000      0.000
REMARK  Name = 7663613
REMARK  8 active torsions:
REMARK  status: ('A' for Active; 'I' for Inactive)
REMARK    1  A    between atoms: O_6  and  C_26
REMARK    2  A    between atoms: O_6  and  C_33
REMARK    3  A    between atoms: N_10  and  C_19
REMARK    4  A    between atoms: C_11  and  C_15
REMARK    5  A    between atoms: C_16  and  C_18
REMARK    6  A    between atoms: C_17  and  C_20
REMARK    7  A    between atoms: C_19  and  C_21
REMARK    8  A    between atoms: C_19  and  C_26
REMARK                            x       y       z     vdW  Elec       q    Type
REMARK                         _______ _______ _______ _____ _____    ______ ____
ROOT
ATOM      4  O   UNL     1       1.857   0.581  21.564  0.00  0.00    -0.270 OA
ATOM      5  O   UNL     1      -2.529  -1.361  26.907  0.00  0.00    -0.270 OA
ATOM      8  N   UNL     1       0.752  -0.142  23.499  0.00  0.00    -0.283 N 
ATOM      9  N   UNL     1      -1.639  -1.014  24.774  0.00  0.00    -0.294 N 
ATOM     11  C   UNL     1      -0.538   0.421  23.080  0.00  0.00    +0.179 C 
ATOM     12  C   UNL     1      -1.733  -0.471  23.414  0.00  0.00    +0.140 C 
ATOM     13  C   UNL     1       0.800  -0.766  24.833  0.00  0.00    +0.128 C 
ATOM     14  C   UNL     1      -0.383  -1.698  25.060  0.00  0.00    +0.127 C 
ATOM     16  C   UNL     1       1.872   0.063  22.680  0.00  0.00    +0.247 C 
ATOM     17  C   UNL     1      -2.617  -0.914  25.765  0.00  0.00    +0.247 C 
ENDROOT
BRANCH  16  18
ATOM      1  F   UNL     1       6.467   1.068  23.858  0.00  0.00    -0.205 F 
ATOM     18  C   UNL     1       3.189  -0.355  23.182  0.00  0.00    +0.040 A 
ATOM     22  C   UNL     1       4.225   0.574  23.284  0.00  0.00    +0.051 A 
ATOM     23  C   UNL     1       3.403  -1.682  23.555  0.00  0.00    +0.013 A 
ATOM     27  C   UNL     1       5.473   0.177  23.759  0.00  0.00    +0.124 A 
ATOM     28  C   UNL     1       4.652  -2.079  24.032  0.00  0.00    +0.004 A 
ATOM     31  C   UNL     1       5.688  -1.150  24.134  0.00  0.00    +0.038 A 
ENDBRANCH  16  18
BRANCH  17  20
ATOM      2  F   UNL     1      -6.268   2.035  26.980  0.00  0.00    -0.205 F 
ATOM     20  C   UNL     1      -3.868  -0.220  25.434  0.00  0.00    +0.040 A 
ATOM     24  C   UNL     1      -4.486   0.595  26.383  0.00  0.00    +0.051 A 
ATOM     25  C   UNL     1      -4.438  -0.374  24.170  0.00  0.00    +0.013 A 
ATOM     29  C   UNL     1      -5.675   1.254  26.069  0.00  0.00    +0.124 A 
ATOM     30  C   UNL     1      -5.626   0.285  23.856  0.00  0.00    +0.004 A 
ATOM     32  C   UNL     1      -6.245   1.099  24.805  0.00  0.00    +0.038 A 
ENDBRANCH  17  20
BRANCH  11  15
ATOM      3  O   UNL     1       0.346   2.376  24.130  0.00  0.00    -0.274 OA
ATOM     10  N   UNL     1      -1.960   2.175  23.880  0.00  0.00    -0.301 N 
ATOM     15  C   UNL     1      -0.646   1.761  23.746  0.00  0.00    +0.236 C 
ATOM     34  H   UNL     1      -2.701   1.609  23.476  0.00  0.00    +0.150 HD
BRANCH  10  19
ATOM     19  C   UNL     1      -2.336   3.421  24.510  0.00  0.00    +0.179 C 
ATOM     21  C   UNL     1      -1.969   3.399  25.986  0.00  0.00    +0.040 C 
BRANCH  19  26
ATOM      7  O   UNL     1      -4.411   3.533  23.280  0.00  0.00    -0.249 OA
ATOM     26  C   UNL     1      -3.818   3.718  24.337  0.00  0.00    +0.327 C 
BRANCH  26   6
ATOM      6  O   UNL     1      -4.386   4.194  25.481  0.00  0.00    -0.467 OA
ATOM     33  C   UNL     1      -5.743   4.633  25.366  0.00  0.00    +0.280 C 
ENDBRANCH  26   6
ENDBRANCH  19  26
ENDBRANCH  10  19
ENDBRANCH  11  15
TORSDOF 6
ENDMDL
MODEL 2
REMARK VINA RESULT:       3.8      1.538      1.965
REMARK  Name = 7663613
REMARK  8 active torsions:
REMARK  status: ('A' for Active; 'I' for Inactive)
REMARK    1  A    between atoms: O_6  and  C_26
REMARK    2  A    between atoms: O_6  and  C_33
REMARK    3  A    between atoms: N_10  and  C_19
REMARK    4  A    between atoms: C_11  and  C_15
REMARK    5  A    between atoms: C_16  and  C_18
REMARK    6  A    between atoms: C_17  and  C_20
REMARK    7  A    between atoms: C_19  and  C_21
REMARK    8  A    between atoms: C_19  and  C_26
REMARK                            x       y       z     vdW  Elec       q    Type
REMARK                         _______ _______ _______ _____ _____    ______ ____
ROOT
ATOM      4  O   UNL     1       2.804   1.985  22.476  0.00  0.00    -0.270 OA
ATOM      5  O   UNL     1      -2.706  -1.654  25.295  0.00  0.00    -0.270 OA
ATOM      8  N   UNL     1       1.278   0.551  23.524  0.00  0.00    -0.283 N 
ATOM      9  N   UNL     1      -1.398  -0.365  23.849  0.00  0.00    -0.294 N 
ATOM     11  C   UNL     1       0.167   1.505  23.410  0.00  0.00    +0.179 C 
ATOM     12  C   UNL     1      -1.170   0.852  23.062  0.00  0.00    +0.140 C 
ATOM     13  C   UNL     1       0.998  -0.707  24.240  0.00  0.00    +0.128 C 
ATOM     14  C   UNL     1      -0.311  -1.335  23.782  0.00  0.00    +0.127 C 
ATOM     16  C   UNL     1       2.547   0.941  23.074  0.00  0.00    +0.247 C 
ATOM     17  C   UNL     1      -2.525  -0.637  24.628  0.00  0.00    +0.247 C 
ENDROOT
BRANCH  16  18
ATOM      1  F   UNL     1       7.317   0.181  23.493  0.00  0.00    -0.205 F 
ATOM     18  C   UNL     1       3.686   0.051  23.341  0.00  0.00    +0.040 A 
ATOM     22  C   UNL     1       4.988   0.549  23.289  0.00  0.00    +0.051 A 
ATOM     23  C   UNL     1       3.463  -1.292  23.646  0.00  0.00    +0.013 A 
ATOM     27  C   UNL     1       6.067  -0.296  23.542  0.00  0.00    +0.124 A 
ATOM     28  C   UNL     1       4.544  -2.137  23.900  0.00  0.00    +0.004 A 
ATOM     31  C   UNL     1       5.846  -1.639  23.848  0.00  0.00    +0.038 A 
ENDBRANCH  16  18
BRANCH  17  20
ATOM      2  F   UNL     1      -4.441   3.566  23.155  0.00  0.00    -0.205 F 
ATOM     20  C   UNL     1      -3.597   0.365  24.666  0.00  0.00    +0.040 A 
ATOM     24  C   UNL     1      -3.508   1.512  23.876  0.00  0.00    +0.051 A 
ATOM     25  C   UNL     1      -4.705   0.171  25.491  0.00  0.00    +0.013 A 
ATOM     29  C   UNL     1      -4.527   2.465  23.913  0.00  0.00    +0.124 A 
ATOM     30  C   UNL     1      -5.723   1.123  25.527  0.00  0.00    +0.004 A 
ATOM     32  C   UNL     1      -5.634   2.270  24.739  0.00  0.00    +0.038 A 
ENDBRANCH  17  20
BRANCH  11  15
ATOM      3  O   UNL     1       0.990   2.128  25.565  0.00  0.00    -0.274 OA
ATOM     10  N   UNL     1      -1.059   2.974  24.854  0.00  0.00    -0.301 N 
ATOM     15  C   UNL     1       0.102   2.229  24.724  0.00  0.00    +0.236 C 
ATOM     34  H   UNL     1      -1.702   3.029  24.069  0.00  0.00    +0.150 HD
BRANCH  10  19
ATOM     19  C   UNL     1      -1.374   3.745  26.035  0.00  0.00    +0.179 C 
ATOM     21  C   UNL     1      -1.723   2.822  27.192  0.00  0.00    +0.040 C 
BRANCH  19  26
ATOM      7  O   UNL     1      -3.633   4.573  26.240  0.00  0.00    -0.249 OA
ATOM     26  C   UNL     1      -2.506   4.730  25.783  0.00  0.00    +0.327 C 
BRANCH  26   6
ATOM      6  O   UNL     1      -2.113   5.783  25.012  0.00  0.00    -0.467 OA
ATOM     33  C   UNL     1      -0.739   5.783  24.611  0.00  0.00    +0.280 C 
ENDBRANCH  26   6
ENDBRANCH  19  26
ENDBRANCH  10  19
ENDBRANCH  11  15
TORSDOF 6
ENDMDL
MODEL 3
REMARK VINA RESULT:       6.6      1.888      4.291
REMARK  Name = 7663613
REMARK  8 active torsions:
REMARK  status: ('A' for Active; 'I' for Inactive)
REMARK    1  A    between atoms: O_6  and  C_26
REMARK    2  A    between atoms: O_6  and  C_33
REMARK    3  A    between atoms: N_10  and  C_19
REMARK    4  A    between atoms: C_11  and  C_15
REMARK    5  A    between atoms: C_16  and  C_18
REMARK    6  A    between atoms: C_17  and  C_20
REMARK    7  A    between atoms: C_19  and  C_21
REMARK    8  A    between atoms: C_19  and  C_26
REMARK                            x       y       z     vdW  Elec       q    Type
REMARK                         _______ _______ _______ _____ _____    ______ ____
ROOT
ATOM      4  O   UNL     1       0.713  -1.015  24.866  0.00  0.00    -0.270 OA
ATOM      5  O   UNL     1      -2.575   5.282  23.824  0.00  0.00    -0.270 OA
ATOM      8  N   UNL     1      -0.087   1.099  24.256  0.00  0.00    -0.283 N 
ATOM      9  N   UNL     1      -1.685   3.379  24.850  0.00  0.00    -0.294 N 
ATOM     11  C   UNL     1      -1.353   0.927  24.979  0.00  0.00    +0.179 C 
ATOM     12  C   UNL     1      -1.826   2.190  25.698  0.00  0.00    +0.140 C 
ATOM     13  C   UNL     1       0.071   2.346  23.485  0.00  0.00    +0.128 C 
ATOM     14  C   UNL     1      -0.348   3.565  24.296  0.00  0.00    +0.127 C 
ATOM     16  C   UNL     1       0.824   0.033  24.232  0.00  0.00    +0.247 C 
ATOM     17  C   UNL     1      -2.697   4.292  24.544  0.00  0.00    +0.247 C 
ENDROOT
BRANCH  16  18
ATOM      1  F   UNL     1       5.540   0.987  23.635  0.00  0.00    -0.205 F 
ATOM     18  C   UNL     1       2.011   0.149  23.373  0.00  0.00    +0.040 A 
ATOM     22  C   UNL     1       3.238   0.521  23.923  0.00  0.00    +0.051 A 
ATOM     23  C   UNL     1       1.910  -0.114  22.007  0.00  0.00    +0.013 A 
ATOM     27  C   UNL     1       4.363   0.630  23.108  0.00  0.00    +0.124 A 
ATOM     28  C   UNL     1       3.036  -0.005  21.191  0.00  0.00    +0.004 A 
ATOM     31  C   UNL     1       4.263   0.367  21.741  0.00  0.00    +0.038 A 
ENDBRANCH  16  18
BRANCH  17  20
ATOM      2  F   UNL     1      -6.008   1.363  26.533  0.00  0.00    -0.205 F 
ATOM     20  C   UNL     1      -4.026   4.069  25.125  0.00  0.00    +0.040 A 
ATOM     24  C   UNL     1      -4.393   2.796  25.563  0.00  0.00    +0.051 A 
ATOM     25  C   UNL     1      -4.924   5.131  25.239  0.00  0.00    +0.013 A 
ATOM     29  C   UNL     1      -5.657   2.585  26.113  0.00  0.00    +0.124 A 
ATOM     30  C   UNL     1      -6.188   4.919  25.789  0.00  0.00    +0.004 A 
ATOM     32  C   UNL     1      -6.554   3.647  26.227  0.00  0.00    +0.038 A 
ENDBRANCH  17  20
BRANCH  11  15
ATOM      3  O   UNL     1      -2.386   0.925  22.825  0.00  0.00    -0.274 OA
ATOM     10  N   UNL     1      -3.212  -0.498  24.472  0.00  0.00    -0.301 N 
ATOM     15  C   UNL     1      -2.355   0.462  23.962  0.00  0.00    +0.236 C 
ATOM     34  H   UNL     1      -3.060  -0.847  25.414  0.00  0.00    +0.150 HD
BRANCH  10  19
ATOM     19  C   UNL     1      -4.282  -1.091  23.702  0.00  0.00    +0.179 C 
ATOM     21  C   UNL     1      -5.623  -0.513  24.128  0.00  0.00    +0.040 C 
BRANCH  19  26
ATOM      7  O   UNL     1      -4.997  -3.322  23.118  0.00  0.00    -0.249 OA
ATOM     26  C   UNL     1      -4.295  -2.607  23.826  0.00  0.00    +0.327 C 
BRANCH  26   6
ATOM      6  O   UNL     1      -3.444  -3.054  24.792  0.00  0.00    -0.467 OA
ATOM     33  C   UNL     1      -2.057  -3.069  24.441  0.00  0.00    +0.280 C 
ENDBRANCH  26   6
ENDBRANCH  19  26
ENDBRANCH  10  19
ENDBRANCH  11  15
TORSDOF 6
ENDMDL
