MODEL 1
REMARK VINA RESULT:      -1.9      0.000      0.000
REMARK  Name = 7685235
REMARK  5 active torsions:
REMARK  status: ('A' for Active; 'I' for Inactive)
REMARK    1  A    between atoms: O_4  and  C_21
REMARK    2  A    between atoms: O_4  and  C_25
REMARK    3  A    between atoms: C_14  and  C_19
REMARK    4  A    between atoms: C_16  and  C_20
REMARK    5  A    between atoms: C_20  and  C_21
REMARK                            x       y       z     vdW  Elec       q    Type
REMARK                         _______ _______ _______ _____ _____    ______ ____
ROOT
ATOM      2  O   UNL     1      -2.297   4.474  26.888  0.00  0.00    -0.268 OA
ATOM      3  O   UNL     1      -5.296   0.239  25.994  0.00  0.00    -0.276 OA
ATOM      5  N   UNL     1      -4.054   0.734  24.094  0.00  0.00    -0.300 N 
ATOM      6  N   UNL     1      -2.208   3.186  24.934  0.00  0.00    -0.311 N 
ATOM      7  C   UNL     1      -4.182   3.091  23.301  0.00  0.00    +0.027 C 
ATOM      8  C   UNL     1      -2.158   1.769  22.858  0.00  0.00    +0.054 C 
ATOM      9  C   UNL     1      -3.116   2.795  22.257  0.00  0.00    +0.018 C 
ATOM     10  C   UNL     1      -4.949   1.812  23.676  0.00  0.00    +0.113 C 
ATOM     11  C   UNL     1      -3.508   3.730  24.515  0.00  0.00    +0.130 C 
ATOM     12  C   UNL     1      -2.931   0.474  23.185  0.00  0.00    +0.117 C 
ATOM     13  C   UNL     1      -1.471   2.308  24.116  0.00  0.00    +0.035 A 
ATOM     14  C   UNL     1      -0.210   1.950  24.474  0.00  0.00    +0.009 A 
ATOM     15  C   UNL     1      -1.702   3.696  26.144  0.00  0.00    +0.252 A 
ATOM     16  C   UNL     1      -4.345   0.001  25.245  0.00  0.00    +0.218 C 
ATOM     17  C   UNL     1       0.344   2.452  25.717  0.00  0.00    +0.016 A 
ATOM     18  C   UNL     1      -0.340   3.260  26.526  0.00  0.00    +0.071 A 
ENDROOT
BRANCH  14  19
ATOM      1  S   UNL     1       2.240   1.453  23.308  0.00  0.00    -0.097 S 
ATOM     19  C   UNL     1       0.610   1.044  23.638  0.00  0.00    +0.021 A 
ATOM     22  C   UNL     1       0.245  -0.145  23.049  0.00  0.00    +0.016 A 
ATOM     23  C   UNL     1       1.318  -0.731  22.317  0.00  0.00    +0.008 A 
ATOM     24  C   UNL     1       2.462   0.034  22.374  0.00  0.00    +0.046 A 
ENDBRANCH  14  19
BRANCH  16  20
ATOM     20  C   UNL     1      -3.417  -1.141  25.571  0.00  0.00    +0.124 C 
BRANCH  20  21
ATOM     21  C   UNL     1      -3.750  -2.330  24.695  0.00  0.00    +0.168 C 
BRANCH  21   4
ATOM      4  O   UNL     1      -2.551  -2.871  24.154  0.00  0.00    -0.382 OA
ATOM     25  C   UNL     1      -1.409  -2.425  24.871  0.00  0.00    +0.194 C 
ENDBRANCH  21   4
ENDBRANCH  20  21
ENDBRANCH  16  20
TORSDOF 4
ENDMDL
MODEL 2
REMARK VINA RESULT:       0.1      2.331      4.642
REMARK  Name = 7685235
REMARK  5 active torsions:
REMARK  status: ('A' for Active; 'I' for Inactive)
REMARK    1  A    between atoms: O_4  and  C_21
REMARK    2  A    between atoms: O_4  and  C_25
REMARK    3  A    between atoms: C_14  and  C_19
REMARK    4  A    between atoms: C_16  and  C_20
REMARK    5  A    between atoms: C_20  and  C_21
REMARK                            x       y       z     vdW  Elec       q    Type
REMARK                         _______ _______ _______ _____ _____    ______ ____
ROOT
ATOM      2  O   UNL     1      -3.601   3.887  21.100  0.00  0.00    -0.268 OA
ATOM      3  O   UNL     1      -0.644   5.105  25.286  0.00  0.00    -0.276 OA
ATOM      5  N   UNL     1      -2.229   3.515  25.882  0.00  0.00    -0.300 N 
ATOM      6  N   UNL     1      -3.751   2.814  23.177  0.00  0.00    -0.311 N 
ATOM      7  C   UNL     1      -4.582   4.047  25.265  0.00  0.00    +0.027 C 
ATOM      8  C   UNL     1      -3.871   1.700  25.427  0.00  0.00    +0.054 C 
ATOM      9  C   UNL     1      -5.014   2.665  25.731  0.00  0.00    +0.018 C 
ATOM     10  C   UNL     1      -3.307   4.496  25.997  0.00  0.00    +0.113 C 
ATOM     11  C   UNL     1      -4.388   4.009  23.749  0.00  0.00    +0.130 C 
ATOM     12  C   UNL     1      -2.611   2.135  26.206  0.00  0.00    +0.117 C 
ATOM     13  C   UNL     1      -3.570   1.636  23.927  0.00  0.00    +0.035 A 
ATOM     14  C   UNL     1      -3.117   0.509  23.317  0.00  0.00    +0.009 A 
ATOM     15  C   UNL     1      -3.449   2.890  21.805  0.00  0.00    +0.252 A 
ATOM     16  C   UNL     1      -0.941   3.938  25.554  0.00  0.00    +0.218 C 
ATOM     17  C   UNL     1      -2.792   0.550  21.904  0.00  0.00    +0.016 A 
ATOM     18  C   UNL     1      -2.924   1.658  21.175  0.00  0.00    +0.071 A 
ENDROOT
BRANCH  14  19
ATOM      1  S   UNL     1      -1.388  -1.128  24.708  0.00  0.00    -0.097 S 
ATOM     19  C   UNL     1      -2.929  -0.757  24.060  0.00  0.00    +0.021 A 
ATOM     22  C   UNL     1      -3.853  -1.741  24.326  0.00  0.00    +0.016 A 
ATOM     23  C   UNL     1      -3.290  -2.816  25.074  0.00  0.00    +0.008 A 
ATOM     24  C   UNL     1      -1.956  -2.611  25.350  0.00  0.00    +0.046 A 
ENDBRANCH  14  19
BRANCH  16  20
ATOM     20  C   UNL     1       0.131   2.879  25.525  0.00  0.00    +0.124 C 
BRANCH  20  21
ATOM     21  C   UNL     1       0.107   2.170  24.187  0.00  0.00    +0.168 C 
BRANCH  21   4
ATOM      4  O   UNL     1       1.395   1.637  23.909  0.00  0.00    -0.382 OA
ATOM     25  C   UNL     1       1.312   0.463  23.113  0.00  0.00    +0.194 C 
ENDBRANCH  21   4
ENDBRANCH  20  21
ENDBRANCH  16  20
TORSDOF 4
ENDMDL
MODEL 3
REMARK VINA RESULT:       1.2      2.683      4.281
REMARK  Name = 7685235
REMARK  5 active torsions:
REMARK  status: ('A' for Active; 'I' for Inactive)
REMARK    1  A    between atoms: O_4  and  C_21
REMARK    2  A    between atoms: O_4  and  C_25
REMARK    3  A    between atoms: C_14  and  C_19
REMARK    4  A    between atoms: C_16  and  C_20
REMARK    5  A    between atoms: C_20  and  C_21
REMARK                            x       y       z     vdW  Elec       q    Type
REMARK                         _______ _______ _______ _____ _____    ______ ____
ROOT
ATOM      2  O   UNL     1       0.887   2.473  27.191  0.00  0.00    -0.268 OA
ATOM      3  O   UNL     1      -3.542   5.183  26.306  0.00  0.00    -0.276 OA
ATOM      5  N   UNL     1      -3.175   3.693  24.563  0.00  0.00    -0.300 N 
ATOM      6  N   UNL     1      -0.575   2.062  25.408  0.00  0.00    -0.311 N 
ATOM      7  C   UNL     1      -0.911   3.773  23.528  0.00  0.00    +0.027 C 
ATOM      8  C   UNL     1      -2.179   1.668  23.512  0.00  0.00    +0.054 C 
ATOM      9  C   UNL     1      -1.257   2.558  22.682  0.00  0.00    +0.018 C 
ATOM     10  C   UNL     1      -2.180   4.548  23.916  0.00  0.00    +0.113 C 
ATOM     11  C   UNL     1      -0.131   3.302  24.756  0.00  0.00    +0.130 C 
ATOM     12  C   UNL     1      -3.470   2.442  23.854  0.00  0.00    +0.117 C 
ATOM     13  C   UNL     1      -1.495   1.188  24.795  0.00  0.00    +0.035 A 
ATOM     14  C   UNL     1      -1.762  -0.018  25.363  0.00  0.00    +0.009 A 
ATOM     15  C   UNL     1       0.068   1.753  26.621  0.00  0.00    +0.252 A 
ATOM     16  C   UNL     1      -3.807   4.127  25.728  0.00  0.00    +0.218 C 
ATOM     17  C   UNL     1      -1.120  -0.369  26.615  0.00  0.00    +0.016 A 
ATOM     18  C   UNL     1      -0.270   0.449  27.234  0.00  0.00    +0.071 A 
ENDROOT
BRANCH  14  19
ATOM      1  S   UNL     1      -2.188  -2.578  24.431  0.00  0.00    -0.097 S 
ATOM     19  C   UNL     1      -2.705  -0.977  24.747  0.00  0.00    +0.021 A 
ATOM     22  C   UNL     1      -4.012  -0.770  24.364  0.00  0.00    +0.016 A 
ATOM     23  C   UNL     1      -4.597  -1.943  23.805  0.00  0.00    +0.008 A 
ATOM     24  C   UNL     1      -3.715  -3.001  23.781  0.00  0.00    +0.046 A 
ENDBRANCH  14  19
BRANCH  16  20
ATOM     20  C   UNL     1      -4.872   3.223  26.296  0.00  0.00    +0.124 C 
BRANCH  20  21
ATOM     21  C   UNL     1      -6.127   3.331  25.457  0.00  0.00    +0.168 C 
BRANCH  21   4
ATOM      4  O   UNL     1      -6.647   2.030  25.211  0.00  0.00    -0.382 OA
ATOM     25  C   UNL     1      -6.365   1.146  26.286  0.00  0.00    +0.194 C 
ENDBRANCH  21   4
ENDBRANCH  20  21
ENDBRANCH  16  20
TORSDOF 4
ENDMDL
MODEL 4
REMARK VINA RESULT:       1.9      1.893      3.706
REMARK  Name = 7685235
REMARK  5 active torsions:
REMARK  status: ('A' for Active; 'I' for Inactive)
REMARK    1  A    between atoms: O_4  and  C_21
REMARK    2  A    between atoms: O_4  and  C_25
REMARK    3  A    between atoms: C_14  and  C_19
REMARK    4  A    between atoms: C_16  and  C_20
REMARK    5  A    between atoms: C_20  and  C_21
REMARK                            x       y       z     vdW  Elec       q    Type
REMARK                         _______ _______ _______ _____ _____    ______ ____
ROOT
ATOM      2  O   UNL     1      -2.762  -0.977  26.708  0.00  0.00    -0.268 OA
ATOM      3  O   UNL     1      -4.179   3.091  23.678  0.00  0.00    -0.276 OA
ATOM      5  N   UNL     1      -1.903   3.204  24.126  0.00  0.00    -0.300 N 
ATOM      6  N   UNL     1      -1.260   0.572  25.796  0.00  0.00    -0.311 N 
ATOM      7  C   UNL     1      -1.261   3.029  26.526  0.00  0.00    +0.027 C 
ATOM      8  C   UNL     1       0.305   2.265  24.792  0.00  0.00    +0.054 C 
ATOM      9  C   UNL     1       0.207   2.997  26.129  0.00  0.00    +0.018 C 
ATOM     10  C   UNL     1      -2.098   3.761  25.464  0.00  0.00    +0.113 C 
ATOM     11  C   UNL     1      -1.738   1.592  26.739  0.00  0.00    +0.130 C 
ATOM     12  C   UNL     1      -0.500   3.036  23.725  0.00  0.00    +0.117 C 
ATOM     13  C   UNL     1      -0.203   0.824  24.900  0.00  0.00    +0.035 A 
ATOM     14  C   UNL     1       0.306  -0.191  24.152  0.00  0.00    +0.009 A 
ATOM     15  C   UNL     1      -1.847  -0.700  25.933  0.00  0.00    +0.252 A 
ATOM     16  C   UNL     1      -3.008   2.942  23.318  0.00  0.00    +0.218 C 
ATOM     17  C   UNL     1      -0.275  -1.515  24.265  0.00  0.00    +0.016 A 
ATOM     18  C   UNL     1      -1.296  -1.777  25.080  0.00  0.00    +0.071 A 
ENDROOT
BRANCH  14  19
ATOM      1  S   UNL     1       1.307  -0.576  21.611  0.00  0.00    -0.097 S 
ATOM     19  C   UNL     1       1.428   0.022  23.212  0.00  0.00    +0.021 A 
ATOM     22  C   UNL     1       2.626   0.663  23.435  0.00  0.00    +0.016 A 
ATOM     23  C   UNL     1       3.456   0.664  22.277  0.00  0.00    +0.008 A 
ATOM     24  C   UNL     1       2.861   0.023  21.213  0.00  0.00    +0.046 A 
ENDBRANCH  14  19
BRANCH  16  20
ATOM     20  C   UNL     1      -2.724   2.437  21.926  0.00  0.00    +0.124 C 
BRANCH  20  21
ATOM     21  C   UNL     1      -2.742   0.923  21.923  0.00  0.00    +0.168 C 
BRANCH  21   4
ATOM      4  O   UNL     1      -3.129   0.451  23.207  0.00  0.00    -0.382 OA
ATOM     25  C   UNL     1      -3.876  -0.754  23.115  0.00  0.00    +0.194 C 
ENDBRANCH  21   4
ENDBRANCH  20  21
ENDBRANCH  16  20
TORSDOF 4
ENDMDL
MODEL 5
REMARK VINA RESULT:       2.0      2.543      5.942
REMARK  Name = 7685235
REMARK  5 active torsions:
REMARK  status: ('A' for Active; 'I' for Inactive)
REMARK    1  A    between atoms: O_4  and  C_21
REMARK    2  A    between atoms: O_4  and  C_25
REMARK    3  A    between atoms: C_14  and  C_19
REMARK    4  A    between atoms: C_16  and  C_20
REMARK    5  A    between atoms: C_20  and  C_21
REMARK                            x       y       z     vdW  Elec       q    Type
REMARK                         _______ _______ _______ _____ _____    ______ ____
ROOT
ATOM      2  O   UNL     1      -0.756  -2.503  25.145  0.00  0.00    -0.268 OA
ATOM      3  O   UNL     1       1.494   2.062  26.503  0.00  0.00    -0.276 OA
ATOM      5  N   UNL     1      -0.186   2.449  24.946  0.00  0.00    -0.300 N 
ATOM      6  N   UNL     1      -1.502  -0.402  24.428  0.00  0.00    -0.311 N 
ATOM      7  C   UNL     1      -0.086   1.067  22.877  0.00  0.00    +0.027 C 
ATOM      8  C   UNL     1      -2.258   1.879  23.689  0.00  0.00    +0.054 C 
ATOM      9  C   UNL     1      -1.423   1.637  22.434  0.00  0.00    +0.018 C 
ATOM     10  C   UNL     1       0.643   2.047  23.811  0.00  0.00    +0.113 C 
ATOM     11  C   UNL     1      -0.332  -0.285  23.547  0.00  0.00    +0.130 C 
ATOM     12  C   UNL     1      -1.539   2.901  24.595  0.00  0.00    +0.117 C 
ATOM     13  C   UNL     1      -2.513   0.579  24.457  0.00  0.00    +0.035 A 
ATOM     14  C   UNL     1      -3.648   0.360  25.171  0.00  0.00    +0.009 A 
ATOM     15  C   UNL     1      -1.601  -1.608  25.145  0.00  0.00    +0.252 A 
ATOM     16  C   UNL     1       0.353   2.447  26.232  0.00  0.00    +0.218 C 
ATOM     17  C   UNL     1      -3.784  -0.872  25.926  0.00  0.00    +0.016 A 
ATOM     18  C   UNL     1      -2.832  -1.804  25.943  0.00  0.00    +0.071 A 
ENDROOT
BRANCH  14  19
ATOM      1  S   UNL     1      -4.452   2.897  25.895  0.00  0.00    -0.097 S 
ATOM     19  C   UNL     1      -4.745   1.352  25.216  0.00  0.00    +0.021 A 
ATOM     22  C   UNL     1      -6.041   1.220  24.771  0.00  0.00    +0.016 A 
ATOM     23  C   UNL     1      -6.805   2.403  24.990  0.00  0.00    +0.008 A 
ATOM     24  C   UNL     1      -6.063   3.394  25.594  0.00  0.00    +0.046 A 
ENDBRANCH  14  19
BRANCH  16  20
ATOM     20  C   UNL     1      -0.540   2.943  27.341  0.00  0.00    +0.124 C 
BRANCH  20  21
ATOM     21  C   UNL     1      -0.045   2.406  28.667  0.00  0.00    +0.168 C 
BRANCH  21   4
ATOM      4  O   UNL     1       1.278   2.870  28.904  0.00  0.00    -0.382 OA
ATOM     25  C   UNL     1       1.888   2.173  29.981  0.00  0.00    +0.194 C 
ENDBRANCH  21   4
ENDBRANCH  20  21
ENDBRANCH  16  20
TORSDOF 4
ENDMDL
