MODEL 1
REMARK VINA RESULT:       4.3      0.000      0.000
REMARK  Name = 45361027
REMARK  9 active torsions:
REMARK  status: ('A' for Active; 'I' for Inactive)
REMARK    1  A    between atoms: N_4  and  C_17
REMARK    2  A    between atoms: N_5  and  C_19
REMARK    3  A    between atoms: N_7  and  C_25
REMARK    4  A    between atoms: N_9  and  C_28
REMARK    5  A    between atoms: C_14  and  C_18
REMARK    6  A    between atoms: C_17  and  C_20
REMARK    7  A    between atoms: C_18  and  C_21
REMARK    8  A    between atoms: C_21  and  C_22
REMARK    9  A    between atoms: C_28  and  C_31
REMARK                            x       y       z     vdW  Elec       q    Type
REMARK                         _______ _______ _______ _____ _____    ______ ____
ROOT
ATOM      2  O   UNL     1      -1.457   2.205  23.595  0.00  0.00    -0.274 OA
ATOM      4  N   UNL     1      -0.217  -0.163  23.977  0.00  0.00    -0.283 NA
ATOM      5  N   UNL     1      -3.472  -0.400  25.631  0.00  0.00    -0.296 NA
ATOM      6  N   UNL     1      -3.537   1.297  23.299  0.00  0.00    -0.312 N 
ATOM     10  C   UNL     1      -2.279  -0.972  24.968  0.00  0.00    +0.084 C 
ATOM     11  C   UNL     1      -1.673  -0.215  23.751  0.00  0.00    +0.161 C 
ATOM     12  C   UNL     1      -1.058  -1.117  25.896  0.00  0.00    +0.036 C 
ATOM     13  C   UNL     1       0.106  -1.217  24.933  0.00  0.00    +0.087 C 
ATOM     14  C   UNL     1      -4.685  -0.335  24.769  0.00  0.00    +0.074 C 
ATOM     15  C   UNL     1      -2.182   1.211  23.559  0.00  0.00    +0.232 C 
ATOM     16  C   UNL     1      -4.431   0.156  23.329  0.00  0.00    +0.123 C 
ATOM     19  C   UNL     1      -3.774  -1.120  26.880  0.00  0.00    +0.105 C 
ATOM     35  H   UNL     1      -3.936   2.217  23.139  0.00  0.00    +0.149 HD
ENDROOT
BRANCH   4  17
ATOM     17  C   UNL     1       0.563  -0.278  22.751  0.00  0.00    +0.159 C 
BRANCH  17  20
ATOM      7  N   UNL     1       2.822   0.770  23.077  0.00  0.00    -0.330 N 
ATOM      8  N   UNL     1       2.728  -1.444  23.245  0.00  0.00    -0.231 NA
ATOM     20  C   UNL     1       2.037  -0.348  23.027  0.00  0.00    +0.125 A 
ATOM     23  C   UNL     1       4.105   0.369  23.346  0.00  0.00    +0.069 A 
ATOM     24  C   UNL     1       4.021  -1.017  23.446  0.00  0.00    +0.089 A 
ATOM     25  C   UNL     1       2.382   2.133  22.883  0.00  0.00    +0.150 C 
ATOM     26  C   UNL     1       5.296   1.077  23.505  0.00  0.00    +0.028 A 
ATOM     27  C   UNL     1       5.184  -1.756  23.722  0.00  0.00    +0.030 A 
ATOM     29  C   UNL     1       6.445   0.326  23.778  0.00  0.00    +0.002 A 
ATOM     30  C   UNL     1       6.391  -1.066  23.885  0.00  0.00    +0.002 A 
ENDBRANCH  17  20
ENDBRANCH   4  17
BRANCH  14  18
ATOM     18  C   UNL     1      -5.743   0.596  25.396  0.00  0.00    +0.029 C 
BRANCH  18  21
ATOM     21  C   UNL     1      -5.905   1.859  24.570  0.00  0.00    +0.097 C 
BRANCH  21  22
ATOM      3  O   UNL     1      -5.928   4.161  25.319  0.00  0.00    -0.276 OA
ATOM      9  N   UNL     1      -4.139   2.801  25.901  0.00  0.00    -0.311 N 
ATOM     22  C   UNL     1      -5.354   3.075  25.291  0.00  0.00    +0.213 C 
ATOM     36  H   UNL     1      -3.748   1.866  25.824  0.00  0.00    +0.149 HD
BRANCH   9  28
ATOM     28  C   UNL     1      -3.410   3.798  26.649  0.00  0.00    +0.146 C 
BRANCH  28  31
ATOM      1  S   UNL     1      -0.749   3.147  26.186  0.00  0.00    -0.100 S 
ATOM     31  C   UNL     1      -2.113   4.163  25.984  0.00  0.00    +0.007 A 
ATOM     32  C   UNL     1      -1.833   5.253  25.191  0.00  0.00    +0.013 A 
ATOM     33  C   UNL     1      -0.480   5.255  24.742  0.00  0.00    +0.008 A 
ATOM     34  C   UNL     1       0.221   4.167  25.210  0.00  0.00    +0.045 A 
ENDBRANCH  28  31
ENDBRANCH   9  28
ENDBRANCH  21  22
ENDBRANCH  18  21
ENDBRANCH  14  18
TORSDOF 7
ENDMDL
MODEL 2
REMARK VINA RESULT:       5.3      2.257      3.023
REMARK  Name = 45361027
REMARK  9 active torsions:
REMARK  status: ('A' for Active; 'I' for Inactive)
REMARK    1  A    between atoms: N_4  and  C_17
REMARK    2  A    between atoms: N_5  and  C_19
REMARK    3  A    between atoms: N_7  and  C_25
REMARK    4  A    between atoms: N_9  and  C_28
REMARK    5  A    between atoms: C_14  and  C_18
REMARK    6  A    between atoms: C_17  and  C_20
REMARK    7  A    between atoms: C_18  and  C_21
REMARK    8  A    between atoms: C_21  and  C_22
REMARK    9  A    between atoms: C_28  and  C_31
REMARK                            x       y       z     vdW  Elec       q    Type
REMARK                         _______ _______ _______ _____ _____    ______ ____
ROOT
ATOM      2  O   UNL     1       0.091   1.168  24.538  0.00  0.00    -0.274 OA
ATOM      4  N   UNL     1      -1.256  -1.169  24.408  0.00  0.00    -0.283 NA
ATOM      5  N   UNL     1      -3.743   1.448  25.003  0.00  0.00    -0.296 NA
ATOM      6  N   UNL     1      -1.507   2.383  23.438  0.00  0.00    -0.312 N 
ATOM     10  C   UNL     1      -3.309   0.121  24.513  0.00  0.00    +0.084 C 
ATOM     11  C   UNL     1      -1.922   0.006  23.815  0.00  0.00    +0.161 C 
ATOM     12  C   UNL     1      -3.203  -0.949  25.616  0.00  0.00    +0.036 C 
ATOM     13  C   UNL     1      -2.299  -1.997  25.004  0.00  0.00    +0.087 C 
ATOM     14  C   UNL     1      -3.933   2.468  23.934  0.00  0.00    +0.074 C 
ATOM     15  C   UNL     1      -1.009   1.217  23.989  0.00  0.00    +0.232 C 
ATOM     16  C   UNL     1      -2.830   2.491  22.856  0.00  0.00    +0.123 C 
ATOM     19  C   UNL     1      -4.964   1.332  25.819  0.00  0.00    +0.105 C 
ATOM     35  H   UNL     1      -0.938   3.221  23.499  0.00  0.00    +0.149 HD
ENDROOT
BRANCH   4  17
ATOM     17  C   UNL     1      -0.443  -1.914  23.455  0.00  0.00    +0.159 C 
BRANCH  17  20
ATOM      7  N   UNL     1       1.341  -0.559  22.318  0.00  0.00    -0.330 N 
ATOM      8  N   UNL     1       1.925  -1.575  24.208  0.00  0.00    -0.231 NA
ATOM     20  C   UNL     1       0.950  -1.363  23.353  0.00  0.00    +0.125 A 
ATOM     23  C   UNL     1       2.657  -0.230  22.519  0.00  0.00    +0.069 A 
ATOM     24  C   UNL     1       3.000  -0.876  23.704  0.00  0.00    +0.089 A 
ATOM     25  C   UNL     1       0.518  -0.131  21.210  0.00  0.00    +0.150 C 
ATOM     26  C   UNL     1       3.551   0.553  21.788  0.00  0.00    +0.028 A 
ATOM     27  C   UNL     1       4.306  -0.743  24.204  0.00  0.00    +0.030 A 
ATOM     29  C   UNL     1       4.847   0.674  22.300  0.00  0.00    +0.002 A 
ATOM     30  C   UNL     1       5.220   0.038  23.487  0.00  0.00    +0.002 A 
ENDBRANCH  17  20
ENDBRANCH   4  17
BRANCH  14  18
ATOM     18  C   UNL     1      -4.012   3.882  24.546  0.00  0.00    +0.029 C 
BRANCH  18  21
ATOM     21  C   UNL     1      -3.337   3.918  25.905  0.00  0.00    +0.097 C 
BRANCH  21  22
ATOM      3  O   UNL     1      -1.336   5.052  25.149  0.00  0.00    -0.276 OA
ATOM      9  N   UNL     1      -1.129   3.150  26.464  0.00  0.00    -0.311 N 
ATOM     22  C   UNL     1      -1.839   4.127  25.781  0.00  0.00    +0.213 C 
ATOM     36  H   UNL     1      -1.639   2.427  26.963  0.00  0.00    +0.149 HD
BRANCH   9  28
ATOM     28  C   UNL     1       0.314   3.128  26.496  0.00  0.00    +0.146 C 
BRANCH  28  31
ATOM      1  S   UNL     1       2.526   2.937  28.165  0.00  0.00    -0.100 S 
ATOM     31  C   UNL     1       0.841   2.845  27.874  0.00  0.00    +0.007 A 
ATOM     32  C   UNL     1       0.139   2.501  29.007  0.00  0.00    +0.013 A 
ATOM     33  C   UNL     1       0.995   2.310  30.130  0.00  0.00    +0.008 A 
ATOM     34  C   UNL     1       2.319   2.516  29.812  0.00  0.00    +0.045 A 
ENDBRANCH  28  31
ENDBRANCH   9  28
ENDBRANCH  21  22
ENDBRANCH  18  21
ENDBRANCH  14  18
TORSDOF 7
ENDMDL
MODEL 3
REMARK VINA RESULT:       7.2      1.397      1.968
REMARK  Name = 45361027
REMARK  9 active torsions:
REMARK  status: ('A' for Active; 'I' for Inactive)
REMARK    1  A    between atoms: N_4  and  C_17
REMARK    2  A    between atoms: N_5  and  C_19
REMARK    3  A    between atoms: N_7  and  C_25
REMARK    4  A    between atoms: N_9  and  C_28
REMARK    5  A    between atoms: C_14  and  C_18
REMARK    6  A    between atoms: C_17  and  C_20
REMARK    7  A    between atoms: C_18  and  C_21
REMARK    8  A    between atoms: C_21  and  C_22
REMARK    9  A    between atoms: C_28  and  C_31
REMARK                            x       y       z     vdW  Elec       q    Type
REMARK                         _______ _______ _______ _____ _____    ______ ____
ROOT
ATOM      2  O   UNL     1      -2.505   2.594  22.820  0.00  0.00    -0.274 OA
ATOM      4  N   UNL     1      -0.208   1.730  23.947  0.00  0.00    -0.283 NA
ATOM      5  N   UNL     1      -2.913  -0.244  25.423  0.00  0.00    -0.296 NA
ATOM      6  N   UNL     1      -3.461   0.519  22.695  0.00  0.00    -0.312 N 
ATOM     10  C   UNL     1      -1.507  -0.017  25.021  0.00  0.00    +0.084 C 
ATOM     11  C   UNL     1      -1.229   0.702  23.669  0.00  0.00    +0.161 C 
ATOM     12  C   UNL     1      -0.705   0.846  26.014  0.00  0.00    +0.036 C 
ATOM     13  C   UNL     1       0.460   1.345  25.186  0.00  0.00    +0.087 C 
ATOM     14  C   UNL     1      -3.675  -1.148  24.516  0.00  0.00    +0.074 C 
ATOM     15  C   UNL     1      -2.440   1.385  23.039  0.00  0.00    +0.232 C 
ATOM     16  C   UNL     1      -3.450  -0.896  23.012  0.00  0.00    +0.123 C 
ATOM     19  C   UNL     1      -2.990  -0.732  26.810  0.00  0.00    +0.105 C 
ATOM     35  H   UNL     1      -4.287   0.906  22.250  0.00  0.00    +0.149 HD
ENDROOT
BRANCH   4  17
ATOM     17  C   UNL     1       0.735   1.917  22.852  0.00  0.00    +0.159 C 
BRANCH  17  20
ATOM      7  N   UNL     1       2.092  -0.174  23.165  0.00  0.00    -0.330 N 
ATOM      8  N   UNL     1       3.205   1.749  23.258  0.00  0.00    -0.231 NA
ATOM     20  C   UNL     1       2.028   1.190  23.093  0.00  0.00    +0.125 A 
ATOM     23  C   UNL     1       3.401  -0.518  23.390  0.00  0.00    +0.069 A 
ATOM     24  C   UNL     1       4.075   0.698  23.445  0.00  0.00    +0.089 A 
ATOM     25  C   UNL     1       0.984  -1.091  23.027  0.00  0.00    +0.150 C 
ATOM     26  C   UNL     1       4.032  -1.752  23.547  0.00  0.00    +0.028 A 
ATOM     27  C   UNL     1       5.462   0.703  23.668  0.00  0.00    +0.030 A 
ATOM     29  C   UNL     1       5.413  -1.729  23.769  0.00  0.00    +0.002 A 
ATOM     30  C   UNL     1       6.117  -0.524  23.828  0.00  0.00    +0.002 A 
ENDBRANCH  17  20
ENDBRANCH   4  17
BRANCH  14  18
ATOM     18  C   UNL     1      -5.189  -1.030  24.785  0.00  0.00    +0.029 C 
BRANCH  18  21
ATOM     21  C   UNL     1      -5.729   0.285  24.253  0.00  0.00    +0.097 C 
BRANCH  21  22
ATOM      3  O   UNL     1      -5.868   1.280  26.456  0.00  0.00    -0.276 OA
ATOM      9  N   UNL     1      -5.084   2.560  24.685  0.00  0.00    -0.311 N 
ATOM     22  C   UNL     1      -5.580   1.403  25.268  0.00  0.00    +0.213 C 
ATOM     36  H   UNL     1      -4.870   2.559  23.692  0.00  0.00    +0.149 HD
BRANCH   9  28
ATOM     28  C   UNL     1      -4.855   3.767  25.443  0.00  0.00    +0.146 C 
BRANCH  28  31
ATOM      1  S   UNL     1      -2.898   5.445  24.407  0.00  0.00    -0.100 S 
ATOM     31  C   UNL     1      -3.408   4.172  25.432  0.00  0.00    +0.007 A 
ATOM     32  C   UNL     1      -2.365   3.646  26.161  0.00  0.00    +0.013 A 
ATOM     33  C   UNL     1      -1.130   4.297  25.875  0.00  0.00    +0.008 A 
ATOM     34  C   UNL     1      -1.277   5.295  24.938  0.00  0.00    +0.045 A 
ENDBRANCH  28  31
ENDBRANCH   9  28
ENDBRANCH  21  22
ENDBRANCH  18  21
ENDBRANCH  14  18
TORSDOF 7
ENDMDL
MODEL 4
REMARK VINA RESULT:       7.4      1.784      3.534
REMARK  Name = 45361027
REMARK  9 active torsions:
REMARK  status: ('A' for Active; 'I' for Inactive)
REMARK    1  A    between atoms: N_4  and  C_17
REMARK    2  A    between atoms: N_5  and  C_19
REMARK    3  A    between atoms: N_7  and  C_25
REMARK    4  A    between atoms: N_9  and  C_28
REMARK    5  A    between atoms: C_14  and  C_18
REMARK    6  A    between atoms: C_17  and  C_20
REMARK    7  A    between atoms: C_18  and  C_21
REMARK    8  A    between atoms: C_21  and  C_22
REMARK    9  A    between atoms: C_28  and  C_31
REMARK                            x       y       z     vdW  Elec       q    Type
REMARK                         _______ _______ _______ _____ _____    ______ ____
ROOT
ATOM      2  O   UNL     1      -1.916   2.374  21.433  0.00  0.00    -0.274 OA
ATOM      4  N   UNL     1       0.022   1.625  23.157  0.00  0.00    -0.283 NA
ATOM      5  N   UNL     1      -2.516   3.379  25.124  0.00  0.00    -0.296 NA
ATOM      6  N   UNL     1      -3.642   1.960  22.877  0.00  0.00    -0.312 N 
ATOM     10  C   UNL     1      -1.405   2.416  24.953  0.00  0.00    +0.084 C 
ATOM     11  C   UNL     1      -1.363   1.555  23.657  0.00  0.00    +0.161 C 
ATOM     12  C   UNL     1      -0.010   3.068  24.951  0.00  0.00    +0.036 C 
ATOM     13  C   UNL     1       0.863   2.028  24.279  0.00  0.00    +0.087 C 
ATOM     14  C   UNL     1      -3.866   2.753  25.214  0.00  0.00    +0.074 C 
ATOM     15  C   UNL     1      -2.301   2.015  22.545  0.00  0.00    +0.232 C 
ATOM     16  C   UNL     1      -4.124   1.619  24.202  0.00  0.00    +0.123 C 
ATOM     19  C   UNL     1      -2.281   4.251  26.287  0.00  0.00    +0.105 C 
ATOM     35  H   UNL     1      -4.321   2.231  22.173  0.00  0.00    +0.149 HD
ENDROOT
BRANCH   4  17
ATOM     17  C   UNL     1       0.480   0.382  22.549  0.00  0.00    +0.159 C 
BRANCH  17  20
ATOM      7  N   UNL     1       2.368  -0.913  23.583  0.00  0.00    -0.330 N 
ATOM      8  N   UNL     1       2.937   0.852  22.357  0.00  0.00    -0.231 NA
ATOM     20  C   UNL     1       1.937   0.131  22.813  0.00  0.00    +0.125 A 
ATOM     23  C   UNL     1       3.738  -0.863  23.626  0.00  0.00    +0.069 A 
ATOM     24  C   UNL     1       4.069   0.247  22.854  0.00  0.00    +0.089 A 
ATOM     25  C   UNL     1       1.533  -1.896  24.235  0.00  0.00    +0.150 C 
ATOM     26  C   UNL     1       4.686  -1.669  24.256  0.00  0.00    +0.028 A 
ATOM     27  C   UNL     1       5.422   0.587  22.689  0.00  0.00    +0.030 A 
ATOM     29  C   UNL     1       6.029  -1.315  24.082  0.00  0.00    +0.002 A 
ATOM     30  C   UNL     1       6.392  -0.208  23.312  0.00  0.00    +0.002 A 
ENDBRANCH  17  20
ENDBRANCH   4  17
BRANCH  14  18
ATOM     18  C   UNL     1      -4.967   3.814  25.013  0.00  0.00    +0.029 C 
BRANCH  18  21
ATOM     21  C   UNL     1      -6.319   3.272  25.439  0.00  0.00    +0.097 C 
BRANCH  21  22
ATOM      3  O   UNL     1      -6.635   1.895  27.405  0.00  0.00    -0.276 OA
ATOM      9  N   UNL     1      -5.487   1.022  25.586  0.00  0.00    -0.311 N 
ATOM     22  C   UNL     1      -6.181   2.009  26.269  0.00  0.00    +0.213 C 
ATOM     36  H   UNL     1      -5.156   1.213  24.644  0.00  0.00    +0.149 HD
BRANCH   9  28
ATOM     28  C   UNL     1      -5.222  -0.274  26.164  0.00  0.00    +0.146 C 
BRANCH  28  31
ATOM      1  S   UNL     1      -4.056  -1.814  24.168  0.00  0.00    -0.100 S 
ATOM     31  C   UNL     1      -3.971  -0.893  25.609  0.00  0.00    +0.007 A 
ATOM     32  C   UNL     1      -2.689  -0.831  26.108  0.00  0.00    +0.013 A 
ATOM     33  C   UNL     1      -1.764  -1.550  25.298  0.00  0.00    +0.008 A 
ATOM     34  C   UNL     1      -2.374  -2.134  24.210  0.00  0.00    +0.045 A 
ENDBRANCH  28  31
ENDBRANCH   9  28
ENDBRANCH  21  22
ENDBRANCH  18  21
ENDBRANCH  14  18
TORSDOF 7
ENDMDL
MODEL 5
REMARK VINA RESULT:       7.7      1.891      3.822
REMARK  Name = 45361027
REMARK  9 active torsions:
REMARK  status: ('A' for Active; 'I' for Inactive)
REMARK    1  A    between atoms: N_4  and  C_17
REMARK    2  A    between atoms: N_5  and  C_19
REMARK    3  A    between atoms: N_7  and  C_25
REMARK    4  A    between atoms: N_9  and  C_28
REMARK    5  A    between atoms: C_14  and  C_18
REMARK    6  A    between atoms: C_17  and  C_20
REMARK    7  A    between atoms: C_18  and  C_21
REMARK    8  A    between atoms: C_21  and  C_22
REMARK    9  A    between atoms: C_28  and  C_31
REMARK                            x       y       z     vdW  Elec       q    Type
REMARK                         _______ _______ _______ _____ _____    ______ ____
ROOT
ATOM      2  O   UNL     1       0.063   2.240  26.050  0.00  0.00    -0.274 OA
ATOM      4  N   UNL     1       0.109   1.970  23.364  0.00  0.00    -0.283 NA
ATOM      5  N   UNL     1      -3.369   2.616  24.297  0.00  0.00    -0.296 NA
ATOM      6  N   UNL     1      -1.491   3.920  26.057  0.00  0.00    -0.312 N 
ATOM     10  C   UNL     1      -2.227   2.625  23.355  0.00  0.00    +0.084 C 
ATOM     11  C   UNL     1      -0.816   2.983  23.905  0.00  0.00    +0.161 C 
ATOM     12  C   UNL     1      -1.971   1.268  22.672  0.00  0.00    +0.036 C 
ATOM     13  C   UNL     1      -0.538   1.379  22.198  0.00  0.00    +0.087 C 
ATOM     14  C   UNL     1      -3.682   3.943  24.899  0.00  0.00    +0.074 C 
ATOM     15  C   UNL     1      -0.696   2.982  25.427  0.00  0.00    +0.232 C 
ATOM     16  C   UNL     1      -2.453   4.752  25.359  0.00  0.00    +0.123 C 
ATOM     19  C   UNL     1      -4.571   2.051  23.660  0.00  0.00    +0.105 C 
ATOM     35  H   UNL     1      -1.442   3.988  27.069  0.00  0.00    +0.149 HD
ENDROOT
BRANCH   4  17
ATOM     17  C   UNL     1       1.428   2.504  23.046  0.00  0.00    +0.159 C 
BRANCH  17  20
ATOM      7  N   UNL     1       2.225   0.148  23.396  0.00  0.00    -0.330 N 
ATOM      8  N   UNL     1       3.800   1.706  23.211  0.00  0.00    -0.231 NA
ATOM     20  C   UNL     1       2.507   1.473  23.215  0.00  0.00    +0.125 A 
ATOM     23  C   UNL     1       3.417  -0.520  23.515  0.00  0.00    +0.069 A 
ATOM     24  C   UNL     1       4.385   0.473  23.398  0.00  0.00    +0.089 A 
ATOM     25  C   UNL     1       0.909  -0.447  23.450  0.00  0.00    +0.150 C 
ATOM     26  C   UNL     1       3.722  -1.867  23.711  0.00  0.00    +0.028 A 
ATOM     27  C   UNL     1       5.742   0.120  23.477  0.00  0.00    +0.030 A 
ATOM     29  C   UNL     1       5.078  -2.201  23.789  0.00  0.00    +0.002 A 
ATOM     30  C   UNL     1       6.072  -1.226  23.673  0.00  0.00    +0.002 A 
ENDBRANCH  17  20
ENDBRANCH   4  17
BRANCH  14  18
ATOM     18  C   UNL     1      -4.611   3.776  26.119  0.00  0.00    +0.029 C 
BRANCH  18  21
ATOM     21  C   UNL     1      -5.899   3.079  25.722  0.00  0.00    +0.097 C 
BRANCH  21  22
ATOM      3  O   UNL     1      -6.805   1.278  27.062  0.00  0.00    -0.276 OA
ATOM      9  N   UNL     1      -4.948   0.871  25.730  0.00  0.00    -0.311 N 
ATOM     22  C   UNL     1      -5.958   1.661  26.258  0.00  0.00    +0.213 C 
ATOM     36  H   UNL     1      -4.298   1.282  25.065  0.00  0.00    +0.149 HD
BRANCH   9  28
ATOM     28  C   UNL     1      -4.789  -0.518  26.087  0.00  0.00    +0.146 C 
BRANCH  28  31
ATOM      1  S   UNL     1      -3.530  -2.436  24.521  0.00  0.00    -0.100 S 
ATOM     31  C   UNL     1      -3.497  -1.086  25.575  0.00  0.00    +0.007 A 
ATOM     32  C   UNL     1      -2.212  -0.667  25.837  0.00  0.00    +0.013 A 
ATOM     33  C   UNL     1      -1.241  -1.463  25.164  0.00  0.00    +0.008 A 
ATOM     34  C   UNL     1      -1.821  -2.461  24.413  0.00  0.00    +0.045 A 
ENDBRANCH  28  31
ENDBRANCH   9  28
ENDBRANCH  21  22
ENDBRANCH  18  21
ENDBRANCH  14  18
TORSDOF 7
ENDMDL
