MODEL 1
REMARK VINA RESULT:      -3.2      0.000      0.000
REMARK  Name = 11884355
REMARK  5 active torsions:
REMARK  status: ('A' for Active; 'I' for Inactive)
REMARK    1  A    between atoms: O_3  and  C_11
REMARK    2  A    between atoms: O_5  and  C_20
REMARK    3  A    between atoms: O_5  and  C_21
REMARK    4  A    between atoms: N_6  and  C_10
REMARK    5  A    between atoms: N_7  and  C_15
REMARK                            x       y       z     vdW  Elec       q    Type
REMARK                         _______ _______ _______ _____ _____    ______ ____
ROOT
ATOM      4  O   UNL     1      15.047  -6.967  26.789  0.00  0.00    -0.252 OA
ATOM      6  N   UNL     1      16.617  -8.431  27.648  0.00  0.00    -0.292 N 
ATOM      7  N   UNL     1      17.287  -6.879  26.092  0.00  0.00    -0.269 N 
ATOM     14  C   UNL     1      16.206  -7.373  26.828  0.00  0.00    +0.304 C 
ATOM     22  H   UNL     1      17.604  -8.665  27.676  0.00  0.00    +0.151 HD
ATOM     24  H   UNL     1      18.185  -7.332  26.242  0.00  0.00    +0.156 HD
ENDROOT
BRANCH   6  10
ATOM      1  O   UNL     1      17.097 -10.310  30.091  0.00  0.00    -0.369 OA
ATOM      2  O   UNL     1      14.412  -8.932  30.571  0.00  0.00    -0.369 OA
ATOM      8  C   UNL     1      15.603  -8.482  29.889  0.00  0.00    +0.172 C 
ATOM      9  C   UNL     1      16.784  -9.028  30.665  0.00  0.00    +0.179 C 
ATOM     10  C   UNL     1      15.708  -9.154  28.537  0.00  0.00    +0.131 C 
ATOM     11  C   UNL     1      16.222  -9.165  32.060  0.00  0.00    +0.171 C 
ATOM     12  C   UNL     1      16.308 -10.502  28.906  0.00  0.00    +0.185 C 
ATOM     13  C   UNL     1      14.796  -9.589  31.789  0.00  0.00    +0.194 C 
BRANCH  11   3
ATOM      3  O   UNL     1      16.912 -10.104  32.855  0.00  0.00    -0.387 OA
ATOM     23  H   UNL     1      17.810 -10.202  32.494  0.00  0.00    +0.210 HD
ENDBRANCH  11   3
ENDBRANCH   6  10
BRANCH   7  15
ATOM     15  C   UNL     1      17.288  -5.818  25.156  0.00  0.00    +0.035 A 
ATOM     16  C   UNL     1      17.183  -4.514  25.609  0.00  0.00    +0.027 A 
ATOM     17  C   UNL     1      17.394  -6.107  23.806  0.00  0.00    +0.027 A 
ATOM     18  C   UNL     1      17.183  -3.469  24.686  0.00  0.00    +0.047 A 
ATOM     19  C   UNL     1      17.394  -5.061  22.882  0.00  0.00    +0.047 A 
ATOM     20  C   UNL     1      17.288  -3.742  23.322  0.00  0.00    +0.120 A 
BRANCH  20   5
ATOM      5  O   UNL     1      17.291  -2.722  22.422  0.00  0.00    -0.495 OA
ATOM     21  C   UNL     1      16.833  -1.450  22.879  0.00  0.00    +0.277 C 
ENDBRANCH  20   5
ENDBRANCH   7  15
TORSDOF 4
ENDMDL
MODEL 2
REMARK VINA RESULT:      -3.2     26.177     27.167
REMARK  Name = 11884355
REMARK  5 active torsions:
REMARK  status: ('A' for Active; 'I' for Inactive)
REMARK    1  A    between atoms: O_3  and  C_11
REMARK    2  A    between atoms: O_5  and  C_20
REMARK    3  A    between atoms: O_5  and  C_21
REMARK    4  A    between atoms: N_6  and  C_10
REMARK    5  A    between atoms: N_7  and  C_15
REMARK                            x       y       z     vdW  Elec       q    Type
REMARK                         _______ _______ _______ _____ _____    ______ ____
ROOT
ATOM      4  O   UNL     1      -6.969  -8.613  13.187  0.00  0.00    -0.252 OA
ATOM      6  N   UNL     1      -8.157 -10.510  13.767  0.00  0.00    -0.292 N 
ATOM      7  N   UNL     1      -6.022 -10.748  12.953  0.00  0.00    -0.269 N 
ATOM     14  C   UNL     1      -7.027  -9.837  13.286  0.00  0.00    +0.304 C 
ATOM     22  H   UNL     1      -8.105 -11.517  13.884  0.00  0.00    +0.151 HD
ATOM     24  H   UNL     1      -6.233 -11.732  13.096  0.00  0.00    +0.156 HD
ENDROOT
BRANCH   6  10
ATOM      1  O   UNL     1      -9.859 -10.659  16.376  0.00  0.00    -0.369 OA
ATOM      2  O   UNL     1     -10.180  -7.820  15.291  0.00  0.00    -0.369 OA
ATOM      8  C   UNL     1      -9.075  -8.747  15.216  0.00  0.00    +0.172 C 
ATOM      9  C   UNL     1      -9.037  -9.489  16.536  0.00  0.00    +0.179 C 
ATOM     10  C   UNL     1      -9.375  -9.825  14.196  0.00  0.00    +0.131 C 
ATOM     11  C   UNL     1      -9.661  -8.495  17.487  0.00  0.00    +0.171 C 
ATOM     12  C   UNL     1     -10.249 -10.777  14.998  0.00  0.00    +0.185 C 
ATOM     13  C   UNL     1     -10.719  -7.848  16.622  0.00  0.00    +0.194 C 
BRANCH  11   3
ATOM      3  O   UNL     1     -10.211  -9.090  18.641  0.00  0.00    -0.387 OA
ATOM     23  H   UNL     1      -9.566  -9.732  18.985  0.00  0.00    +0.210 HD
ENDBRANCH  11   3
ENDBRANCH   6  10
BRANCH   7  15
ATOM     15  C   UNL     1      -4.734 -10.471  12.437  0.00  0.00    +0.035 A 
ATOM     16  C   UNL     1      -3.630 -10.599  13.263  0.00  0.00    +0.027 A 
ATOM     17  C   UNL     1      -4.605 -10.075  11.116  0.00  0.00    +0.027 A 
ATOM     18  C   UNL     1      -2.361 -10.324  12.754  0.00  0.00    +0.047 A 
ATOM     19  C   UNL     1      -3.335  -9.801  10.606  0.00  0.00    +0.047 A 
ATOM     20  C   UNL     1      -2.213  -9.925  11.426  0.00  0.00    +0.120 A 
BRANCH  20   5
ATOM      5  O   UNL     1      -0.975  -9.659  10.928  0.00  0.00    -0.495 OA
ATOM     21  C   UNL     1      -0.247  -8.592  11.535  0.00  0.00    +0.277 C 
ENDBRANCH  20   5
ENDBRANCH   7  15
TORSDOF 4
ENDMDL
MODEL 3
REMARK VINA RESULT:      -2.6      1.921      2.473
REMARK  Name = 11884355
REMARK  5 active torsions:
REMARK  status: ('A' for Active; 'I' for Inactive)
REMARK    1  A    between atoms: O_3  and  C_11
REMARK    2  A    between atoms: O_5  and  C_20
REMARK    3  A    between atoms: O_5  and  C_21
REMARK    4  A    between atoms: N_6  and  C_10
REMARK    5  A    between atoms: N_7  and  C_15
REMARK                            x       y       z     vdW  Elec       q    Type
REMARK                         _______ _______ _______ _____ _____    ______ ____
ROOT
ATOM      4  O   UNL     1      14.779  -6.431  27.387  0.00  0.00    -0.252 OA
ATOM      6  N   UNL     1      16.284  -7.476  28.797  0.00  0.00    -0.292 N 
ATOM      7  N   UNL     1      17.090  -6.306  26.992  0.00  0.00    -0.269 N 
ATOM     14  C   UNL     1      15.941  -6.702  27.682  0.00  0.00    +0.304 C 
ATOM     22  H   UNL     1      17.267  -7.601  29.014  0.00  0.00    +0.151 HD
ATOM     24  H   UNL     1      17.979  -6.619  27.371  0.00  0.00    +0.156 HD
ENDROOT
BRANCH   6  10
ATOM      1  O   UNL     1      15.418  -6.713  31.694  0.00  0.00    -0.369 OA
ATOM      2  O   UNL     1      12.958  -7.924  30.345  0.00  0.00    -0.369 OA
ATOM      8  C   UNL     1      14.061  -7.164  29.805  0.00  0.00    +0.172 C 
ATOM      9  C   UNL     1      14.421  -6.120  30.842  0.00  0.00    +0.179 C 
ATOM     10  C   UNL     1      15.295  -8.037  29.716  0.00  0.00    +0.131 C 
ATOM     11  C   UNL     1      13.114  -5.919  31.569  0.00  0.00    +0.171 C 
ATOM     12  C   UNL     1      15.821  -7.976  31.143  0.00  0.00    +0.185 C 
ATOM     13  C   UNL     1      12.533  -7.315  31.574  0.00  0.00    +0.194 C 
BRANCH  11   3
ATOM      3  O   UNL     1      13.269  -5.405  32.873  0.00  0.00    -0.387 OA
ATOM     23  H   UNL     1      14.199  -5.142  32.984  0.00  0.00    +0.210 HD
ENDBRANCH  11   3
ENDBRANCH   6  10
BRANCH   7  15
ATOM     15  C   UNL     1      17.171  -5.519  25.819  0.00  0.00    +0.035 A 
ATOM     16  C   UNL     1      17.317  -4.146  25.933  0.00  0.00    +0.027 A 
ATOM     17  C   UNL     1      17.101  -6.136  24.582  0.00  0.00    +0.027 A 
ATOM     18  C   UNL     1      17.395  -3.370  24.777  0.00  0.00    +0.047 A 
ATOM     19  C   UNL     1      17.180  -5.360  23.425  0.00  0.00    +0.047 A 
ATOM     20  C   UNL     1      17.326  -3.976  23.523  0.00  0.00    +0.120 A 
BRANCH  20   5
ATOM      5  O   UNL     1      17.405  -3.219  22.395  0.00  0.00    -0.495 OA
ATOM     21  C   UNL     1      17.101  -1.831  22.523  0.00  0.00    +0.277 C 
ENDBRANCH  20   5
ENDBRANCH   7  15
TORSDOF 4
ENDMDL
MODEL 4
REMARK VINA RESULT:      -2.5     27.071     28.806
REMARK  Name = 11884355
REMARK  5 active torsions:
REMARK  status: ('A' for Active; 'I' for Inactive)
REMARK    1  A    between atoms: O_3  and  C_11
REMARK    2  A    between atoms: O_5  and  C_20
REMARK    3  A    between atoms: O_5  and  C_21
REMARK    4  A    between atoms: N_6  and  C_10
REMARK    5  A    between atoms: N_7  and  C_15
REMARK                            x       y       z     vdW  Elec       q    Type
REMARK                         _______ _______ _______ _____ _____    ______ ____
ROOT
ATOM      4  O   UNL     1      -6.908  -9.965  12.167  0.00  0.00    -0.252 OA
ATOM      6  N   UNL     1      -7.006 -10.741   9.991  0.00  0.00    -0.292 N 
ATOM      7  N   UNL     1      -4.989 -10.781  11.089  0.00  0.00    -0.269 N 
ATOM     14  C   UNL     1      -6.342 -10.448  11.188  0.00  0.00    +0.304 C 
ATOM     22  H   UNL     1      -6.486 -11.201   9.251  0.00  0.00    +0.151 HD
ATOM     24  H   UNL     1      -4.680 -11.172  10.203  0.00  0.00    +0.156 HD
ENDROOT
BRANCH   6  10
ATOM      1  O   UNL     1      -8.805  -8.224  10.388  0.00  0.00    -0.369 OA
ATOM      2  O   UNL     1     -10.066  -9.843   8.124  0.00  0.00    -0.369 OA
ATOM      8  C   UNL     1      -8.689  -9.694   8.533  0.00  0.00    +0.172 C 
ATOM      9  C   UNL     1      -8.520  -8.256   8.978  0.00  0.00    +0.179 C 
ATOM     10  C   UNL     1      -8.434 -10.501   9.788  0.00  0.00    +0.131 C 
ATOM     11  C   UNL     1      -9.581  -7.540   8.178  0.00  0.00    +0.171 C 
ATOM     12  C   UNL     1      -8.961  -9.568  10.869  0.00  0.00    +0.185 C 
ATOM     13  C   UNL     1     -10.701  -8.555   8.152  0.00  0.00    +0.194 C 
BRANCH  11   3
ATOM      3  O   UNL     1      -9.987  -6.317   8.750  0.00  0.00    -0.387 OA
ATOM     23  H   UNL     1      -9.715  -5.599   8.152  0.00  0.00    +0.210 HD
ENDBRANCH  11   3
ENDBRANCH   6  10
BRANCH   7  15
ATOM     15  C   UNL     1      -3.985 -10.641  12.076  0.00  0.00    +0.035 A 
ATOM     16  C   UNL     1      -4.329 -10.744  13.414  0.00  0.00    +0.027 A 
ATOM     17  C   UNL     1      -2.678 -10.401  11.684  0.00  0.00    +0.027 A 
ATOM     18  C   UNL     1      -3.340 -10.605  14.386  0.00  0.00    +0.047 A 
ATOM     19  C   UNL     1      -1.688 -10.261  12.657  0.00  0.00    +0.047 A 
ATOM     20  C   UNL     1      -2.019 -10.363  14.009  0.00  0.00    +0.120 A 
BRANCH  20   5
ATOM      5  O   UNL     1      -1.053 -10.229  14.957  0.00  0.00    -0.495 OA
ATOM     21  C   UNL     1      -1.382 -10.647  16.282  0.00  0.00    +0.277 C 
ENDBRANCH  20   5
ENDBRANCH   7  15
TORSDOF 4
ENDMDL
MODEL 5
REMARK VINA RESULT:      -2.3     17.410     19.360
REMARK  Name = 11884355
REMARK  5 active torsions:
REMARK  status: ('A' for Active; 'I' for Inactive)
REMARK    1  A    between atoms: O_3  and  C_11
REMARK    2  A    between atoms: O_5  and  C_20
REMARK    3  A    between atoms: O_5  and  C_21
REMARK    4  A    between atoms: N_6  and  C_10
REMARK    5  A    between atoms: N_7  and  C_15
REMARK                            x       y       z     vdW  Elec       q    Type
REMARK                         _______ _______ _______ _____ _____    ______ ____
ROOT
ATOM      4  O   UNL     1      -0.412  -0.164  23.917  0.00  0.00    -0.252 OA
ATOM      6  N   UNL     1       1.411   1.009  23.114  0.00  0.00    -0.292 N 
ATOM      7  N   UNL     1      -0.440   2.181  23.806  0.00  0.00    -0.269 N 
ATOM     14  C   UNL     1       0.119   0.911  23.645  0.00  0.00    +0.304 C 
ATOM     22  H   UNL     1       1.807   1.934  22.978  0.00  0.00    +0.151 HD
ATOM     24  H   UNL     1       0.137   2.971  23.529  0.00  0.00    +0.156 HD
ENDROOT
BRANCH   6  10
ATOM      1  O   UNL     1       4.333   0.717  22.063  0.00  0.00    -0.369 OA
ATOM      2  O   UNL     1       3.807  -1.705  23.850  0.00  0.00    -0.369 OA
ATOM      8  C   UNL     1       3.299  -0.355  23.906  0.00  0.00    +0.172 C 
ATOM      9  C   UNL     1       4.435   0.557  23.490  0.00  0.00    +0.179 C 
ATOM     10  C   UNL     1       2.252  -0.153  22.832  0.00  0.00    +0.131 C 
ATOM     11  C   UNL     1       5.655  -0.245  23.875  0.00  0.00    +0.171 C 
ATOM     12  C   UNL     1       3.112   0.115  21.606  0.00  0.00    +0.185 C 
ATOM     13  C   UNL     1       5.215  -1.660  23.571  0.00  0.00    +0.194 C 
BRANCH  11   3
ATOM      3  O   UNL     1       6.814   0.115  23.158  0.00  0.00    -0.387 OA
ATOM     23  H   UNL     1       7.515   0.316  23.802  0.00  0.00    +0.210 HD
ENDBRANCH  11   3
ENDBRANCH   6  10
BRANCH   7  15
ATOM     15  C   UNL     1      -1.720   2.509  24.311  0.00  0.00    +0.035 A 
ATOM     16  C   UNL     1      -2.843   1.944  23.731  0.00  0.00    +0.027 A 
ATOM     17  C   UNL     1      -1.823   3.390  25.375  0.00  0.00    +0.027 A 
ATOM     18  C   UNL     1      -4.105   2.268  24.228  0.00  0.00    +0.047 A 
ATOM     19  C   UNL     1      -3.086   3.714  25.873  0.00  0.00    +0.047 A 
ATOM     20  C   UNL     1      -4.227   3.153  25.299  0.00  0.00    +0.120 A 
BRANCH  20   5
ATOM      5  O   UNL     1      -5.458   3.468  25.786  0.00  0.00    -0.495 OA
ATOM     21  C   UNL     1      -6.327   2.382  26.105  0.00  0.00    +0.277 C 
ENDBRANCH  20   5
ENDBRANCH   7  15
TORSDOF 4
ENDMDL
MODEL 6
REMARK VINA RESULT:      -0.9      1.607      8.440
REMARK  Name = 11884355
REMARK  5 active torsions:
REMARK  status: ('A' for Active; 'I' for Inactive)
REMARK    1  A    between atoms: O_3  and  C_11
REMARK    2  A    between atoms: O_5  and  C_20
REMARK    3  A    between atoms: O_5  and  C_21
REMARK    4  A    between atoms: N_6  and  C_10
REMARK    5  A    between atoms: N_7  and  C_15
REMARK                            x       y       z     vdW  Elec       q    Type
REMARK                         _______ _______ _______ _____ _____    ______ ____
ROOT
ATOM      4  O   UNL     1      15.266  -6.095  26.150  0.00  0.00    -0.252 OA
ATOM      6  N   UNL     1      17.167  -5.175  25.208  0.00  0.00    -0.292 N 
ATOM      7  N   UNL     1      17.405  -6.748  26.866  0.00  0.00    -0.269 N 
ATOM     14  C   UNL     1      16.492  -6.025  26.093  0.00  0.00    +0.304 C 
ATOM     22  H   UNL     1      18.180  -5.223  25.172  0.00  0.00    +0.151 HD
ATOM     24  H   UNL     1      18.390  -6.569  26.693  0.00  0.00    +0.156 HD
ENDROOT
BRANCH   6  10
ATOM      1  O   UNL     1      16.069  -2.267  25.458  0.00  0.00    -0.369 OA
ATOM      2  O   UNL     1      16.864  -2.645  22.532  0.00  0.00    -0.369 OA
ATOM      8  C   UNL     1      17.405  -3.212  23.745  0.00  0.00    +0.172 C 
ATOM      9  C   UNL     1      17.341  -2.127  24.800  0.00  0.00    +0.179 C 
ATOM     10  C   UNL     1      16.481  -4.290  24.268  0.00  0.00    +0.131 C 
ATOM     11  C   UNL     1      17.405  -0.864  23.974  0.00  0.00    +0.171 C 
ATOM     12  C   UNL     1      15.430  -3.470  25.001  0.00  0.00    +0.185 C 
ATOM     13  C   UNL     1      16.613  -1.247  22.744  0.00  0.00    +0.194 C 
BRANCH  11   3
ATOM      3  O   UNL     1      16.861   0.262  24.625  0.00  0.00    -0.387 OA
ATOM     23  H   UNL     1      17.296   1.055  24.269  0.00  0.00    +0.210 HD
ENDBRANCH  11   3
ENDBRANCH   6  10
BRANCH   7  15
ATOM     15  C   UNL     1      17.126  -7.706  27.869  0.00  0.00    +0.035 A 
ATOM     16  C   UNL     1      17.117  -9.051  27.539  0.00  0.00    +0.027 A 
ATOM     17  C   UNL     1      16.866  -7.278  29.161  0.00  0.00    +0.027 A 
ATOM     18  C   UNL     1      16.842  -9.994  28.529  0.00  0.00    +0.047 A 
ATOM     19  C   UNL     1      16.590  -8.222  30.150  0.00  0.00    +0.047 A 
ATOM     20  C   UNL     1      16.578  -9.581  29.834  0.00  0.00    +0.120 A 
BRANCH  20   5
ATOM      5  O   UNL     1      16.311 -10.501  30.799  0.00  0.00    -0.495 OA
ATOM     21  C   UNL     1      15.551 -10.061  31.924  0.00  0.00    +0.277 C 
ENDBRANCH  20   5
ENDBRANCH   7  15
TORSDOF 4
ENDMDL
MODEL 7
REMARK VINA RESULT:      -0.6     27.044     28.788
REMARK  Name = 11884355
REMARK  5 active torsions:
REMARK  status: ('A' for Active; 'I' for Inactive)
REMARK    1  A    between atoms: O_3  and  C_11
REMARK    2  A    between atoms: O_5  and  C_20
REMARK    3  A    between atoms: O_5  and  C_21
REMARK    4  A    between atoms: N_6  and  C_10
REMARK    5  A    between atoms: N_7  and  C_15
REMARK                            x       y       z     vdW  Elec       q    Type
REMARK                         _______ _______ _______ _____ _____    ______ ____
ROOT
ATOM      4  O   UNL     1      -6.166  -9.089  11.039  0.00  0.00    -0.252 OA
ATOM      6  N   UNL     1      -6.808 -10.647   9.457  0.00  0.00    -0.292 N 
ATOM      7  N   UNL     1      -4.578 -10.447   9.970  0.00  0.00    -0.269 N 
ATOM     14  C   UNL     1      -5.864  -9.972  10.239  0.00  0.00    +0.304 C 
ATOM     22  H   UNL     1      -6.489 -11.411   8.869  0.00  0.00    +0.151 HD
ATOM     24  H   UNL     1      -4.501 -11.184   9.275  0.00  0.00    +0.156 HD
ENDROOT
BRANCH   6  10
ATOM      1  O   UNL     1      -8.438  -8.084  10.160  0.00  0.00    -0.369 OA
ATOM      2  O   UNL     1     -10.131  -9.668   8.170  0.00  0.00    -0.369 OA
ATOM      8  C   UNL     1      -8.699  -9.556   8.323  0.00  0.00    +0.172 C 
ATOM      9  C   UNL     1      -8.413  -8.123   8.722  0.00  0.00    +0.179 C 
ATOM     10  C   UNL     1      -8.242 -10.369   9.515  0.00  0.00    +0.131 C 
ATOM     11  C   UNL     1      -9.583  -7.379   8.124  0.00  0.00    +0.171 C 
ATOM     12  C   UNL     1      -8.540  -9.423  10.669  0.00  0.00    +0.185 C 
ATOM     13  C   UNL     1     -10.715  -8.364   8.306  0.00  0.00    +0.194 C 
BRANCH  11   3
ATOM      3  O   UNL     1      -9.846  -6.145   8.754  0.00  0.00    -0.387 OA
ATOM     23  H   UNL     1      -9.022  -5.629   8.762  0.00  0.00    +0.210 HD
ENDBRANCH  11   3
ENDBRANCH   6  10
BRANCH   7  15
ATOM     15  C   UNL     1      -3.357 -10.026  10.550  0.00  0.00    +0.035 A 
ATOM     16  C   UNL     1      -2.685  -8.945  10.005  0.00  0.00    +0.027 A 
ATOM     17  C   UNL     1      -2.860 -10.706  11.649  0.00  0.00    +0.027 A 
ATOM     18  C   UNL     1      -1.482  -8.531  10.576  0.00  0.00    +0.047 A 
ATOM     19  C   UNL     1      -1.655 -10.292  12.220  0.00  0.00    +0.047 A 
ATOM     20  C   UNL     1      -0.966  -9.205  11.683  0.00  0.00    +0.120 A 
BRANCH  20   5
ATOM      5  O   UNL     1       0.207  -8.800  12.241  0.00  0.00    -0.495 OA
ATOM     21  C   UNL     1       0.370  -7.400  12.465  0.00  0.00    +0.277 C 
ENDBRANCH  20   5
ENDBRANCH   7  15
TORSDOF 4
ENDMDL
MODEL 8
REMARK VINA RESULT:      -0.6     18.384     20.138
REMARK  Name = 11884355
REMARK  5 active torsions:
REMARK  status: ('A' for Active; 'I' for Inactive)
REMARK    1  A    between atoms: O_3  and  C_11
REMARK    2  A    between atoms: O_5  and  C_20
REMARK    3  A    between atoms: O_5  and  C_21
REMARK    4  A    between atoms: N_6  and  C_10
REMARK    5  A    between atoms: N_7  and  C_15
REMARK                            x       y       z     vdW  Elec       q    Type
REMARK                         _______ _______ _______ _____ _____    ______ ____
ROOT
ATOM      4  O   UNL     1       0.361   2.835  24.401  0.00  0.00    -0.252 OA
ATOM      6  N   UNL     1      -1.591   1.806  23.709  0.00  0.00    -0.292 N 
ATOM      7  N   UNL     1       0.416   0.774  23.277  0.00  0.00    -0.269 N 
ATOM     14  C   UNL     1      -0.200   1.891  23.848  0.00  0.00    +0.304 C 
ATOM     22  H   UNL     1      -1.983   0.964  23.300  0.00  0.00    +0.151 HD
ATOM     24  H   UNL     1      -0.196   0.082  22.856  0.00  0.00    +0.156 HD
ENDROOT
BRANCH   6  10
ATOM      1  O   UNL     1      -4.667   2.214  23.405  0.00  0.00    -0.369 OA
ATOM      2  O   UNL     1      -3.895   3.423  26.102  0.00  0.00    -0.369 OA
ATOM      8  C   UNL     1      -3.338   2.314  25.364  0.00  0.00    +0.172 C 
ATOM      9  C   UNL     1      -4.501   1.606  24.698  0.00  0.00    +0.179 C 
ATOM     10  C   UNL     1      -2.509   2.829  24.207  0.00  0.00    +0.131 C 
ATOM     11  C   UNL     1      -5.652   1.932  25.619  0.00  0.00    +0.171 C 
ATOM     12  C   UNL     1      -3.577   3.118  23.163  0.00  0.00    +0.185 C 
ATOM     13  C   UNL     1      -5.328   3.345  26.048  0.00  0.00    +0.194 C 
BRANCH  11   3
ATOM      3  O   UNL     1      -6.913   1.843  24.996  0.00  0.00    -0.387 OA
ATOM     23  H   UNL     1      -7.017   2.616  24.415  0.00  0.00    +0.210 HD
ENDBRANCH  11   3
ENDBRANCH   6  10
BRANCH   7  15
ATOM     15  C   UNL     1       1.800   0.485  23.212  0.00  0.00    +0.035 A 
ATOM     16  C   UNL     1       2.688   1.489  22.865  0.00  0.00    +0.027 A 
ATOM     17  C   UNL     1       2.237  -0.799  23.494  0.00  0.00    +0.027 A 
ATOM     18  C   UNL     1       4.051   1.203  22.799  0.00  0.00    +0.047 A 
ATOM     19  C   UNL     1       3.601  -1.085  23.428  0.00  0.00    +0.047 A 
ATOM     20  C   UNL     1       4.508  -0.084  23.080  0.00  0.00    +0.120 A 
BRANCH  20   5
ATOM      5  O   UNL     1       5.838  -0.363  23.018  0.00  0.00    -0.495 OA
ATOM     21  C   UNL     1       6.469  -0.792  24.224  0.00  0.00    +0.277 C 
ENDBRANCH  20   5
ENDBRANCH   7  15
TORSDOF 4
ENDMDL
MODEL 9
REMARK VINA RESULT:      -0.4     24.579     26.375
REMARK  Name = 11884355
REMARK  5 active torsions:
REMARK  status: ('A' for Active; 'I' for Inactive)
REMARK    1  A    between atoms: O_3  and  C_11
REMARK    2  A    between atoms: O_5  and  C_20
REMARK    3  A    between atoms: O_5  and  C_21
REMARK    4  A    between atoms: N_6  and  C_10
REMARK    5  A    between atoms: N_7  and  C_15
REMARK                            x       y       z     vdW  Elec       q    Type
REMARK                         _______ _______ _______ _____ _____    ______ ____
ROOT
ATOM      4  O   UNL     1      -2.887  -9.348   9.631  0.00  0.00    -0.252 OA
ATOM      6  N   UNL     1      -4.143 -10.415  11.253  0.00  0.00    -0.292 N 
ATOM      7  N   UNL     1      -2.093  -9.553  11.830  0.00  0.00    -0.269 N 
ATOM     14  C   UNL     1      -3.013  -9.728  10.793  0.00  0.00    +0.304 C 
ATOM     22  H   UNL     1      -4.204 -10.636  12.241  0.00  0.00    +0.151 HD
ATOM     24  H   UNL     1      -2.353  -9.931  12.738  0.00  0.00    +0.156 HD
ENDROOT
BRANCH   6  10
ATOM      1  O   UNL     1      -7.031  -9.260  11.030  0.00  0.00    -0.369 OA
ATOM      2  O   UNL     1      -6.284 -10.271   8.245  0.00  0.00    -0.369 OA
ATOM      8  C   UNL     1      -5.473  -9.718   9.304  0.00  0.00    +0.172 C 
ATOM      9  C   UNL     1      -6.298  -8.631   9.963  0.00  0.00    +0.179 C 
ATOM     10  C   UNL     1      -5.281 -10.748  10.397  0.00  0.00    +0.131 C 
ATOM     11  C   UNL     1      -7.210  -8.190   8.844  0.00  0.00    +0.171 C 
ATOM     12  C   UNL     1      -6.577 -10.614  11.182  0.00  0.00    +0.185 C 
ATOM     13  C   UNL     1      -7.485  -9.491   8.124  0.00  0.00    +0.194 C 
BRANCH  11   3
ATOM      3  O   UNL     1      -8.395  -7.573   9.294  0.00  0.00    -0.387 OA
ATOM     23  H   UNL     1      -8.715  -6.984   8.590  0.00  0.00    +0.210 HD
ENDBRANCH  11   3
ENDBRANCH   6  10
BRANCH   7  15
ATOM     15  C   UNL     1      -0.834  -8.911  11.776  0.00  0.00    +0.035 A 
ATOM     16  C   UNL     1      -0.536  -7.921  12.697  0.00  0.00    +0.027 A 
ATOM     17  C   UNL     1       0.075  -9.285  10.800  0.00  0.00    +0.027 A 
ATOM     18  C   UNL     1       0.705  -7.288  12.642  0.00  0.00    +0.047 A 
ATOM     19  C   UNL     1       1.317  -8.651  10.745  0.00  0.00    +0.047 A 
ATOM     20  C   UNL     1       1.632  -7.652  11.666  0.00  0.00    +0.120 A 
BRANCH  20   5
ATOM      5  O   UNL     1       2.844  -7.036  11.614  0.00  0.00    -0.495 OA
ATOM     21  C   UNL     1       2.969  -5.791  12.299  0.00  0.00    +0.277 C 
ENDBRANCH  20   5
ENDBRANCH   7  15
TORSDOF 4
ENDMDL
MODEL 10
REMARK VINA RESULT:      -0.3     17.454     19.246
REMARK  Name = 11884355
REMARK  5 active torsions:
REMARK  status: ('A' for Active; 'I' for Inactive)
REMARK    1  A    between atoms: O_3  and  C_11
REMARK    2  A    between atoms: O_5  and  C_20
REMARK    3  A    between atoms: O_5  and  C_21
REMARK    4  A    between atoms: N_6  and  C_10
REMARK    5  A    between atoms: N_7  and  C_15
REMARK                            x       y       z     vdW  Elec       q    Type
REMARK                         _______ _______ _______ _____ _____    ______ ____
ROOT
ATOM      4  O   UNL     1       0.022   0.214  24.793  0.00  0.00    -0.252 OA
ATOM      6  N   UNL     1      -1.181   0.876  22.933  0.00  0.00    -0.292 N 
ATOM      7  N   UNL     1       1.080   0.523  22.721  0.00  0.00    -0.269 N 
ATOM     14  C   UNL     1      -0.007   0.506  23.600  0.00  0.00    +0.304 C 
ATOM     22  H   UNL     1      -1.136   1.037  21.931  0.00  0.00    +0.151 HD
ATOM     24  H   UNL     1       0.884   0.790  21.760  0.00  0.00    +0.156 HD
ENDROOT
BRANCH   6  10
ATOM      1  O   UNL     1      -2.100   2.028  25.681  0.00  0.00    -0.369 OA
ATOM      2  O   UNL     1      -4.475   2.318  23.780  0.00  0.00    -0.369 OA
ATOM      8  C   UNL     1      -3.053   2.354  23.536  0.00  0.00    +0.172 C 
ATOM      9  C   UNL     1      -2.423   3.053  24.723  0.00  0.00    +0.179 C 
ATOM     10  C   UNL     1      -2.485   0.952  23.589  0.00  0.00    +0.131 C 
ATOM     11  C   UNL     1      -3.544   3.939  25.212  0.00  0.00    +0.171 C 
ATOM     12  C   UNL     1      -2.323   0.740  25.087  0.00  0.00    +0.185 C 
ATOM     13  C   UNL     1      -4.762   3.078  24.964  0.00  0.00    +0.194 C 
BRANCH  11   3
ATOM      3  O   UNL     1      -3.420   4.306  26.568  0.00  0.00    -0.387 OA
ATOM     23  H   UNL     1      -3.599   5.260  26.639  0.00  0.00    +0.210 HD
ENDBRANCH  11   3
ENDBRANCH   6  10
BRANCH   7  15
ATOM     15  C   UNL     1       2.431   0.213  23.003  0.00  0.00    +0.035 A 
ATOM     16  C   UNL     1       3.402   1.183  22.821  0.00  0.00    +0.027 A 
ATOM     17  C   UNL     1       2.754  -1.056  23.456  0.00  0.00    +0.027 A 
ATOM     18  C   UNL     1       4.734   0.876  23.099  0.00  0.00    +0.047 A 
ATOM     19  C   UNL     1       4.087  -1.362  23.734  0.00  0.00    +0.047 A 
ATOM     20  C   UNL     1       5.077  -0.396  23.555  0.00  0.00    +0.120 A 
BRANCH  20   5
ATOM      5  O   UNL     1       6.376  -0.694  23.828  0.00  0.00    -0.495 OA
ATOM     21  C   UNL     1       7.306  -0.592  22.751  0.00  0.00    +0.277 C 
ENDBRANCH  20   5
ENDBRANCH   7  15
TORSDOF 4
ENDMDL
