MODEL 1
REMARK VINA RESULT:      -6.6      0.000      0.000
REMARK  Name = 71694384
REMARK  7 active torsions:
REMARK  status: ('A' for Active; 'I' for Inactive)
REMARK    1  A    between atoms: O_4  and  C_20
REMARK    2  A    between atoms: N_5  and  C_7
REMARK    3  A    between atoms: N_5  and  C_8
REMARK    4  A    between atoms: C_7  and  C_11
REMARK    5  A    between atoms: C_11  and  C_16
REMARK    6  A    between atoms: C_18  and  C_19
REMARK    7  A    between atoms: C_19  and  C_20
REMARK                            x       y       z     vdW  Elec       q    Type
REMARK                         _______ _______ _______ _____ _____    ______ ____
ROOT
ATOM      1  O   UNL     1      -3.460  -2.838  24.807  0.00  0.00    -0.376 OA
ATOM      7  C   UNL     1      -2.673  -0.858  24.969  0.00  0.00    +0.072 C 
ATOM      9  C   UNL     1      -3.639  -1.753  25.755  0.00  0.00    +0.184 C 
ATOM     10  C   UNL     1      -2.336  -2.143  24.203  0.00  0.00    +0.184 C 
ENDROOT
BRANCH   7   5
ATOM      5  N   UNL     1      -3.460   0.015  24.093  0.00  0.00    -0.304 NA
ATOM     21  H   UNL     1      -3.070   0.161  23.163  0.00  0.00    +0.123 HD
BRANCH   5   8
ATOM      2  O   UNL     1      -5.065   3.819  24.859  0.00  0.00    -0.380 OA
ATOM      8  C   UNL     1      -3.678   1.298  24.757  0.00  0.00    +0.059 C 
ATOM     12  C   UNL     1      -5.119   1.423  25.259  0.00  0.00    +0.047 C 
ATOM     13  C   UNL     1      -3.353   2.453  23.805  0.00  0.00    +0.047 C 
ATOM     14  C   UNL     1      -5.365   2.815  25.829  0.00  0.00    +0.161 C 
ATOM     15  C   UNL     1      -3.696   3.789  24.455  0.00  0.00    +0.161 C 
ENDBRANCH   5   8
ENDBRANCH   7   5
BRANCH   7  11
ATOM     11  C   UNL     1      -1.581  -0.129  25.709  0.00  0.00    +0.085 C 
BRANCH  11  16
ATOM      3  O   UNL     1       0.980   1.498  23.754  0.00  0.00    -0.359 OA
ATOM      6  N   UNL     1      -0.040   1.508  24.698  0.00  0.00    -0.083 NA
ATOM     16  C   UNL     1      -0.459   0.242  24.766  0.00  0.00    +0.086 A 
ATOM     17  C   UNL     1       0.251  -0.604  23.898  0.00  0.00    +0.071 A 
ATOM     18  C   UNL     1       1.144   0.234  23.285  0.00  0.00    +0.140 A 
BRANCH  18  19
ATOM     19  C   UNL     1       2.190   0.043  22.273  0.00  0.00    +0.105 C 
BRANCH  19  20
ATOM     20  C   UNL     1       3.535   0.703  22.635  0.00  0.00    +0.163 C 
BRANCH  20   4
ATOM      4  O   UNL     1       4.281  -0.177  23.467  0.00  0.00    -0.395 OA
ATOM     22  H   UNL     1       4.531   0.325  24.260  0.00  0.00    +0.209 HD
ENDBRANCH  20   4
ENDBRANCH  19  20
ENDBRANCH  18  19
ENDBRANCH  11  16
ENDBRANCH   7  11
TORSDOF 7
ENDMDL
MODEL 2
REMARK VINA RESULT:      -6.4      2.352      4.579
REMARK  Name = 71694384
REMARK  7 active torsions:
REMARK  status: ('A' for Active; 'I' for Inactive)
REMARK    1  A    between atoms: O_4  and  C_20
REMARK    2  A    between atoms: N_5  and  C_7
REMARK    3  A    between atoms: N_5  and  C_8
REMARK    4  A    between atoms: C_7  and  C_11
REMARK    5  A    between atoms: C_11  and  C_16
REMARK    6  A    between atoms: C_18  and  C_19
REMARK    7  A    between atoms: C_19  and  C_20
REMARK                            x       y       z     vdW  Elec       q    Type
REMARK                         _______ _______ _______ _____ _____    ______ ____
ROOT
ATOM      1  O   UNL     1      -1.015   5.394  24.813  0.00  0.00    -0.376 OA
ATOM      7  C   UNL     1      -1.190   3.282  25.090  0.00  0.00    +0.072 C 
ATOM      9  C   UNL     1      -0.280   4.244  24.316  0.00  0.00    +0.184 C 
ATOM     10  C   UNL     1      -1.707   4.554  25.775  0.00  0.00    +0.184 C 
ENDROOT
BRANCH   7   5
ATOM      5  N   UNL     1      -2.227   2.791  24.176  0.00  0.00    -0.304 NA
ATOM     21  H   UNL     1      -2.471   3.425  23.417  0.00  0.00    +0.123 HD
BRANCH   5   8
ATOM      2  O   UNL     1      -6.269   2.041  25.028  0.00  0.00    -0.380 OA
ATOM      8  C   UNL     1      -3.419   2.438  24.943  0.00  0.00    +0.059 C 
ATOM     12  C   UNL     1      -4.091   1.186  24.372  0.00  0.00    +0.047 C 
ATOM     13  C   UNL     1      -4.410   3.605  24.956  0.00  0.00    +0.047 C 
ATOM     14  C   UNL     1      -5.403   0.908  25.099  0.00  0.00    +0.161 C 
ATOM     15  C   UNL     1      -5.704   3.195  25.651  0.00  0.00    +0.161 C 
ENDBRANCH   5   8
ENDBRANCH   7   5
BRANCH   7  11
ATOM     11  C   UNL     1      -0.567   2.193  25.924  0.00  0.00    +0.085 C 
BRANCH  11  16
ATOM      3  O   UNL     1      -0.533  -0.701  23.765  0.00  0.00    -0.359 OA
ATOM      6  N   UNL     1      -0.164   0.601  24.084  0.00  0.00    -0.083 NA
ATOM     16  C   UNL     1      -0.751   0.847  25.259  0.00  0.00    +0.086 A 
ATOM     17  C   UNL     1      -1.494  -0.250  25.726  0.00  0.00    +0.071 A 
ATOM     18  C   UNL     1      -1.324  -1.197  24.750  0.00  0.00    +0.140 A 
BRANCH  18  19
ATOM     19  C   UNL     1      -1.805  -2.572  24.573  0.00  0.00    +0.105 C 
BRANCH  19  20
ATOM     20  C   UNL     1      -3.304  -2.751  24.883  0.00  0.00    +0.163 C 
BRANCH  20   4
ATOM      4  O   UNL     1      -4.072  -2.264  23.790  0.00  0.00    -0.395 OA
ATOM     22  H   UNL     1      -5.003  -2.277  24.069  0.00  0.00    +0.209 HD
ENDBRANCH  20   4
ENDBRANCH  19  20
ENDBRANCH  18  19
ENDBRANCH  11  16
ENDBRANCH   7  11
TORSDOF 7
ENDMDL
MODEL 3
REMARK VINA RESULT:      -5.7      2.021      3.585
REMARK  Name = 71694384
REMARK  7 active torsions:
REMARK  status: ('A' for Active; 'I' for Inactive)
REMARK    1  A    between atoms: O_4  and  C_20
REMARK    2  A    between atoms: N_5  and  C_7
REMARK    3  A    between atoms: N_5  and  C_8
REMARK    4  A    between atoms: C_7  and  C_11
REMARK    5  A    between atoms: C_11  and  C_16
REMARK    6  A    between atoms: C_18  and  C_19
REMARK    7  A    between atoms: C_19  and  C_20
REMARK                            x       y       z     vdW  Elec       q    Type
REMARK                         _______ _______ _______ _____ _____    ______ ____
ROOT
ATOM      1  O   UNL     1      -1.398   5.636  25.070  0.00  0.00    -0.376 OA
ATOM      7  C   UNL     1      -1.411   3.501  25.154  0.00  0.00    +0.072 C 
ATOM      9  C   UNL     1      -0.577   4.596  24.477  0.00  0.00    +0.184 C 
ATOM     10  C   UNL     1      -2.024   4.662  25.947  0.00  0.00    +0.184 C 
ENDROOT
BRANCH   7   5
ATOM      5  N   UNL     1      -2.406   3.017  24.191  0.00  0.00    -0.304 NA
ATOM     21  H   UNL     1      -2.752   3.717  23.537  0.00  0.00    +0.123 HD
BRANCH   5   8
ATOM      2  O   UNL     1      -6.257   1.514  24.928  0.00  0.00    -0.380 OA
ATOM      8  C   UNL     1      -3.520   2.406  24.914  0.00  0.00    +0.059 C 
ATOM     12  C   UNL     1      -3.962   1.101  24.243  0.00  0.00    +0.047 C 
ATOM     13  C   UNL     1      -4.699   3.378  24.996  0.00  0.00    +0.047 C 
ATOM     14  C   UNL     1      -5.206   0.547  24.929  0.00  0.00    +0.161 C 
ATOM     15  C   UNL     1      -5.903   2.699  25.641  0.00  0.00    +0.161 C 
ENDBRANCH   5   8
ENDBRANCH   7   5
BRANCH   7  11
ATOM     11  C   UNL     1      -0.707   2.391  25.891  0.00  0.00    +0.085 C 
BRANCH  11  16
ATOM      3  O   UNL     1       0.062  -0.514  23.891  0.00  0.00    -0.359 OA
ATOM      6  N   UNL     1      -0.662   0.143  24.878  0.00  0.00    -0.083 NA
ATOM     16  C   UNL     1      -0.152   1.378  24.915  0.00  0.00    +0.086 A 
ATOM     17  C   UNL     1       0.885   1.557  23.984  0.00  0.00    +0.071 A 
ATOM     18  C   UNL     1       0.980   0.338  23.366  0.00  0.00    +0.140 A 
BRANCH  18  19
ATOM     19  C   UNL     1       1.836  -0.198  22.301  0.00  0.00    +0.105 C 
BRANCH  19  20
ATOM     20  C   UNL     1       3.276   0.350  22.326  0.00  0.00    +0.163 C 
BRANCH  20   4
ATOM      4  O   UNL     1       3.986  -0.241  23.407  0.00  0.00    -0.395 OA
ATOM     22  H   UNL     1       4.527   0.460  23.809  0.00  0.00    +0.209 HD
ENDBRANCH  20   4
ENDBRANCH  19  20
ENDBRANCH  18  19
ENDBRANCH  11  16
ENDBRANCH   7  11
TORSDOF 7
ENDMDL
MODEL 4
REMARK VINA RESULT:      -5.7      1.192      3.745
REMARK  Name = 71694384
REMARK  7 active torsions:
REMARK  status: ('A' for Active; 'I' for Inactive)
REMARK    1  A    between atoms: O_4  and  C_20
REMARK    2  A    between atoms: N_5  and  C_7
REMARK    3  A    between atoms: N_5  and  C_8
REMARK    4  A    between atoms: C_7  and  C_11
REMARK    5  A    between atoms: C_11  and  C_16
REMARK    6  A    between atoms: C_18  and  C_19
REMARK    7  A    between atoms: C_19  and  C_20
REMARK                            x       y       z     vdW  Elec       q    Type
REMARK                         _______ _______ _______ _____ _____    ______ ____
ROOT
ATOM      1  O   UNL     1      -4.336   3.721  25.574  0.00  0.00    -0.376 OA
ATOM      7  C   UNL     1      -3.123   2.282  24.563  0.00  0.00    +0.072 C 
ATOM      9  C   UNL     1      -4.604   2.679  24.599  0.00  0.00    +0.184 C 
ATOM     10  C   UNL     1      -2.907   3.575  25.360  0.00  0.00    +0.184 C 
ENDROOT
BRANCH   7   5
ATOM      5  N   UNL     1      -2.929   1.141  25.464  0.00  0.00    -0.304 NA
ATOM     21  H   UNL     1      -2.104   1.196  26.060  0.00  0.00    +0.123 HD
BRANCH   5   8
ATOM      2  O   UNL     1      -3.402  -2.926  24.535  0.00  0.00    -0.380 OA
ATOM      8  C   UNL     1      -2.908  -0.094  24.683  0.00  0.00    +0.059 C 
ATOM     12  C   UNL     1      -4.317  -0.675  24.533  0.00  0.00    +0.047 C 
ATOM     13  C   UNL     1      -1.984  -1.123  25.339  0.00  0.00    +0.047 C 
ATOM     14  C   UNL     1      -4.261  -2.028  23.832  0.00  0.00    +0.161 C 
ATOM     15  C   UNL     1      -2.056  -2.452  24.594  0.00  0.00    +0.161 C 
ENDBRANCH   5   8
ENDBRANCH   7   5
BRANCH   7  11
ATOM     11  C   UNL     1      -2.441   2.110  23.231  0.00  0.00    +0.085 C 
BRANCH  11  16
ATOM      3  O   UNL     1       1.008   1.744  24.234  0.00  0.00    -0.359 OA
ATOM      6  N   UNL     1      -0.236   2.360  24.307  0.00  0.00    -0.083 NA
ATOM     16  C   UNL     1      -0.996   1.706  23.424  0.00  0.00    +0.086 A 
ATOM     17  C   UNL     1      -0.294   0.679  22.771  0.00  0.00    +0.071 A 
ATOM     18  C   UNL     1       0.961   0.745  23.316  0.00  0.00    +0.140 A 
BRANCH  18  19
ATOM     19  C   UNL     1       2.199  -0.015  23.113  0.00  0.00    +0.105 C 
BRANCH  19  20
ATOM     20  C   UNL     1       3.409   0.859  22.727  0.00  0.00    +0.163 C 
BRANCH  20   4
ATOM      4  O   UNL     1       4.446   0.675  23.682  0.00  0.00    -0.395 OA
ATOM     22  H   UNL     1       4.221   1.220  24.454  0.00  0.00    +0.209 HD
ENDBRANCH  20   4
ENDBRANCH  19  20
ENDBRANCH  18  19
ENDBRANCH  11  16
ENDBRANCH   7  11
TORSDOF 7
ENDMDL
MODEL 5
REMARK VINA RESULT:      -5.6      1.459      2.188
REMARK  Name = 71694384
REMARK  7 active torsions:
REMARK  status: ('A' for Active; 'I' for Inactive)
REMARK    1  A    between atoms: O_4  and  C_20
REMARK    2  A    between atoms: N_5  and  C_7
REMARK    3  A    between atoms: N_5  and  C_8
REMARK    4  A    between atoms: C_7  and  C_11
REMARK    5  A    between atoms: C_11  and  C_16
REMARK    6  A    between atoms: C_18  and  C_19
REMARK    7  A    between atoms: C_19  and  C_20
REMARK                            x       y       z     vdW  Elec       q    Type
REMARK                         _______ _______ _______ _____ _____    ______ ____
ROOT
ATOM      1  O   UNL     1      -1.459  -2.356  25.313  0.00  0.00    -0.376 OA
ATOM      7  C   UNL     1      -1.157  -0.410  24.486  0.00  0.00    +0.072 C 
ATOM      9  C   UNL     1      -0.290  -1.529  25.074  0.00  0.00    +0.184 C 
ATOM     10  C   UNL     1      -2.275  -1.460  24.512  0.00  0.00    +0.184 C 
ENDROOT
BRANCH   7   5
ATOM      5  N   UNL     1      -1.419   0.576  25.540  0.00  0.00    -0.304 NA
ATOM     21  H   UNL     1      -2.001   0.244  26.308  0.00  0.00    +0.123 HD
BRANCH   5   8
ATOM      2  O   UNL     1      -3.715   4.075  25.206  0.00  0.00    -0.380 OA
ATOM      8  C   UNL     1      -2.001   1.777  24.945  0.00  0.00    +0.059 C 
ATOM     12  C   UNL     1      -1.580   3.032  25.715  0.00  0.00    +0.047 C 
ATOM     13  C   UNL     1      -3.528   1.669  24.914  0.00  0.00    +0.047 C 
ATOM     14  C   UNL     1      -2.300   4.259  25.165  0.00  0.00    +0.161 C 
ATOM     15  C   UNL     1      -4.141   2.971  24.407  0.00  0.00    +0.161 C 
ENDBRANCH   5   8
ENDBRANCH   7   5
BRANCH   7  11
ATOM     11  C   UNL     1      -0.759   0.215  23.173  0.00  0.00    +0.085 C 
BRANCH  11  16
ATOM      3  O   UNL     1       2.575   1.524  23.629  0.00  0.00    -0.359 OA
ATOM      6  N   UNL     1       1.205   1.538  23.862  0.00  0.00    -0.083 NA
ATOM     16  C   UNL     1       0.724   0.510  23.157  0.00  0.00    +0.086 A 
ATOM     17  C   UNL     1       1.733  -0.183  22.467  0.00  0.00    +0.071 A 
ATOM     18  C   UNL     1       2.877   0.494  22.797  0.00  0.00    +0.140 A 
BRANCH  18  19
ATOM     19  C   UNL     1       4.292   0.331  22.445  0.00  0.00    +0.105 C 
BRANCH  19  20
ATOM     20  C   UNL     1       5.211   0.087  23.659  0.00  0.00    +0.163 C 
BRANCH  20   4
ATOM      4  O   UNL     1       4.934  -1.195  24.207  0.00  0.00    -0.395 OA
ATOM     22  H   UNL     1       4.084  -1.128  24.673  0.00  0.00    +0.209 HD
ENDBRANCH  20   4
ENDBRANCH  19  20
ENDBRANCH  18  19
ENDBRANCH  11  16
ENDBRANCH   7  11
TORSDOF 7
ENDMDL
MODEL 6
REMARK VINA RESULT:      -4.9      2.137      2.981
REMARK  Name = 71694384
REMARK  7 active torsions:
REMARK  status: ('A' for Active; 'I' for Inactive)
REMARK    1  A    between atoms: O_4  and  C_20
REMARK    2  A    between atoms: N_5  and  C_7
REMARK    3  A    between atoms: N_5  and  C_8
REMARK    4  A    between atoms: C_7  and  C_11
REMARK    5  A    between atoms: C_11  and  C_16
REMARK    6  A    between atoms: C_18  and  C_19
REMARK    7  A    between atoms: C_19  and  C_20
REMARK                            x       y       z     vdW  Elec       q    Type
REMARK                         _______ _______ _______ _____ _____    ______ ____
ROOT
ATOM      1  O   UNL     1      -3.046  -3.176  24.284  0.00  0.00    -0.376 OA
ATOM      7  C   UNL     1      -2.516  -1.200  24.899  0.00  0.00    +0.072 C 
ATOM      9  C   UNL     1      -3.562  -2.255  25.281  0.00  0.00    +0.184 C 
ATOM     10  C   UNL     1      -1.876  -2.337  24.092  0.00  0.00    +0.184 C 
ENDROOT
BRANCH   7   5
ATOM      5  N   UNL     1      -3.133  -0.254  23.964  0.00  0.00    -0.304 NA
ATOM     21  H   UNL     1      -2.519   0.088  23.226  0.00  0.00    +0.123 HD
BRANCH   5   8
ATOM      2  O   UNL     1      -5.726   2.894  24.960  0.00  0.00    -0.380 OA
ATOM      8  C   UNL     1      -3.698   0.866  24.712  0.00  0.00    +0.059 C 
ATOM     12  C   UNL     1      -5.120   0.552  25.187  0.00  0.00    +0.047 C 
ATOM     13  C   UNL     1      -3.701   2.133  23.853  0.00  0.00    +0.047 C 
ATOM     14  C   UNL     1      -5.742   1.777  25.849  0.00  0.00    +0.161 C 
ATOM     15  C   UNL     1      -4.401   3.271  24.588  0.00  0.00    +0.161 C 
ENDBRANCH   5   8
ENDBRANCH   7   5
BRANCH   7  11
ATOM     11  C   UNL     1      -1.721  -0.527  25.988  0.00  0.00    +0.085 C 
BRANCH  11  16
ATOM      3  O   UNL     1       0.217   1.895  24.141  0.00  0.00    -0.359 OA
ATOM      6  N   UNL     1      -0.264   0.608  24.355  0.00  0.00    -0.083 NA
ATOM     16  C   UNL     1      -1.022   0.702  25.450  0.00  0.00    +0.086 A 
ATOM     17  C   UNL     1      -1.058   2.008  25.966  0.00  0.00    +0.071 A 
ATOM     18  C   UNL     1      -0.263   2.719  25.107  0.00  0.00    +0.140 A 
BRANCH  18  19
ATOM     19  C   UNL     1       0.148   4.126  25.031  0.00  0.00    +0.105 C 
BRANCH  19  20
ATOM     20  C   UNL     1      -1.004   5.094  24.696  0.00  0.00    +0.163 C 
BRANCH  20   4
ATOM      4  O   UNL     1      -1.970   5.053  25.739  0.00  0.00    -0.395 OA
ATOM     22  H   UNL     1      -2.615   5.756  25.556  0.00  0.00    +0.209 HD
ENDBRANCH  20   4
ENDBRANCH  19  20
ENDBRANCH  18  19
ENDBRANCH  11  16
ENDBRANCH   7  11
TORSDOF 7
ENDMDL
MODEL 7
REMARK VINA RESULT:      -4.7      1.901      5.056
REMARK  Name = 71694384
REMARK  7 active torsions:
REMARK  status: ('A' for Active; 'I' for Inactive)
REMARK    1  A    between atoms: O_4  and  C_20
REMARK    2  A    between atoms: N_5  and  C_7
REMARK    3  A    between atoms: N_5  and  C_8
REMARK    4  A    between atoms: C_7  and  C_11
REMARK    5  A    between atoms: C_11  and  C_16
REMARK    6  A    between atoms: C_18  and  C_19
REMARK    7  A    between atoms: C_19  and  C_20
REMARK                            x       y       z     vdW  Elec       q    Type
REMARK                         _______ _______ _______ _____ _____    ______ ____
ROOT
ATOM      1  O   UNL     1      -3.466  -3.041  25.785  0.00  0.00    -0.376 OA
ATOM      7  C   UNL     1      -2.963  -1.506  24.388  0.00  0.00    +0.072 C 
ATOM      9  C   UNL     1      -3.313  -2.998  24.342  0.00  0.00    +0.184 C 
ATOM     10  C   UNL     1      -3.426  -1.591  25.848  0.00  0.00    +0.184 C 
ENDROOT
BRANCH   7   5
ATOM      5  N   UNL     1      -1.503  -1.373  24.368  0.00  0.00    -0.304 NA
ATOM     21  H   UNL     1      -1.010  -1.902  25.086  0.00  0.00    +0.123 HD
BRANCH   5   8
ATOM      2  O   UNL     1       0.759   2.066  25.198  0.00  0.00    -0.380 OA
ATOM      8  C   UNL     1      -1.145   0.042  24.446  0.00  0.00    +0.059 C 
ATOM     12  C   UNL     1       0.106   0.341  23.616  0.00  0.00    +0.047 C 
ATOM     13  C   UNL     1      -0.918   0.454  25.903  0.00  0.00    +0.047 C 
ATOM     14  C   UNL     1       0.542   1.789  23.814  0.00  0.00    +0.161 C 
ATOM     15  C   UNL     1      -0.426   1.896  25.976  0.00  0.00    +0.161 C 
ENDBRANCH   5   8
ENDBRANCH   7   5
BRANCH   7  11
ATOM     11  C   UNL     1      -3.659  -0.559  23.444  0.00  0.00    +0.085 C 
BRANCH  11  16
ATOM      3  O   UNL     1      -5.048   2.030  25.542  0.00  0.00    -0.359 OA
ATOM      6  N   UNL     1      -4.965   0.713  25.105  0.00  0.00    -0.083 NA
ATOM     16  C   UNL     1      -4.024   0.724  24.156  0.00  0.00    +0.086 A 
ATOM     17  C   UNL     1      -3.484   2.005  23.953  0.00  0.00    +0.071 A 
ATOM     18  C   UNL     1      -4.161   2.790  24.849  0.00  0.00    +0.140 A 
BRANCH  18  19
ATOM     19  C   UNL     1      -4.117   4.217  25.188  0.00  0.00    +0.105 C 
BRANCH  19  20
ATOM     20  C   UNL     1      -2.958   4.596  26.131  0.00  0.00    +0.163 C 
BRANCH  20   4
ATOM      4  O   UNL     1      -1.831   4.987  25.357  0.00  0.00    -0.395 OA
ATOM     22  H   UNL     1      -2.164   5.528  24.622  0.00  0.00    +0.209 HD
ENDBRANCH  20   4
ENDBRANCH  19  20
ENDBRANCH  18  19
ENDBRANCH  11  16
ENDBRANCH   7  11
TORSDOF 7
ENDMDL
MODEL 8
REMARK VINA RESULT:      -4.5      2.439      5.458
REMARK  Name = 71694384
REMARK  7 active torsions:
REMARK  status: ('A' for Active; 'I' for Inactive)
REMARK    1  A    between atoms: O_4  and  C_20
REMARK    2  A    between atoms: N_5  and  C_7
REMARK    3  A    between atoms: N_5  and  C_8
REMARK    4  A    between atoms: C_7  and  C_11
REMARK    5  A    between atoms: C_11  and  C_16
REMARK    6  A    between atoms: C_18  and  C_19
REMARK    7  A    between atoms: C_19  and  C_20
REMARK                            x       y       z     vdW  Elec       q    Type
REMARK                         _______ _______ _______ _____ _____    ______ ____
ROOT
ATOM      1  O   UNL     1      -0.425  -1.723  25.649  0.00  0.00    -0.376 OA
ATOM      7  C   UNL     1      -0.839   0.067  24.558  0.00  0.00    +0.072 C 
ATOM      9  C   UNL     1       0.156  -1.097  24.475  0.00  0.00    +0.184 C 
ATOM     10  C   UNL     1      -1.552  -0.809  25.596  0.00  0.00    +0.184 C 
ENDROOT
BRANCH   7   5
ATOM      5  N   UNL     1      -0.190   1.181  25.255  0.00  0.00    -0.304 NA
ATOM     21  H   UNL     1      -0.141   1.089  26.268  0.00  0.00    +0.123 HD
BRANCH   5   8
ATOM      2  O   UNL     1      -1.127   5.274  25.253  0.00  0.00    -0.380 OA
ATOM      8  C   UNL     1      -0.854   2.431  24.891  0.00  0.00    +0.059 C 
ATOM     12  C   UNL     1       0.143   3.434  24.301  0.00  0.00    +0.047 C 
ATOM     13  C   UNL     1      -1.548   3.040  26.112  0.00  0.00    +0.047 C 
ATOM     14  C   UNL     1      -0.538   4.775  24.052  0.00  0.00    +0.161 C 
ATOM     15  C   UNL     1      -2.137   4.403  25.763  0.00  0.00    +0.161 C 
ENDBRANCH   5   8
ENDBRANCH   7   5
BRANCH   7  11
ATOM     11  C   UNL     1      -1.577   0.491  23.314  0.00  0.00    +0.085 C 
BRANCH  11  16
ATOM      3  O   UNL     1      -4.517   2.552  23.695  0.00  0.00    -0.359 OA
ATOM      6  N   UNL     1      -3.256   2.292  23.171  0.00  0.00    -0.083 NA
ATOM     16  C   UNL     1      -2.912   1.103  23.675  0.00  0.00    +0.086 A 
ATOM     17  C   UNL     1      -3.906   0.570  24.514  0.00  0.00    +0.071 A 
ATOM     18  C   UNL     1      -4.893   1.520  24.492  0.00  0.00    +0.140 A 
BRANCH  18  19
ATOM     19  C   UNL     1      -6.210   1.632  25.130  0.00  0.00    +0.105 C 
BRANCH  19  20
ATOM     20  C   UNL     1      -6.241   2.602  26.327  0.00  0.00    +0.163 C 
BRANCH  20   4
ATOM      4  O   UNL     1      -6.140   3.938  25.853  0.00  0.00    -0.395 OA
ATOM     22  H   UNL     1      -6.352   4.522  26.600  0.00  0.00    +0.209 HD
ENDBRANCH  20   4
ENDBRANCH  19  20
ENDBRANCH  18  19
ENDBRANCH  11  16
ENDBRANCH   7  11
TORSDOF 7
ENDMDL
MODEL 9
REMARK VINA RESULT:      -3.8      2.768      4.766
REMARK  Name = 71694384
REMARK  7 active torsions:
REMARK  status: ('A' for Active; 'I' for Inactive)
REMARK    1  A    between atoms: O_4  and  C_20
REMARK    2  A    between atoms: N_5  and  C_7
REMARK    3  A    between atoms: N_5  and  C_8
REMARK    4  A    between atoms: C_7  and  C_11
REMARK    5  A    between atoms: C_11  and  C_16
REMARK    6  A    between atoms: C_18  and  C_19
REMARK    7  A    between atoms: C_19  and  C_20
REMARK                            x       y       z     vdW  Elec       q    Type
REMARK                         _______ _______ _______ _____ _____    ______ ____
ROOT
ATOM      1  O   UNL     1      -5.730   3.230  25.451  0.00  0.00    -0.376 OA
ATOM      7  C   UNL     1      -4.105   1.964  24.883  0.00  0.00    +0.072 C 
ATOM      9  C   UNL     1      -5.464   2.379  24.305  0.00  0.00    +0.184 C 
ATOM     10  C   UNL     1      -4.353   3.095  25.890  0.00  0.00    +0.184 C 
ENDROOT
BRANCH   7   5
ATOM      5  N   UNL     1      -4.269   0.681  25.573  0.00  0.00    -0.304 NA
ATOM     21  H   UNL     1      -3.898   0.649  26.522  0.00  0.00    +0.123 HD
BRANCH   5   8
ATOM      2  O   UNL     1      -3.288  -3.195  24.292  0.00  0.00    -0.380 OA
ATOM      8  C   UNL     1      -3.679  -0.382  24.763  0.00  0.00    +0.059 C 
ATOM     12  C   UNL     1      -4.762  -1.270  24.143  0.00  0.00    +0.047 C 
ATOM     13  C   UNL     1      -2.728  -1.232  25.611  0.00  0.00    +0.047 C 
ATOM     14  C   UNL     1      -4.129  -2.449  23.412  0.00  0.00    +0.161 C 
ATOM     15  C   UNL     1      -2.206  -2.414  24.800  0.00  0.00    +0.161 C 
ENDBRANCH   5   8
ENDBRANCH   7   5
BRANCH   7  11
ATOM     11  C   UNL     1      -2.886   2.013  24.000  0.00  0.00    +0.085 C 
BRANCH  11  16
ATOM      3  O   UNL     1      -0.099   3.837  25.393  0.00  0.00    -0.359 OA
ATOM      6  N   UNL     1      -1.165   3.704  24.511  0.00  0.00    -0.083 NA
ATOM     16  C   UNL     1      -1.687   2.503  24.780  0.00  0.00    +0.086 A 
ATOM     17  C   UNL     1      -1.000   1.840  25.810  0.00  0.00    +0.071 A 
ATOM     18  C   UNL     1      -0.011   2.721  26.161  0.00  0.00    +0.140 A 
BRANCH  18  19
ATOM     19  C   UNL     1       1.069   2.694  27.155  0.00  0.00    +0.105 C 
BRANCH  19  20
ATOM     20  C   UNL     1       0.585   2.419  28.592  0.00  0.00    +0.163 C 
BRANCH  20   4
ATOM      4  O   UNL     1       1.701   2.088  29.408  0.00  0.00    -0.395 OA
ATOM     22  H   UNL     1       2.316   1.577  28.857  0.00  0.00    +0.209 HD
ENDBRANCH  20   4
ENDBRANCH  19  20
ENDBRANCH  18  19
ENDBRANCH  11  16
ENDBRANCH   7  11
TORSDOF 7
ENDMDL
MODEL 10
REMARK VINA RESULT:      -3.8      1.794      4.947
REMARK  Name = 71694384
REMARK  7 active torsions:
REMARK  status: ('A' for Active; 'I' for Inactive)
REMARK    1  A    between atoms: O_4  and  C_20
REMARK    2  A    between atoms: N_5  and  C_7
REMARK    3  A    between atoms: N_5  and  C_8
REMARK    4  A    between atoms: C_7  and  C_11
REMARK    5  A    between atoms: C_11  and  C_16
REMARK    6  A    between atoms: C_18  and  C_19
REMARK    7  A    between atoms: C_19  and  C_20
REMARK                            x       y       z     vdW  Elec       q    Type
REMARK                         _______ _______ _______ _____ _____    ______ ____
ROOT
ATOM      1  O   UNL     1      -3.441  -2.464  24.932  0.00  0.00    -0.376 OA
ATOM      7  C   UNL     1      -3.962  -0.426  24.560  0.00  0.00    +0.072 C 
ATOM      9  C   UNL     1      -4.461  -1.811  24.130  0.00  0.00    +0.184 C 
ATOM     10  C   UNL     1      -3.125  -1.205  25.582  0.00  0.00    +0.184 C 
ENDROOT
BRANCH   7   5
ATOM      5  N   UNL     1      -3.067   0.087  23.518  0.00  0.00    -0.304 NA
ATOM     21  H   UNL     1      -3.055  -0.452  22.654  0.00  0.00    +0.123 HD
BRANCH   5   8
ATOM      2  O   UNL     1       1.104   0.562  23.595  0.00  0.00    -0.380 OA
ATOM      8  C   UNL     1      -1.715   0.208  24.059  0.00  0.00    +0.059 C 
ATOM     12  C   UNL     1      -1.104   1.570  23.716  0.00  0.00    +0.047 C 
ATOM     13  C   UNL     1      -0.825  -0.916  23.522  0.00  0.00    +0.047 C 
ATOM     14  C   UNL     1       0.350   1.629  24.171  0.00  0.00    +0.161 C 
ATOM     15  C   UNL     1       0.614  -0.720  23.988  0.00  0.00    +0.161 C 
ENDBRANCH   5   8
ENDBRANCH   7   5
BRANCH   7  11
ATOM     11  C   UNL     1      -4.959   0.596  25.044  0.00  0.00    +0.085 C 
BRANCH  11  16
ATOM      3  O   UNL     1      -3.866   3.886  24.038  0.00  0.00    -0.359 OA
ATOM      6  N   UNL     1      -4.490   2.669  23.793  0.00  0.00    -0.083 NA
ATOM     16  C   UNL     1      -4.382   1.989  24.939  0.00  0.00    +0.086 A 
ATOM     17  C   UNL     1      -3.708   2.720  25.932  0.00  0.00    +0.071 A 
ATOM     18  C   UNL     1      -3.405   3.905  25.315  0.00  0.00    +0.140 A 
BRANCH  18  19
ATOM     19  C   UNL     1      -2.715   5.127  25.744  0.00  0.00    +0.105 C 
BRANCH  19  20
ATOM     20  C   UNL     1      -1.406   5.403  24.979  0.00  0.00    +0.163 C 
BRANCH  20   4
ATOM      4  O   UNL     1      -0.445   4.411  25.318  0.00  0.00    -0.395 OA
ATOM     22  H   UNL     1       0.432   4.815  25.208  0.00  0.00    +0.209 HD
ENDBRANCH  20   4
ENDBRANCH  19  20
ENDBRANCH  18  19
ENDBRANCH  11  16
ENDBRANCH   7  11
TORSDOF 7
ENDMDL
