MODEL 1
REMARK VINA RESULT:      -1.4      0.000      0.000
REMARK  Name = 45783641
REMARK  9 active torsions:
REMARK  status: ('A' for Active; 'I' for Inactive)
REMARK    1  A    between atoms: O_2  and  C_29
REMARK    2  A    between atoms: O_2  and  C_30
REMARK    3  A    between atoms: N_4  and  C_13
REMARK    4  A    between atoms: N_8  and  C_27
REMARK    5  A    between atoms: C_9  and  C_14
REMARK    6  A    between atoms: C_13  and  C_15
REMARK    7  A    between atoms: C_18  and  C_22
REMARK    8  A    between atoms: C_21  and  C_23
REMARK    9  A    between atoms: C_28  and  C_29
REMARK                            x       y       z     vdW  Elec       q    Type
REMARK                         _______ _______ _______ _____ _____    ______ ____
ROOT
ATOM      1  O   UNL     1      15.025  -7.489  29.515  0.00  0.00    -0.336 OA
ATOM      5  N   UNL     1      17.092  -6.950  28.840  0.00  0.00    -0.190 NA
ATOM      6  N   UNL     1      14.866  -6.670  28.390  0.00  0.00    -0.056 NA
ATOM     14  C   UNL     1      16.364  -7.603  29.712  0.00  0.00    +0.245 A 
ATOM     18  C   UNL     1      16.128  -6.393  28.050  0.00  0.00    +0.204 A 
ENDROOT
BRANCH  18  22
ATOM      7  N   UNL     1      16.714  -5.331  24.535  0.00  0.00    -0.239 NA
ATOM     22  C   UNL     1      16.462  -5.563  26.928  0.00  0.00    +0.041 A 
ATOM     24  C   UNL     1      16.845  -4.239  27.105  0.00  0.00    +0.016 A 
ATOM     25  C   UNL     1      16.413  -6.057  25.635  0.00  0.00    +0.124 A 
ATOM     26  C   UNL     1      17.162  -3.459  25.999  0.00  0.00    +0.044 A 
ATOM     27  C   UNL     1      17.082  -4.047  24.747  0.00  0.00    +0.125 A 
BRANCH  27   8
ATOM      3  O   UNL     1      15.305  -2.662  22.753  0.00  0.00    -0.273 OA
ATOM      8  N   UNL     1      17.405  -3.254  23.639  0.00  0.00    -0.268 N 
ATOM     28  C   UNL     1      16.533  -2.631  22.742  0.00  0.00    +0.244 C 
ATOM     31  H   UNL     1      18.403  -3.130  23.488  0.00  0.00    +0.156 HD
BRANCH  28  29
ATOM     29  C   UNL     1      17.273  -1.865  21.667  0.00  0.00    +0.255 C 
BRANCH  29   2
ATOM      2  O   UNL     1      17.404  -0.519  22.076  0.00  0.00    -0.374 OA
ATOM     30  C   UNL     1      17.105  -0.355  23.459  0.00  0.00    +0.194 C 
ENDBRANCH  29   2
ENDBRANCH  28  29
ENDBRANCH  27   8
ENDBRANCH  18  22
BRANCH  14   9
ATOM      4  N   UNL     1      15.753  -8.595  31.911  0.00  0.00    -0.287 NA
ATOM      9  C   UNL     1      16.805  -8.453  30.885  0.00  0.00    +0.146 C 
ATOM     10  C   UNL     1      17.148  -9.898  30.476  0.00  0.00    +0.030 C 
ATOM     11  C   UNL     1      16.285 -10.779  31.367  0.00  0.00    +0.017 C 
ATOM     12  C   UNL     1      15.974  -9.890  32.553  0.00  0.00    +0.085 C 
BRANCH   4  13
ATOM     13  C   UNL     1      15.739  -7.501  32.873  0.00  0.00    +0.120 C 
BRANCH  13  15
ATOM     15  C   UNL     1      14.510  -6.643  32.730  0.00  0.00    -0.033 A 
ATOM     16  C   UNL     1      14.639  -5.265  32.549  0.00  0.00    +0.005 A 
ATOM     17  C   UNL     1      13.243  -7.224  32.781  0.00  0.00    +0.005 A 
ATOM     19  C   UNL     1      13.501  -4.469  32.420  0.00  0.00    +0.003 A 
ATOM     20  C   UNL     1      12.105  -6.429  32.651  0.00  0.00    +0.003 A 
ATOM     21  C   UNL     1      12.234  -5.052  32.470  0.00  0.00    -0.050 A 
ATOM     23  C   UNL     1      11.016  -4.201  32.331  0.00  0.00    +0.044 C 
ENDBRANCH  13  15
ENDBRANCH   4  13
ENDBRANCH  14   9
TORSDOF 7
ENDMDL
MODEL 2
REMARK VINA RESULT:      -0.2     15.788     18.729
REMARK  Name = 45783641
REMARK  9 active torsions:
REMARK  status: ('A' for Active; 'I' for Inactive)
REMARK    1  A    between atoms: O_2  and  C_29
REMARK    2  A    between atoms: O_2  and  C_30
REMARK    3  A    between atoms: N_4  and  C_13
REMARK    4  A    between atoms: N_8  and  C_27
REMARK    5  A    between atoms: C_9  and  C_14
REMARK    6  A    between atoms: C_13  and  C_15
REMARK    7  A    between atoms: C_18  and  C_22
REMARK    8  A    between atoms: C_21  and  C_23
REMARK    9  A    between atoms: C_28  and  C_29
REMARK                            x       y       z     vdW  Elec       q    Type
REMARK                         _______ _______ _______ _____ _____    ______ ____
ROOT
ATOM      1  O   UNL     1      -2.433   3.459  24.601  0.00  0.00    -0.336 OA
ATOM      5  N   UNL     1      -2.089   1.412  23.758  0.00  0.00    -0.190 NA
ATOM      6  N   UNL     1      -1.047   3.328  24.451  0.00  0.00    -0.056 NA
ATOM     14  C   UNL     1      -2.971   2.288  24.171  0.00  0.00    +0.245 A 
ATOM     18  C   UNL     1      -0.923   2.096  23.949  0.00  0.00    +0.204 A 
ENDROOT
BRANCH  18  22
ATOM      7  N   UNL     1       2.742   1.782  23.403  0.00  0.00    -0.239 NA
ATOM     22  C   UNL     1       0.350   1.516  23.628  0.00  0.00    +0.041 A 
ATOM     24  C   UNL     1       0.454   0.184  23.245  0.00  0.00    +0.016 A 
ATOM     25  C   UNL     1       1.513   2.266  23.691  0.00  0.00    +0.124 A 
ATOM     26  C   UNL     1       1.701  -0.350  22.941  0.00  0.00    +0.044 A 
ATOM     27  C   UNL     1       2.804   0.483  23.034  0.00  0.00    +0.125 A 
BRANCH  27   8
ATOM      3  O   UNL     1       5.402   0.569  24.550  0.00  0.00    -0.273 OA
ATOM      8  N   UNL     1       4.055  -0.064  22.724  0.00  0.00    -0.268 N 
ATOM     28  C   UNL     1       5.235   0.008  23.471  0.00  0.00    +0.244 C 
ATOM     31  H   UNL     1       4.085  -0.571  21.843  0.00  0.00    +0.156 HD
BRANCH  28  29
ATOM     29  C   UNL     1       6.383  -0.707  22.791  0.00  0.00    +0.255 C 
BRANCH  29   2
ATOM      2  O   UNL     1       7.563   0.048  22.977  0.00  0.00    -0.374 OA
ATOM     30  C   UNL     1       8.730  -0.717  22.692  0.00  0.00    +0.194 C 
ENDBRANCH  29   2
ENDBRANCH  28  29
ENDBRANCH  27   8
ENDBRANCH  18  22
BRANCH  14   9
ATOM      4  N   UNL     1      -4.938   1.222  25.259  0.00  0.00    -0.287 NA
ATOM      9  C   UNL     1      -4.480   2.176  24.231  0.00  0.00    +0.146 C 
ATOM     10  C   UNL     1      -5.160   3.507  24.602  0.00  0.00    +0.030 C 
ATOM     11  C   UNL     1      -6.026   3.187  25.812  0.00  0.00    +0.017 C 
ATOM     12  C   UNL     1      -6.249   1.693  25.705  0.00  0.00    +0.085 C 
BRANCH   4  13
ATOM     13  C   UNL     1      -4.983  -0.155  24.785  0.00  0.00    +0.120 C 
BRANCH  13  15
ATOM     15  C   UNL     1      -3.660  -0.853  24.962  0.00  0.00    -0.033 A 
ATOM     16  C   UNL     1      -2.797  -0.461  25.987  0.00  0.00    +0.005 A 
ATOM     17  C   UNL     1      -3.295  -1.888  24.102  0.00  0.00    +0.005 A 
ATOM     19  C   UNL     1      -1.571  -1.103  26.150  0.00  0.00    +0.003 A 
ATOM     20  C   UNL     1      -2.069  -2.531  24.265  0.00  0.00    +0.003 A 
ATOM     21  C   UNL     1      -1.207  -2.139  25.289  0.00  0.00    -0.050 A 
ATOM     23  C   UNL     1       0.105  -2.828  25.464  0.00  0.00    +0.044 C 
ENDBRANCH  13  15
ENDBRANCH   4  13
ENDBRANCH  14   9
TORSDOF 7
ENDMDL
