MODEL 1
REMARK VINA RESULT:       5.3      0.000      0.000
REMARK  Name = 9421717
REMARK  4 active torsions:
REMARK  status: ('A' for Active; 'I' for Inactive)
REMARK    1  A    between atoms: N_5  and  C_24
REMARK    2  A    between atoms: C_13  and  C_14
REMARK    3  A    between atoms: C_24  and  C_25
REMARK    4  A    between atoms: C_24  and  C_26
REMARK                            x       y       z     vdW  Elec       q    Type
REMARK                         _______ _______ _______ _____ _____    ______ ____
ROOT
ATOM      1  O   UNL     1       0.324   0.386  21.738  0.00  0.00    -0.267 OA
ATOM      2  O   UNL     1      -1.840   2.920  26.765  0.00  0.00    -0.253 OA
ATOM      3  N   UNL     1      -1.283  -0.121  23.354  0.00  0.00    -0.312 N 
ATOM      4  N   UNL     1      -3.108   1.839  25.147  0.00  0.00    -0.285 N 
ATOM      5  N   UNL     1      -2.348   4.057  24.839  0.00  0.00    -0.297 N 
ATOM      6  C   UNL     1      -3.746   0.523  23.105  0.00  0.00    +0.027 C 
ATOM      7  C   UNL     1      -2.994  -0.655  25.122  0.00  0.00    +0.054 C 
ATOM      8  C   UNL     1      -4.014  -0.688  23.987  0.00  0.00    +0.018 C 
ATOM      9  C   UNL     1      -2.351   0.381  22.482  0.00  0.00    +0.130 C 
ATOM     10  C   UNL     1      -3.890   1.833  23.901  0.00  0.00    +0.114 C 
ATOM     11  C   UNL     1      -3.206   0.618  25.958  0.00  0.00    +0.119 C 
ATOM     12  C   UNL     1      -1.573  -0.696  24.593  0.00  0.00    +0.027 A 
ATOM     14  C   UNL     1       1.102  -0.701  23.684  0.00  0.00    +0.020 A 
ATOM     15  C   UNL     1       0.026  -0.093  22.833  0.00  0.00    +0.255 A 
ATOM     16  C   UNL     1      -0.594  -1.256  25.321  0.00  0.00    +0.022 A 
ATOM     19  C   UNL     1       0.763  -1.254  24.856  0.00  0.00    +0.011 A 
ATOM     23  C   UNL     1      -2.393   2.937  25.660  0.00  0.00    +0.302 C 
ATOM     27  H   UNL     1      -2.920   4.121  24.008  0.00  0.00    +0.150 HD
ENDROOT
BRANCH  14  13
ATOM     13  C   UNL     1       2.509  -0.668  23.165  0.00  0.00    +0.024 C 
ATOM     17  C   UNL     1       3.442  -1.486  24.069  0.00  0.00    +0.008 C 
ATOM     18  C   UNL     1       3.009   0.777  23.033  0.00  0.00    +0.008 C 
ATOM     20  C   UNL     1       4.890  -1.427  23.586  0.00  0.00    +0.001 C 
ATOM     21  C   UNL     1       4.457   0.832  22.553  0.00  0.00    +0.001 C 
ATOM     22  C   UNL     1       5.379   0.012  23.449  0.00  0.00    +0.000 C 
ENDBRANCH  14  13
BRANCH   5  24
ATOM     24  C   UNL     1      -1.658   5.268  25.225  0.00  0.00    +0.068 C 
ATOM     25  C   UNL     1      -2.392   6.490  24.688  0.00  0.00    +0.027 C 
ATOM     26  C   UNL     1      -0.213   5.235  24.743  0.00  0.00    +0.027 C 
ENDBRANCH   5  24
TORSDOF 2
ENDMDL
MODEL 2
REMARK VINA RESULT:       6.7      1.478      6.341
REMARK  Name = 9421717
REMARK  4 active torsions:
REMARK  status: ('A' for Active; 'I' for Inactive)
REMARK    1  A    between atoms: N_5  and  C_24
REMARK    2  A    between atoms: C_13  and  C_14
REMARK    3  A    between atoms: C_24  and  C_25
REMARK    4  A    between atoms: C_24  and  C_26
REMARK                            x       y       z     vdW  Elec       q    Type
REMARK                         _______ _______ _______ _____ _____    ______ ____
ROOT
ATOM      1  O   UNL     1      -1.395   2.488  26.387  0.00  0.00    -0.267 OA
ATOM      2  O   UNL     1       0.769  -0.620  21.694  0.00  0.00    -0.253 OA
ATOM      3  N   UNL     1      -1.829   0.446  25.341  0.00  0.00    -0.312 N 
ATOM      4  N   UNL     1       0.158  -1.526  23.743  0.00  0.00    -0.285 N 
ATOM      5  N   UNL     1       2.230  -0.423  23.451  0.00  0.00    -0.297 N 
ATOM      6  C   UNL     1      -0.736  -1.746  26.080  0.00  0.00    +0.027 C 
ATOM      7  C   UNL     1      -2.291  -1.740  24.181  0.00  0.00    +0.054 C 
ATOM      8  C   UNL     1      -1.990  -2.404  25.523  0.00  0.00    +0.018 C 
ATOM      9  C   UNL     1      -1.033  -0.265  26.349  0.00  0.00    +0.130 C 
ATOM     10  C   UNL     1       0.459  -1.928  25.125  0.00  0.00    +0.114 C 
ATOM     11  C   UNL     1      -1.126  -2.004  23.213  0.00  0.00    +0.119 C 
ATOM     12  C   UNL     1      -2.508  -0.248  24.337  0.00  0.00    +0.027 A 
ATOM     14  C   UNL     1      -2.857   2.549  24.534  0.00  0.00    +0.020 A 
ATOM     15  C   UNL     1      -1.959   1.840  25.505  0.00  0.00    +0.255 A 
ATOM     16  C   UNL     1      -3.325   0.410  23.498  0.00  0.00    +0.022 A 
ATOM     19  C   UNL     1      -3.497   1.830  23.602  0.00  0.00    +0.011 A 
ATOM     23  C   UNL     1       1.033  -0.839  22.880  0.00  0.00    +0.302 C 
ATOM     27  H   UNL     1       2.505  -0.730  24.374  0.00  0.00    +0.150 HD
ENDROOT
BRANCH  14  13
ATOM     13  C   UNL     1      -3.001   4.036  24.669  0.00  0.00    +0.024 C 
ATOM     17  C   UNL     1      -3.705   4.630  23.442  0.00  0.00    +0.008 C 
ATOM     18  C   UNL     1      -1.633   4.700  24.886  0.00  0.00    +0.008 C 
ATOM     20  C   UNL     1      -3.820   6.150  23.536  0.00  0.00    +0.001 C 
ATOM     21  C   UNL     1      -1.752   6.219  24.978  0.00  0.00    +0.001 C 
ATOM     22  C   UNL     1      -2.459   6.803  23.760  0.00  0.00    +0.000 C 
ENDBRANCH  14  13
BRANCH   5  24
ATOM     24  C   UNL     1       3.237   0.288  22.696  0.00  0.00    +0.068 C 
ATOM     25  C   UNL     1       4.630  -0.124  23.152  0.00  0.00    +0.027 C 
ATOM     26  C   UNL     1       3.036   1.794  22.825  0.00  0.00    +0.027 C 
ENDBRANCH   5  24
TORSDOF 2
ENDMDL
MODEL 3
REMARK VINA RESULT:       7.3      3.315      5.696
REMARK  Name = 9421717
REMARK  4 active torsions:
REMARK  status: ('A' for Active; 'I' for Inactive)
REMARK    1  A    between atoms: N_5  and  C_24
REMARK    2  A    between atoms: C_13  and  C_14
REMARK    3  A    between atoms: C_24  and  C_25
REMARK    4  A    between atoms: C_24  and  C_26
REMARK                            x       y       z     vdW  Elec       q    Type
REMARK                         _______ _______ _______ _____ _____    ______ ____
ROOT
ATOM      1  O   UNL     1      -2.088   3.406  27.646  0.00  0.00    -0.267 OA
ATOM      2  O   UNL     1      -2.212  -1.075  23.611  0.00  0.00    -0.253 OA
ATOM      3  N   UNL     1      -2.220   3.198  25.325  0.00  0.00    -0.312 N 
ATOM      4  N   UNL     1      -3.504   0.852  23.524  0.00  0.00    -0.285 N 
ATOM      5  N   UNL     1      -4.075  -0.952  24.943  0.00  0.00    -0.297 N 
ATOM      6  C   UNL     1      -4.446   3.117  24.067  0.00  0.00    +0.027 C 
ATOM      7  C   UNL     1      -2.338   2.946  22.822  0.00  0.00    +0.054 C 
ATOM      8  C   UNL     1      -3.659   3.706  22.906  0.00  0.00    +0.018 C 
ATOM      9  C   UNL     1      -3.676   3.377  25.368  0.00  0.00    +0.130 C 
ATOM     10  C   UNL     1      -4.718   1.616  23.849  0.00  0.00    +0.114 C 
ATOM     11  C   UNL     1      -2.624   1.465  22.520  0.00  0.00    +0.119 C 
ATOM     12  C   UNL     1      -1.545   3.069  24.108  0.00  0.00    +0.027 A 
ATOM     14  C   UNL     1      -0.038   3.193  26.495  0.00  0.00    +0.020 A 
ATOM     15  C   UNL     1      -1.535   3.272  26.554  0.00  0.00    +0.255 A 
ATOM     16  C   UNL     1      -0.203   3.025  24.084  0.00  0.00    +0.022 A 
ATOM     19  C   UNL     1       0.557   3.087  25.299  0.00  0.00    +0.011 A 
ATOM     23  C   UNL     1      -3.194  -0.435  24.000  0.00  0.00    +0.302 C 
ATOM     27  H   UNL     1      -4.951  -0.492  25.148  0.00  0.00    +0.150 HD
ENDROOT
BRANCH  14  13
ATOM     13  C   UNL     1       0.719   3.250  27.789  0.00  0.00    +0.024 C 
ATOM     17  C   UNL     1       2.213   2.985  27.559  0.00  0.00    +0.008 C 
ATOM     18  C   UNL     1       0.140   2.254  28.804  0.00  0.00    +0.008 C 
ATOM     20  C   UNL     1       2.996   2.990  28.870  0.00  0.00    +0.001 C 
ATOM     21  C   UNL     1       0.927   2.261  30.113  0.00  0.00    +0.001 C 
ATOM     22  C   UNL     1       2.411   2.005  29.878  0.00  0.00    +0.000 C 
ENDBRANCH  14  13
BRANCH   5  24
ATOM     24  C   UNL     1      -3.899  -2.263  25.524  0.00  0.00    +0.068 C 
ATOM     25  C   UNL     1      -2.823  -2.225  26.601  0.00  0.00    +0.027 C 
ATOM     26  C   UNL     1      -3.564  -3.286  24.445  0.00  0.00    +0.027 C 
ENDBRANCH   5  24
TORSDOF 2
ENDMDL
