MODEL 1
REMARK VINA RESULT:       0.0      0.000      0.000
REMARK  Name = 7127894
REMARK  11 active torsions:
REMARK  status: ('A' for Active; 'I' for Inactive)
REMARK    1  A    between atoms: S_1  and  C_24
REMARK    2  A    between atoms: S_1  and  C_27
REMARK    3  A    between atoms: O_4  and  C_15
REMARK    4  A    between atoms: O_5  and  C_16
REMARK    5  A    between atoms: N_11  and  C_17
REMARK    6  A    between atoms: N_12  and  C_22
REMARK    7  A    between atoms: N_13  and  C_28
REMARK    8  A    between atoms: C_19  and  C_21
REMARK    9  A    between atoms: C_22  and  C_23
REMARK   10  A    between atoms: C_22  and  C_26
REMARK   11  A    between atoms: C_23  and  C_24
REMARK                            x       y       z     vdW  Elec       q    Type
REMARK                         _______ _______ _______ _____ _____    ______ ____
ROOT
ATOM     15  C   UNL     1      -2.652  -2.420  24.462  0.00  0.00    +0.167 C 
ATOM     16  C   UNL     1      -4.146  -2.234  24.175  0.00  0.00    +0.149 C 
ATOM     17  C   UNL     1      -1.809  -1.310  23.807  0.00  0.00    +0.129 C 
ATOM     18  C   UNL     1      -4.653  -0.850  24.616  0.00  0.00    +0.074 C 
ATOM     19  C   UNL     1      -3.672   0.256  24.351  0.00  0.00    +0.015 C 
ATOM     20  C   UNL     1      -2.396   0.065  23.979  0.00  0.00    +0.006 C 
ENDROOT
BRANCH  17  11
ATOM      7  O   UNL     1       0.546  -0.543  22.366  0.00  0.00    -0.252 OA
ATOM     11  N   UNL     1      -0.455  -1.304  24.307  0.00  0.00    -0.290 N 
ATOM     13  N   UNL     1       1.822  -1.009  24.280  0.00  0.00    -0.267 N 
ATOM     25  C   UNL     1       0.644  -0.913  23.534  0.00  0.00    +0.304 C 
ATOM     34  H   UNL     1      -0.283  -1.648  25.246  0.00  0.00    +0.151 HD
ATOM     38  H   UNL     1       1.731  -1.334  25.240  0.00  0.00    +0.156 HD
BRANCH  13  28
ATOM      2  F   UNL     1       2.456   1.459  23.176  0.00  0.00    -0.203 F 
ATOM      3  F   UNL     1       6.973   0.154  22.660  0.00  0.00    -0.205 F 
ATOM     28  C   UNL     1       3.140  -0.709  23.865  0.00  0.00    +0.070 A 
ATOM     29  C   UNL     1       3.416   0.535  23.319  0.00  0.00    +0.147 A 
ATOM     30  C   UNL     1       4.130  -1.666  24.013  0.00  0.00    +0.029 A 
ATOM     31  C   UNL     1       4.717   0.828  22.910  0.00  0.00    +0.078 A 
ATOM     32  C   UNL     1       5.432  -1.374  23.605  0.00  0.00    +0.040 A 
ATOM     33  C   UNL     1       5.725  -0.126  23.053  0.00  0.00    +0.126 A 
ENDBRANCH  13  28
ENDBRANCH  17  11
BRANCH  19  21
ATOM      6  O   UNL     1      -4.860   2.151  23.631  0.00  0.00    -0.271 OA
ATOM     12  N   UNL     1      -3.676   2.254  25.637  0.00  0.00    -0.300 N 
ATOM     21  C   UNL     1      -4.137   1.640  24.485  0.00  0.00    +0.241 C 
ATOM     35  H   UNL     1      -3.067   1.759  26.278  0.00  0.00    +0.150 HD
BRANCH  12  22
ATOM     22  C   UNL     1      -3.999   3.619  25.986  0.00  0.00    +0.160 C 
BRANCH  22  26
ATOM     10  O   UNL     1      -6.107   4.745  25.552  0.00  0.00    -0.274 OA
ATOM     14  N   UNL     1      -6.158   2.613  26.402  0.00  0.00    -0.328 N 
ATOM     26  C   UNL     1      -5.515   3.750  25.961  0.00  0.00    +0.231 C 
ATOM     39  H   UNL     1      -5.659   1.780  26.697  0.00  0.00    +0.145 HD
ATOM     40  H   UNL     1      -7.171   2.566  26.426  0.00  0.00    +0.145 HD
ENDBRANCH  22  26
BRANCH  22  23
ATOM     23  C   UNL     1      -3.356   4.624  25.027  0.00  0.00    +0.054 C 
BRANCH  23  24
ATOM     24  C   UNL     1      -1.898   4.900  25.368  0.00  0.00    +0.168 C 
BRANCH  24   1
ATOM      1  S   UNL     1      -0.816   3.845  24.454  0.00  0.00    -0.034 S 
ATOM      8  O   UNL     1      -1.623   3.018  23.574  0.00  0.00    -0.175 OA
ATOM      9  O   UNL     1       0.265   4.657  23.921  0.00  0.00    -0.175 OA
ATOM     27  C   UNL     1      -0.125   2.785  25.703  0.00  0.00    +0.194 C 
ENDBRANCH  24   1
ENDBRANCH  23  24
ENDBRANCH  22  23
ENDBRANCH  12  22
ENDBRANCH  19  21
BRANCH  15   4
ATOM      4  O   UNL     1      -2.449  -2.403  25.878  0.00  0.00    -0.387 OA
ATOM     36  H   UNL     1      -2.138  -1.521  26.140  0.00  0.00    +0.210 HD
ENDBRANCH  15   4
BRANCH  16   5
ATOM      5  O   UNL     1      -4.408  -2.433  22.787  0.00  0.00    -0.389 OA
ATOM     37  H   UNL     1      -3.613  -2.830  22.393  0.00  0.00    +0.210 HD
ENDBRANCH  16   5
TORSDOF 10
ENDMDL
MODEL 2
REMARK VINA RESULT:       0.2      1.219      1.480
REMARK  Name = 7127894
REMARK  11 active torsions:
REMARK  status: ('A' for Active; 'I' for Inactive)
REMARK    1  A    between atoms: S_1  and  C_24
REMARK    2  A    between atoms: S_1  and  C_27
REMARK    3  A    between atoms: O_4  and  C_15
REMARK    4  A    between atoms: O_5  and  C_16
REMARK    5  A    between atoms: N_11  and  C_17
REMARK    6  A    between atoms: N_12  and  C_22
REMARK    7  A    between atoms: N_13  and  C_28
REMARK    8  A    between atoms: C_19  and  C_21
REMARK    9  A    between atoms: C_22  and  C_23
REMARK   10  A    between atoms: C_22  and  C_26
REMARK   11  A    between atoms: C_23  and  C_24
REMARK                            x       y       z     vdW  Elec       q    Type
REMARK                         _______ _______ _______ _____ _____    ______ ____
ROOT
ATOM     15  C   UNL     1      -1.957  -2.447  24.831  0.00  0.00    +0.167 C 
ATOM     16  C   UNL     1      -3.313  -2.220  25.509  0.00  0.00    +0.149 C 
ATOM     17  C   UNL     1      -1.871  -1.712  23.480  0.00  0.00    +0.129 C 
ATOM     18  C   UNL     1      -3.625  -0.726  25.695  0.00  0.00    +0.074 C 
ATOM     19  C   UNL     1      -3.191   0.123  24.534  0.00  0.00    +0.015 C 
ATOM     20  C   UNL     1      -2.411  -0.308  23.530  0.00  0.00    +0.006 C 
ENDROOT
BRANCH  17  11
ATOM      7  O   UNL     1       0.288  -0.132  24.504  0.00  0.00    -0.252 OA
ATOM     11  N   UNL     1      -0.518  -1.673  22.979  0.00  0.00    -0.290 N 
ATOM     13  N   UNL     1       1.685  -1.039  22.849  0.00  0.00    -0.267 N 
ATOM     25  C   UNL     1       0.482  -0.870  23.540  0.00  0.00    +0.304 C 
ATOM     34  H   UNL     1      -0.292  -2.212  22.150  0.00  0.00    +0.151 HD
ATOM     38  H   UNL     1       1.678  -1.692  22.069  0.00  0.00    +0.156 HD
BRANCH  13  28
ATOM      2  F   UNL     1       3.731  -2.373  24.171  0.00  0.00    -0.203 F 
ATOM      3  F   UNL     1       6.531   1.423  23.831  0.00  0.00    -0.205 F 
ATOM     28  C   UNL     1       2.927  -0.411  23.101  0.00  0.00    +0.070 A 
ATOM     29  C   UNL     1       3.923  -1.111  23.764  0.00  0.00    +0.147 A 
ATOM     30  C   UNL     1       3.122   0.894  22.680  0.00  0.00    +0.029 A 
ATOM     31  C   UNL     1       5.146  -0.489  24.012  0.00  0.00    +0.078 A 
ATOM     32  C   UNL     1       4.345   1.517  22.927  0.00  0.00    +0.040 A 
ATOM     33  C   UNL     1       5.357   0.825  23.593  0.00  0.00    +0.126 A 
ENDBRANCH  13  28
ENDBRANCH  17  11
BRANCH  19  21
ATOM      6  O   UNL     1      -3.989   2.025  23.408  0.00  0.00    -0.271 OA
ATOM     12  N   UNL     1      -3.683   2.124  25.718  0.00  0.00    -0.300 N 
ATOM     21  C   UNL     1      -3.661   1.510  24.477  0.00  0.00    +0.241 C 
ATOM     35  H   UNL     1      -3.377   1.626  26.546  0.00  0.00    +0.150 HD
BRANCH  12  22
ATOM     22  C   UNL     1      -4.108   3.492  25.914  0.00  0.00    +0.160 C 
BRANCH  22  26
ATOM     10  O   UNL     1      -6.268   4.565  25.630  0.00  0.00    -0.274 OA
ATOM     14  N   UNL     1      -6.183   2.271  25.693  0.00  0.00    -0.328 N 
ATOM     26  C   UNL     1      -5.620   3.529  25.748  0.00  0.00    +0.231 C 
ATOM     39  H   UNL     1      -5.633   1.421  25.748  0.00  0.00    +0.145 HD
ATOM     40  H   UNL     1      -7.184   2.156  25.574  0.00  0.00    +0.145 HD
ENDBRANCH  22  26
BRANCH  22  23
ATOM     23  C   UNL     1      -3.434   4.448  24.927  0.00  0.00    +0.054 C 
BRANCH  23  24
ATOM     24  C   UNL     1      -2.069   4.916  25.412  0.00  0.00    +0.168 C 
BRANCH  24   1
ATOM      1  S   UNL     1      -0.770   3.975  24.673  0.00  0.00    -0.034 S 
ATOM      8  O   UNL     1      -1.357   3.090  23.682  0.00  0.00    -0.175 OA
ATOM      9  O   UNL     1       0.300   4.888  24.309  0.00  0.00    -0.175 OA
ATOM     27  C   UNL     1      -0.181   2.966  26.014  0.00  0.00    +0.194 C 
ENDBRANCH  24   1
ENDBRANCH  23  24
ENDBRANCH  22  23
ENDBRANCH  12  22
ENDBRANCH  19  21
BRANCH  15   4
ATOM      4  O   UNL     1      -0.923  -1.974  25.699  0.00  0.00    -0.387 OA
ATOM     36  H   UNL     1      -0.618  -2.711  26.254  0.00  0.00    +0.210 HD
ENDBRANCH  15   4
BRANCH  16   5
ATOM      5  O   UNL     1      -4.349  -2.847  24.756  0.00  0.00    -0.389 OA
ATOM     37  H   UNL     1      -5.158  -2.321  24.876  0.00  0.00    +0.210 HD
ENDBRANCH  16   5
TORSDOF 10
ENDMDL
MODEL 3
REMARK VINA RESULT:       0.2      1.215      1.252
REMARK  Name = 7127894
REMARK  11 active torsions:
REMARK  status: ('A' for Active; 'I' for Inactive)
REMARK    1  A    between atoms: S_1  and  C_24
REMARK    2  A    between atoms: S_1  and  C_27
REMARK    3  A    between atoms: O_4  and  C_15
REMARK    4  A    between atoms: O_5  and  C_16
REMARK    5  A    between atoms: N_11  and  C_17
REMARK    6  A    between atoms: N_12  and  C_22
REMARK    7  A    between atoms: N_13  and  C_28
REMARK    8  A    between atoms: C_19  and  C_21
REMARK    9  A    between atoms: C_22  and  C_23
REMARK   10  A    between atoms: C_22  and  C_26
REMARK   11  A    between atoms: C_23  and  C_24
REMARK                            x       y       z     vdW  Elec       q    Type
REMARK                         _______ _______ _______ _____ _____    ______ ____
ROOT
ATOM     15  C   UNL     1      -1.777  -2.275  24.459  0.00  0.00    +0.167 C 
ATOM     16  C   UNL     1      -3.074  -2.601  25.210  0.00  0.00    +0.149 C 
ATOM     17  C   UNL     1      -1.991  -1.152  23.426  0.00  0.00    +0.129 C 
ATOM     18  C   UNL     1      -3.678  -1.360  25.889  0.00  0.00    +0.074 C 
ATOM     19  C   UNL     1      -3.557  -0.111  25.063  0.00  0.00    +0.015 C 
ATOM     20  C   UNL     1      -2.811  -0.006  23.952  0.00  0.00    +0.006 C 
ENDROOT
BRANCH  17  11
ATOM      7  O   UNL     1       0.597  -1.534  24.593  0.00  0.00    -0.252 OA
ATOM     11  N   UNL     1      -0.737  -0.639  22.930  0.00  0.00    -0.290 N 
ATOM     13  N   UNL     1       1.526  -0.254  22.859  0.00  0.00    -0.267 N 
ATOM     25  C   UNL     1       0.489  -0.873  23.563  0.00  0.00    +0.304 C 
ATOM     34  H   UNL     1      -0.748  -0.035  22.114  0.00  0.00    +0.151 HD
ATOM     38  H   UNL     1       1.267   0.259  22.020  0.00  0.00    +0.156 HD
BRANCH  13  28
ATOM      2  F   UNL     1       3.045   2.061  22.643  0.00  0.00    -0.203 F 
ATOM      3  F   UNL     1       6.916  -0.255  24.066  0.00  0.00    -0.205 F 
ATOM     28  C   UNL     1       2.906  -0.251  23.168  0.00  0.00    +0.070 A 
ATOM     29  C   UNL     1       3.630   0.924  23.047  0.00  0.00    +0.147 A 
ATOM     30  C   UNL     1       3.507  -1.428  23.585  0.00  0.00    +0.029 A 
ATOM     31  C   UNL     1       4.990   0.923  23.352  0.00  0.00    +0.078 A 
ATOM     32  C   UNL     1       4.868  -1.430  23.890  0.00  0.00    +0.040 A 
ATOM     33  C   UNL     1       5.610  -0.254  23.774  0.00  0.00    +0.126 A 
ENDBRANCH  13  28
ENDBRANCH  17  11
BRANCH  19  21
ATOM      6  O   UNL     1      -5.543   1.031  25.588  0.00  0.00    -0.271 OA
ATOM     12  N   UNL     1      -3.513   2.171  25.724  0.00  0.00    -0.300 N 
ATOM     21  C   UNL     1      -4.318   1.070  25.481  0.00  0.00    +0.241 C 
ATOM     35  H   UNL     1      -2.510   2.117  25.593  0.00  0.00    +0.150 HD
BRANCH  12  22
ATOM     22  C   UNL     1      -4.035   3.452  26.146  0.00  0.00    +0.160 C 
BRANCH  22  26
ATOM     10  O   UNL     1      -4.832   3.982  23.913  0.00  0.00    -0.274 OA
ATOM     14  N   UNL     1      -6.310   4.115  25.665  0.00  0.00    -0.328 N 
ATOM     26  C   UNL     1      -5.066   3.886  25.114  0.00  0.00    +0.231 C 
ATOM     39  H   UNL     1      -6.503   3.991  26.654  0.00  0.00    +0.145 HD
ATOM     40  H   UNL     1      -7.090   4.402  25.084  0.00  0.00    +0.145 HD
ENDBRANCH  22  26
BRANCH  22  23
ATOM     23  C   UNL     1      -2.931   4.504  26.278  0.00  0.00    +0.054 C 
BRANCH  23  24
ATOM     24  C   UNL     1      -1.542   3.884  26.325  0.00  0.00    +0.168 C 
BRANCH  24   1
ATOM      1  S   UNL     1      -0.831   3.782  24.712  0.00  0.00    -0.034 S 
ATOM      8  O   UNL     1      -1.856   3.319  23.792  0.00  0.00    -0.175 OA
ATOM      9  O   UNL     1      -0.110   5.017  24.455  0.00  0.00    -0.175 OA
ATOM     27  C   UNL     1       0.372   2.482  24.875  0.00  0.00    +0.194 C 
ENDBRANCH  24   1
ENDBRANCH  23  24
ENDBRANCH  22  23
ENDBRANCH  12  22
ENDBRANCH  19  21
BRANCH  15   4
ATOM      4  O   UNL     1      -0.785  -1.871  25.407  0.00  0.00    -0.387 OA
ATOM     36  H   UNL     1      -1.208  -1.755  26.273  0.00  0.00    +0.210 HD
ENDBRANCH  15   4
BRANCH  16   5
ATOM      5  O   UNL     1      -4.023  -3.184  24.320  0.00  0.00    -0.389 OA
ATOM     37  H   UNL     1      -4.894  -3.138  24.750  0.00  0.00    +0.210 HD
ENDBRANCH  16   5
TORSDOF 10
ENDMDL
MODEL 4
REMARK VINA RESULT:       2.5      1.765      3.055
REMARK  Name = 7127894
REMARK  11 active torsions:
REMARK  status: ('A' for Active; 'I' for Inactive)
REMARK    1  A    between atoms: S_1  and  C_24
REMARK    2  A    between atoms: S_1  and  C_27
REMARK    3  A    between atoms: O_4  and  C_15
REMARK    4  A    between atoms: O_5  and  C_16
REMARK    5  A    between atoms: N_11  and  C_17
REMARK    6  A    between atoms: N_12  and  C_22
REMARK    7  A    between atoms: N_13  and  C_28
REMARK    8  A    between atoms: C_19  and  C_21
REMARK    9  A    between atoms: C_22  and  C_23
REMARK   10  A    between atoms: C_22  and  C_26
REMARK   11  A    between atoms: C_23  and  C_24
REMARK                            x       y       z     vdW  Elec       q    Type
REMARK                         _______ _______ _______ _____ _____    ______ ____
ROOT
ATOM     15  C   UNL     1      -2.076  -2.243  24.678  0.00  0.00    +0.167 C 
ATOM     16  C   UNL     1      -3.473  -1.764  25.091  0.00  0.00    +0.149 C 
ATOM     17  C   UNL     1      -1.618  -1.579  23.365  0.00  0.00    +0.129 C 
ATOM     18  C   UNL     1      -3.548  -0.232  25.213  0.00  0.00    +0.074 C 
ATOM     19  C   UNL     1      -2.766   0.489  24.152  0.00  0.00    +0.015 C 
ATOM     20  C   UNL     1      -1.904  -0.103  23.311  0.00  0.00    +0.006 C 
ENDROOT
BRANCH  17  11
ATOM      7  O   UNL     1       0.512   0.240  23.963  0.00  0.00    -0.252 OA
ATOM     11  N   UNL     1      -0.210  -1.790  23.125  0.00  0.00    -0.290 N 
ATOM     13  N   UNL     1       2.038  -1.323  23.103  0.00  0.00    -0.267 N 
ATOM     25  C   UNL     1       0.770  -0.845  23.449  0.00  0.00    +0.304 C 
ATOM     34  H   UNL     1       0.080  -2.640  22.652  0.00  0.00    +0.151 HD
ATOM     38  H   UNL     1       2.080  -2.249  22.684  0.00  0.00    +0.156 HD
BRANCH  13  28
ATOM      2  F   UNL     1       4.164  -2.588  24.366  0.00  0.00    -0.203 F 
ATOM      3  F   UNL     1       6.902   1.217  23.736  0.00  0.00    -0.205 F 
ATOM     28  C   UNL     1       3.284  -0.675  23.266  0.00  0.00    +0.070 A 
ATOM     29  C   UNL     1       4.321  -1.340  23.902  0.00  0.00    +0.147 A 
ATOM     30  C   UNL     1       3.443   0.615  22.786  0.00  0.00    +0.029 A 
ATOM     31  C   UNL     1       5.548  -0.698  24.061  0.00  0.00    +0.078 A 
ATOM     32  C   UNL     1       4.671   1.257  22.945  0.00  0.00    +0.040 A 
ATOM     33  C   UNL     1       5.723   0.601  23.583  0.00  0.00    +0.126 A 
ENDBRANCH  13  28
ENDBRANCH  17  11
BRANCH  19  21
ATOM      6  O   UNL     1      -3.625   2.390  23.072  0.00  0.00    -0.271 OA
ATOM     12  N   UNL     1      -2.355   2.668  25.007  0.00  0.00    -0.300 N 
ATOM     21  C   UNL     1      -2.969   1.934  24.006  0.00  0.00    +0.241 C 
ATOM     35  H   UNL     1      -1.817   2.206  25.731  0.00  0.00    +0.150 HD
BRANCH  12  22
ATOM     22  C   UNL     1      -2.412   4.111  25.075  0.00  0.00    +0.160 C 
BRANCH  22  26
ATOM     10  O   UNL     1       0.004   3.904  24.925  0.00  0.00    -0.274 OA
ATOM     14  N   UNL     1      -0.924   6.002  24.837  0.00  0.00    -0.328 N 
ATOM     26  C   UNL     1      -0.986   4.630  24.956  0.00  0.00    +0.231 C 
ATOM     39  H   UNL     1      -1.751   6.589  24.820  0.00  0.00    +0.145 HD
ATOM     40  H   UNL     1      -0.032   6.475  24.740  0.00  0.00    +0.145 HD
ENDBRANCH  22  26
BRANCH  22  23
ATOM     23  C   UNL     1      -3.054   4.599  26.375  0.00  0.00    +0.054 C 
BRANCH  23  24
ATOM     24  C   UNL     1      -4.300   3.803  26.741  0.00  0.00    +0.168 C 
BRANCH  24   1
ATOM      1  S   UNL     1      -5.544   3.955  25.498  0.00  0.00    -0.034 S 
ATOM      8  O   UNL     1      -6.618   4.778  26.027  0.00  0.00    -0.175 OA
ATOM      9  O   UNL     1      -4.895   4.303  24.245  0.00  0.00    -0.175 OA
ATOM     27  C   UNL     1      -6.168   2.297  25.337  0.00  0.00    +0.194 C 
ENDBRANCH  24   1
ENDBRANCH  23  24
ENDBRANCH  22  23
ENDBRANCH  12  22
ENDBRANCH  19  21
BRANCH  15   4
ATOM      4  O   UNL     1      -1.153  -1.925  25.722  0.00  0.00    -0.387 OA
ATOM     36  H   UNL     1      -0.949  -2.735  26.218  0.00  0.00    +0.210 HD
ENDBRANCH  15   4
BRANCH  16   5
ATOM      5  O   UNL     1      -4.447  -2.229  24.159  0.00  0.00    -0.389 OA
ATOM     37  H   UNL     1      -5.086  -1.509  24.020  0.00  0.00    +0.210 HD
ENDBRANCH  16   5
TORSDOF 10
ENDMDL
