MODEL 1
REMARK VINA RESULT:      -3.8      0.000      0.000
REMARK  Name = 75536709
REMARK  11 active torsions:
REMARK  status: ('A' for Active; 'I' for Inactive)
REMARK    1  A    between atoms: S_1  and  N_8
REMARK    2  A    between atoms: S_1  and  C_16
REMARK    3  A    between atoms: O_3  and  C_10
REMARK    4  A    between atoms: O_6  and  C_23
REMARK    5  A    between atoms: O_6  and  C_28
REMARK    6  A    between atoms: N_7  and  C_9
REMARK    7  A    between atoms: N_7  and  C_14
REMARK    8  A    between atoms: N_8  and  C_13
REMARK    9  A    between atoms: C_11  and  C_13
REMARK   10  A    between atoms: C_14  and  C_15
REMARK   11  A    between atoms: C_26  and  C_27
REMARK                            x       y       z     vdW  Elec       q    Type
REMARK                         _______ _______ _______ _____ _____    ______ ____
ROOT
ATOM      2  O   UNL     1      -0.770   3.402  25.656  0.00  0.00    -0.371 OA
ATOM      9  C   UNL     1      -0.247   1.730  24.052  0.00  0.00    +0.111 C 
ATOM     10  C   UNL     1      -1.743   1.985  24.033  0.00  0.00    +0.164 C 
ATOM     11  C   UNL     1      -1.814   3.366  24.669  0.00  0.00    +0.164 C 
ATOM     12  C   UNL     1       0.141   2.319  25.399  0.00  0.00    +0.181 C 
ENDROOT
BRANCH  10   3
ATOM      3  O   UNL     1      -2.280   1.978  22.725  0.00  0.00    -0.388 OA
ATOM     30  H   UNL     1      -1.774   1.343  22.189  0.00  0.00    +0.210 HD
ENDBRANCH  10   3
BRANCH   9   7
ATOM      7  N   UNL     1       0.108   0.326  23.925  0.00  0.00    -0.305 NA
ATOM     29  H   UNL     1      -0.745  -0.231  23.882  0.00  0.00    +0.123 HD
BRANCH   7  14
ATOM     14  C   UNL     1       0.887   0.089  22.715  0.00  0.00    +0.116 C 
BRANCH  14  15
ATOM     15  C   UNL     1       2.360  -0.017  23.007  0.00  0.00    -0.033 A 
ATOM     17  C   UNL     1       3.203   1.060  22.739  0.00  0.00    +0.008 A 
ATOM     18  C   UNL     1       2.880  -1.193  23.547  0.00  0.00    +0.008 A 
ATOM     21  C   UNL     1       4.568   0.962  23.010  0.00  0.00    +0.046 A 
ATOM     22  C   UNL     1       4.244  -1.291  23.819  0.00  0.00    +0.046 A 
ATOM     23  C   UNL     1       5.089  -0.214  23.550  0.00  0.00    +0.120 A 
BRANCH  23   6
ATOM      6  O   UNL     1       6.420  -0.310  23.816  0.00  0.00    -0.495 OA
ATOM     28  C   UNL     1       7.279  -0.634  22.723  0.00  0.00    +0.277 C 
ENDBRANCH  23   6
ENDBRANCH  14  15
ENDBRANCH   7  14
ENDBRANCH   9   7
BRANCH  11  13
ATOM     13  C   UNL     1      -3.152   3.655  25.327  0.00  0.00    +0.140 C 
BRANCH  13   8
ATOM      8  N   UNL     1      -4.239   3.082  24.510  0.00  0.00    -0.187 NA
ATOM     31  H   UNL     1      -4.520   3.635  23.690  0.00  0.00    +0.148 HD
BRANCH   8   1
ATOM      1  S   UNL     1      -5.390   2.053  25.224  0.00  0.00    +0.058 S 
ATOM      4  O   UNL     1      -6.596   2.047  24.418  0.00  0.00    -0.153 OA
ATOM      5  O   UNL     1      -5.464   2.343  26.644  0.00  0.00    -0.153 OA
BRANCH   1  16
ATOM     16  C   UNL     1      -4.616   0.473  25.058  0.00  0.00    +0.105 A 
ATOM     19  C   UNL     1      -4.716  -0.228  23.856  0.00  0.00    +0.029 A 
ATOM     20  C   UNL     1      -3.907  -0.073  26.127  0.00  0.00    +0.029 A 
ATOM     24  C   UNL     1      -4.106  -1.477  23.726  0.00  0.00    +0.005 A 
ATOM     25  C   UNL     1      -3.298  -1.320  25.997  0.00  0.00    +0.005 A 
ATOM     26  C   UNL     1      -3.398  -2.022  24.795  0.00  0.00    -0.050 A 
ATOM     27  C   UNL     1      -2.747  -3.357  24.655  0.00  0.00    +0.044 C 
ENDBRANCH   1  16
ENDBRANCH   8   1
ENDBRANCH  13   8
ENDBRANCH  11  13
TORSDOF 9
ENDMDL
MODEL 2
REMARK VINA RESULT:      -2.8      2.428      7.261
REMARK  Name = 75536709
REMARK  11 active torsions:
REMARK  status: ('A' for Active; 'I' for Inactive)
REMARK    1  A    between atoms: S_1  and  N_8
REMARK    2  A    between atoms: S_1  and  C_16
REMARK    3  A    between atoms: O_3  and  C_10
REMARK    4  A    between atoms: O_6  and  C_23
REMARK    5  A    between atoms: O_6  and  C_28
REMARK    6  A    between atoms: N_7  and  C_9
REMARK    7  A    between atoms: N_7  and  C_14
REMARK    8  A    between atoms: N_8  and  C_13
REMARK    9  A    between atoms: C_11  and  C_13
REMARK   10  A    between atoms: C_14  and  C_15
REMARK   11  A    between atoms: C_26  and  C_27
REMARK                            x       y       z     vdW  Elec       q    Type
REMARK                         _______ _______ _______ _____ _____    ______ ____
ROOT
ATOM      2  O   UNL     1      -0.497   4.743  24.298  0.00  0.00    -0.371 OA
ATOM      9  C   UNL     1      -2.083   4.238  25.992  0.00  0.00    +0.111 C 
ATOM     10  C   UNL     1      -1.374   2.962  25.581  0.00  0.00    +0.164 C 
ATOM     11  C   UNL     1      -0.109   3.520  24.945  0.00  0.00    +0.164 C 
ATOM     12  C   UNL     1      -1.779   5.144  24.809  0.00  0.00    +0.181 C 
ENDROOT
BRANCH  10   3
ATOM      3  O   UNL     1      -1.084   2.121  26.681  0.00  0.00    -0.388 OA
ATOM     30  H   UNL     1      -1.717   2.318  27.392  0.00  0.00    +0.210 HD
ENDBRANCH  10   3
BRANCH   9   7
ATOM      7  N   UNL     1      -3.508   4.067  26.223  0.00  0.00    -0.305 NA
ATOM     29  H   UNL     1      -3.888   4.929  26.614  0.00  0.00    +0.123 HD
BRANCH   7  14
ATOM     14  C   UNL     1      -4.209   3.762  24.981  0.00  0.00    +0.116 C 
BRANCH  14  15
ATOM     15  C   UNL     1      -4.152   2.295  24.650  0.00  0.00    -0.033 A 
ATOM     17  C   UNL     1      -3.344   1.846  23.606  0.00  0.00    +0.008 A 
ATOM     18  C   UNL     1      -4.908   1.384  25.388  0.00  0.00    +0.008 A 
ATOM     21  C   UNL     1      -3.291   0.486  23.299  0.00  0.00    +0.046 A 
ATOM     22  C   UNL     1      -4.855   0.025  25.081  0.00  0.00    +0.046 A 
ATOM     23  C   UNL     1      -4.047  -0.425  24.037  0.00  0.00    +0.120 A 
BRANCH  23   6
ATOM      6  O   UNL     1      -3.996  -1.751  23.739  0.00  0.00    -0.495 OA
ATOM     28  C   UNL     1      -3.381  -2.610  24.699  0.00  0.00    +0.277 C 
ENDBRANCH  23   6
ENDBRANCH  14  15
ENDBRANCH   7  14
ENDBRANCH   9   7
BRANCH  11  13
ATOM     13  C   UNL     1       0.519   2.579  23.930  0.00  0.00    +0.140 C 
BRANCH  13   8
ATOM      8  N   UNL     1       0.477   1.197  24.446  0.00  0.00    -0.187 NA
ATOM     31  H   UNL     1       0.705   1.085  25.442  0.00  0.00    +0.148 HD
BRANCH   8   1
ATOM      1  S   UNL     1       0.766  -0.112  23.398  0.00  0.00    +0.058 S 
ATOM      4  O   UNL     1       0.300   0.226  22.067  0.00  0.00    -0.153 OA
ATOM      5  O   UNL     1       0.320  -1.335  24.038  0.00  0.00    -0.153 OA
BRANCH   1  16
ATOM     16  C   UNL     1       2.533  -0.163  23.361  0.00  0.00    +0.105 A 
ATOM     19  C   UNL     1       3.205  -1.311  23.780  0.00  0.00    +0.029 A 
ATOM     20  C   UNL     1       3.253   0.944  22.914  0.00  0.00    +0.029 A 
ATOM     24  C   UNL     1       4.600  -1.350  23.752  0.00  0.00    +0.005 A 
ATOM     25  C   UNL     1       4.647   0.905  22.886  0.00  0.00    +0.005 A 
ATOM     26  C   UNL     1       5.320  -0.243  23.306  0.00  0.00    -0.050 A 
ATOM     27  C   UNL     1       6.811  -0.285  23.277  0.00  0.00    +0.044 C 
ENDBRANCH   1  16
ENDBRANCH   8   1
ENDBRANCH  13   8
ENDBRANCH  11  13
TORSDOF 9
ENDMDL
MODEL 3
REMARK VINA RESULT:      -2.7      1.843      3.810
REMARK  Name = 75536709
REMARK  11 active torsions:
REMARK  status: ('A' for Active; 'I' for Inactive)
REMARK    1  A    between atoms: S_1  and  N_8
REMARK    2  A    between atoms: S_1  and  C_16
REMARK    3  A    between atoms: O_3  and  C_10
REMARK    4  A    between atoms: O_6  and  C_23
REMARK    5  A    between atoms: O_6  and  C_28
REMARK    6  A    between atoms: N_7  and  C_9
REMARK    7  A    between atoms: N_7  and  C_14
REMARK    8  A    between atoms: N_8  and  C_13
REMARK    9  A    between atoms: C_11  and  C_13
REMARK   10  A    between atoms: C_14  and  C_15
REMARK   11  A    between atoms: C_26  and  C_27
REMARK                            x       y       z     vdW  Elec       q    Type
REMARK                         _______ _______ _______ _____ _____    ______ ____
ROOT
ATOM      2  O   UNL     1      -2.035  -2.515  24.149  0.00  0.00    -0.371 OA
ATOM      9  C   UNL     1      -0.241  -0.994  24.479  0.00  0.00    +0.111 C 
ATOM     10  C   UNL     1      -1.389  -0.611  25.394  0.00  0.00    +0.164 C 
ATOM     11  C   UNL     1      -2.168  -1.918  25.449  0.00  0.00    +0.164 C 
ATOM     12  C   UNL     1      -0.948  -1.872  23.460  0.00  0.00    +0.181 C 
ENDROOT
BRANCH  10   3
ATOM      3  O   UNL     1      -0.953  -0.203  26.675  0.00  0.00    -0.388 OA
ATOM     30  H   UNL     1      -0.146   0.331  26.569  0.00  0.00    +0.210 HD
ENDBRANCH  10   3
BRANCH   9   7
ATOM      7  N   UNL     1       0.430   0.146  23.876  0.00  0.00    -0.305 NA
ATOM     29  H   UNL     1       1.046   0.574  24.568  0.00  0.00    +0.123 HD
BRANCH   7  14
ATOM     14  C   UNL     1       1.226  -0.261  22.724  0.00  0.00    +0.116 C 
BRANCH  14  15
ATOM     15  C   UNL     1       2.701  -0.233  23.023  0.00  0.00    -0.033 A 
ATOM     17  C   UNL     1       3.452   0.903  22.724  0.00  0.00    +0.008 A 
ATOM     18  C   UNL     1       3.316  -1.345  23.599  0.00  0.00    +0.008 A 
ATOM     21  C   UNL     1       4.819   0.928  23.001  0.00  0.00    +0.046 A 
ATOM     22  C   UNL     1       4.682  -1.319  23.877  0.00  0.00    +0.046 A 
ATOM     23  C   UNL     1       5.434  -0.184  23.577  0.00  0.00    +0.120 A 
BRANCH  23   6
ATOM      6  O   UNL     1       6.767  -0.159  23.849  0.00  0.00    -0.495 OA
ATOM     28  C   UNL     1       7.651  -0.562  22.803  0.00  0.00    +0.277 C 
ENDBRANCH  23   6
ENDBRANCH  14  15
ENDBRANCH   7  14
ENDBRANCH   9   7
BRANCH  11  13
ATOM     13  C   UNL     1      -3.639  -1.726  25.777  0.00  0.00    +0.140 C 
BRANCH  13   8
ATOM      8  N   UNL     1      -3.921  -0.289  25.966  0.00  0.00    -0.187 NA
ATOM     31  H   UNL     1      -4.187  -0.008  26.917  0.00  0.00    +0.148 HD
BRANCH   8   1
ATOM      1  S   UNL     1      -4.477   0.648  24.659  0.00  0.00    +0.058 S 
ATOM      4  O   UNL     1      -5.835   1.082  24.923  0.00  0.00    -0.153 OA
ATOM      5  O   UNL     1      -4.157  -0.035  23.420  0.00  0.00    -0.153 OA
BRANCH   1  16
ATOM     16  C   UNL     1      -3.423   2.064  24.756  0.00  0.00    +0.105 A 
ATOM     19  C   UNL     1      -2.298   2.152  23.937  0.00  0.00    +0.029 A 
ATOM     20  C   UNL     1      -3.716   3.092  25.651  0.00  0.00    +0.029 A 
ATOM     24  C   UNL     1      -1.465   3.268  24.015  0.00  0.00    +0.005 A 
ATOM     25  C   UNL     1      -2.884   4.208  25.729  0.00  0.00    +0.005 A 
ATOM     26  C   UNL     1      -1.758   4.296  24.910  0.00  0.00    -0.050 A 
ATOM     27  C   UNL     1      -0.867   5.490  24.993  0.00  0.00    +0.044 C 
ENDBRANCH   1  16
ENDBRANCH   8   1
ENDBRANCH  13   8
ENDBRANCH  11  13
TORSDOF 9
ENDMDL
MODEL 4
REMARK VINA RESULT:      -2.2      2.652      7.462
REMARK  Name = 75536709
REMARK  11 active torsions:
REMARK  status: ('A' for Active; 'I' for Inactive)
REMARK    1  A    between atoms: S_1  and  N_8
REMARK    2  A    between atoms: S_1  and  C_16
REMARK    3  A    between atoms: O_3  and  C_10
REMARK    4  A    between atoms: O_6  and  C_23
REMARK    5  A    between atoms: O_6  and  C_28
REMARK    6  A    between atoms: N_7  and  C_9
REMARK    7  A    between atoms: N_7  and  C_14
REMARK    8  A    between atoms: N_8  and  C_13
REMARK    9  A    between atoms: C_11  and  C_13
REMARK   10  A    between atoms: C_14  and  C_15
REMARK   11  A    between atoms: C_26  and  C_27
REMARK                            x       y       z     vdW  Elec       q    Type
REMARK                         _______ _______ _______ _____ _____    ______ ____
ROOT
ATOM      2  O   UNL     1      -1.302  -1.193  25.915  0.00  0.00    -0.371 OA
ATOM      9  C   UNL     1      -3.669  -1.151  25.729  0.00  0.00    +0.111 C 
ATOM     10  C   UNL     1      -3.079  -1.647  24.423  0.00  0.00    +0.164 C 
ATOM     11  C   UNL     1      -1.701  -2.106  24.879  0.00  0.00    +0.164 C 
ATOM     12  C   UNL     1      -2.464  -0.478  26.367  0.00  0.00    +0.181 C 
ENDROOT
BRANCH  10   3
ATOM      3  O   UNL     1      -3.825  -2.705  23.854  0.00  0.00    -0.388 OA
ATOM     30  H   UNL     1      -3.934  -3.399  24.526  0.00  0.00    +0.210 HD
ENDBRANCH  10   3
BRANCH   9   7
ATOM      7  N   UNL     1      -4.796  -0.248  25.556  0.00  0.00    -0.305 NA
ATOM     29  H   UNL     1      -4.856   0.368  26.366  0.00  0.00    +0.123 HD
BRANCH   7  14
ATOM     14  C   UNL     1      -4.638   0.564  24.355  0.00  0.00    +0.116 C 
BRANCH  14  15
ATOM     15  C   UNL     1      -3.879   1.834  24.632  0.00  0.00    -0.033 A 
ATOM     17  C   UNL     1      -2.666   2.076  23.988  0.00  0.00    +0.008 A 
ATOM     18  C   UNL     1      -4.389   2.768  25.534  0.00  0.00    +0.008 A 
ATOM     21  C   UNL     1      -1.963   3.253  24.244  0.00  0.00    +0.046 A 
ATOM     22  C   UNL     1      -3.685   3.945  25.790  0.00  0.00    +0.046 A 
ATOM     23  C   UNL     1      -2.473   4.187  25.146  0.00  0.00    +0.120 A 
BRANCH  23   6
ATOM      6  O   UNL     1      -1.787   5.336  25.396  0.00  0.00    -0.495 OA
ATOM     28  C   UNL     1      -0.577   5.542  24.668  0.00  0.00    +0.277 C 
ENDBRANCH  23   6
ENDBRANCH  14  15
ENDBRANCH   7  14
ENDBRANCH   9   7
BRANCH  11  13
ATOM     13  C   UNL     1      -0.667  -2.101  23.765  0.00  0.00    +0.140 C 
BRANCH  13   8
ATOM      8  N   UNL     1       0.430  -1.177  24.112  0.00  0.00    -0.187 NA
ATOM     31  H   UNL     1       0.540  -0.972  25.113  0.00  0.00    +0.148 HD
BRANCH   8   1
ATOM      1  S   UNL     1       0.953  -0.015  22.985  0.00  0.00    +0.058 S 
ATOM      4  O   UNL     1       0.522   1.301  23.417  0.00  0.00    -0.153 OA
ATOM      5  O   UNL     1       0.641  -0.482  21.648  0.00  0.00    -0.153 OA
BRANCH   1  16
ATOM     16  C   UNL     1       2.709  -0.099  23.167  0.00  0.00    +0.105 A 
ATOM     19  C   UNL     1       3.497   1.005  22.839  0.00  0.00    +0.029 A 
ATOM     20  C   UNL     1       3.307  -1.267  23.636  0.00  0.00    +0.029 A 
ATOM     24  C   UNL     1       4.883   0.937  22.980  0.00  0.00    +0.005 A 
ATOM     25  C   UNL     1       4.693  -1.335  23.777  0.00  0.00    +0.005 A 
ATOM     26  C   UNL     1       5.481  -0.231  23.449  0.00  0.00    -0.050 A 
ATOM     27  C   UNL     1       6.963  -0.303  23.599  0.00  0.00    +0.044 C 
ENDBRANCH   1  16
ENDBRANCH   8   1
ENDBRANCH  13   8
ENDBRANCH  11  13
TORSDOF 9
ENDMDL
MODEL 5
REMARK VINA RESULT:      -2.2      2.424      6.465
REMARK  Name = 75536709
REMARK  11 active torsions:
REMARK  status: ('A' for Active; 'I' for Inactive)
REMARK    1  A    between atoms: S_1  and  N_8
REMARK    2  A    between atoms: S_1  and  C_16
REMARK    3  A    between atoms: O_3  and  C_10
REMARK    4  A    between atoms: O_6  and  C_23
REMARK    5  A    between atoms: O_6  and  C_28
REMARK    6  A    between atoms: N_7  and  C_9
REMARK    7  A    between atoms: N_7  and  C_14
REMARK    8  A    between atoms: N_8  and  C_13
REMARK    9  A    between atoms: C_11  and  C_13
REMARK   10  A    between atoms: C_14  and  C_15
REMARK   11  A    between atoms: C_26  and  C_27
REMARK                            x       y       z     vdW  Elec       q    Type
REMARK                         _______ _______ _______ _____ _____    ______ ____
ROOT
ATOM      2  O   UNL     1      -3.171   4.111  23.898  0.00  0.00    -0.371 OA
ATOM      9  C   UNL     1      -4.797   3.535  25.530  0.00  0.00    +0.111 C 
ATOM     10  C   UNL     1      -3.430   3.573  26.185  0.00  0.00    +0.164 C 
ATOM     11  C   UNL     1      -2.655   4.436  25.199  0.00  0.00    +0.164 C 
ATOM     12  C   UNL     1      -4.423   3.423  24.060  0.00  0.00    +0.181 C 
ENDROOT
BRANCH  10   3
ATOM      3  O   UNL     1      -3.460   4.147  27.478  0.00  0.00    -0.388 OA
ATOM     30  H   UNL     1      -2.858   4.911  27.488  0.00  0.00    +0.210 HD
ENDBRANCH  10   3
BRANCH   9   7
ATOM      7  N   UNL     1      -5.634   2.437  25.986  0.00  0.00    -0.305 NA
ATOM     29  H   UNL     1      -6.517   2.813  26.332  0.00  0.00    +0.123 HD
BRANCH   7  14
ATOM     14  C   UNL     1      -5.911   1.501  24.903  0.00  0.00    +0.116 C 
BRANCH  14  15
ATOM     15  C   UNL     1      -4.943   0.348  24.897  0.00  0.00    -0.033 A 
ATOM     17  C   UNL     1      -4.798  -0.435  23.752  0.00  0.00    +0.008 A 
ATOM     18  C   UNL     1      -4.192   0.062  26.038  0.00  0.00    +0.008 A 
ATOM     21  C   UNL     1      -3.901  -1.504  23.747  0.00  0.00    +0.046 A 
ATOM     22  C   UNL     1      -3.295  -1.005  26.032  0.00  0.00    +0.046 A 
ATOM     23  C   UNL     1      -3.150  -1.789  24.887  0.00  0.00    +0.120 A 
BRANCH  23   6
ATOM      6  O   UNL     1      -2.274  -2.830  24.882  0.00  0.00    -0.495 OA
ATOM     28  C   UNL     1      -0.885  -2.512  24.965  0.00  0.00    +0.277 C 
ENDBRANCH  23   6
ENDBRANCH  14  15
ENDBRANCH   7  14
ENDBRANCH   9   7
BRANCH  11  13
ATOM     13  C   UNL     1      -1.156   4.189  25.233  0.00  0.00    +0.140 C 
BRANCH  13   8
ATOM      8  N   UNL     1      -0.768   3.344  24.087  0.00  0.00    -0.187 NA
ATOM     31  H   UNL     1      -0.865   3.778  23.161  0.00  0.00    +0.148 HD
BRANCH   8   1
ATOM      1  S   UNL     1      -0.873   1.650  24.203  0.00  0.00    +0.058 S 
ATOM      4  O   UNL     1      -1.885   1.168  23.282  0.00  0.00    -0.153 OA
ATOM      5  O   UNL     1      -0.925   1.276  25.603  0.00  0.00    -0.153 OA
BRANCH   1  16
ATOM     16  C   UNL     1       0.706   1.146  23.590  0.00  0.00    +0.105 A 
ATOM     19  C   UNL     1       1.792   2.019  23.662  0.00  0.00    +0.029 A 
ATOM     20  C   UNL     1       0.866  -0.122  23.033  0.00  0.00    +0.029 A 
ATOM     24  C   UNL     1       3.038   1.622  23.176  0.00  0.00    +0.005 A 
ATOM     25  C   UNL     1       2.112  -0.518  22.547  0.00  0.00    +0.005 A 
ATOM     26  C   UNL     1       3.198   0.355  22.619  0.00  0.00    -0.050 A 
ATOM     27  C   UNL     1       4.530  -0.069  22.099  0.00  0.00    +0.044 C 
ENDBRANCH   1  16
ENDBRANCH   8   1
ENDBRANCH  13   8
ENDBRANCH  11  13
TORSDOF 9
ENDMDL
MODEL 6
REMARK VINA RESULT:      -2.0      2.205      7.136
REMARK  Name = 75536709
REMARK  11 active torsions:
REMARK  status: ('A' for Active; 'I' for Inactive)
REMARK    1  A    between atoms: S_1  and  N_8
REMARK    2  A    between atoms: S_1  and  C_16
REMARK    3  A    between atoms: O_3  and  C_10
REMARK    4  A    between atoms: O_6  and  C_23
REMARK    5  A    between atoms: O_6  and  C_28
REMARK    6  A    between atoms: N_7  and  C_9
REMARK    7  A    between atoms: N_7  and  C_14
REMARK    8  A    between atoms: N_8  and  C_13
REMARK    9  A    between atoms: C_11  and  C_13
REMARK   10  A    between atoms: C_14  and  C_15
REMARK   11  A    between atoms: C_26  and  C_27
REMARK                            x       y       z     vdW  Elec       q    Type
REMARK                         _______ _______ _______ _____ _____    ______ ____
ROOT
ATOM      2  O   UNL     1      -1.793   2.325  22.849  0.00  0.00    -0.371 OA
ATOM      9  C   UNL     1      -3.732   3.063  24.003  0.00  0.00    +0.111 C 
ATOM     10  C   UNL     1      -2.627   2.803  25.009  0.00  0.00    +0.164 C 
ATOM     11  C   UNL     1      -1.396   2.873  24.117  0.00  0.00    +0.164 C 
ATOM     12  C   UNL     1      -3.229   2.288  22.796  0.00  0.00    +0.181 C 
ENDROOT
BRANCH  10   3
ATOM      3  O   UNL     1      -2.588   3.771  26.039  0.00  0.00    -0.388 OA
ATOM     30  H   UNL     1      -2.015   4.502  25.751  0.00  0.00    +0.210 HD
ENDBRANCH  10   3
BRANCH   9   7
ATOM      7  N   UNL     1      -5.044   2.625  24.451  0.00  0.00    -0.305 NA
ATOM     29  H   UNL     1      -5.503   2.119  23.694  0.00  0.00    +0.123 HD
BRANCH   7  14
ATOM     14  C   UNL     1      -4.938   1.747  25.610  0.00  0.00    +0.116 C 
BRANCH  14  15
ATOM     15  C   UNL     1      -4.375   0.399  25.243  0.00  0.00    -0.033 A 
ATOM     17  C   UNL     1      -3.310  -0.133  25.970  0.00  0.00    +0.008 A 
ATOM     18  C   UNL     1      -4.918  -0.316  24.176  0.00  0.00    +0.008 A 
ATOM     21  C   UNL     1      -2.789  -1.382  25.629  0.00  0.00    +0.046 A 
ATOM     22  C   UNL     1      -4.397  -1.564  23.836  0.00  0.00    +0.046 A 
ATOM     23  C   UNL     1      -3.333  -2.097  24.562  0.00  0.00    +0.120 A 
BRANCH  23   6
ATOM      6  O   UNL     1      -2.825  -3.315  24.231  0.00  0.00    -0.495 OA
ATOM     28  C   UNL     1      -1.485  -3.349  23.742  0.00  0.00    +0.277 C 
ENDBRANCH  23   6
ENDBRANCH  14  15
ENDBRANCH   7  14
ENDBRANCH   9   7
BRANCH  11  13
ATOM     13  C   UNL     1      -0.212   2.094  24.665  0.00  0.00    +0.140 C 
BRANCH  13   8
ATOM      8  N   UNL     1       0.668   1.684  23.553  0.00  0.00    -0.187 NA
ATOM     31  H   UNL     1       0.747   2.353  22.777  0.00  0.00    +0.148 HD
BRANCH   8   1
ATOM      1  S   UNL     1       0.915   0.033  23.227  0.00  0.00    +0.058 S 
ATOM      4  O   UNL     1       0.487  -0.259  21.872  0.00  0.00    -0.153 OA
ATOM      5  O   UNL     1       0.404  -0.748  24.337  0.00  0.00    -0.153 OA
BRANCH   1  16
ATOM     16  C   UNL     1       2.678  -0.087  23.279  0.00  0.00    +0.105 A 
ATOM     19  C   UNL     1       3.461   0.994  22.873  0.00  0.00    +0.029 A 
ATOM     20  C   UNL     1       3.285  -1.260  23.723  0.00  0.00    +0.029 A 
ATOM     24  C   UNL     1       4.853   0.899  22.912  0.00  0.00    +0.005 A 
ATOM     25  C   UNL     1       4.676  -1.355  23.762  0.00  0.00    +0.005 A 
ATOM     26  C   UNL     1       5.460  -0.275  23.356  0.00  0.00    -0.050 A 
ATOM     27  C   UNL     1       6.947  -0.376  23.397  0.00  0.00    +0.044 C 
ENDBRANCH   1  16
ENDBRANCH   8   1
ENDBRANCH  13   8
ENDBRANCH  11  13
TORSDOF 9
ENDMDL
MODEL 7
REMARK VINA RESULT:      -2.0      3.300      7.649
REMARK  Name = 75536709
REMARK  11 active torsions:
REMARK  status: ('A' for Active; 'I' for Inactive)
REMARK    1  A    between atoms: S_1  and  N_8
REMARK    2  A    between atoms: S_1  and  C_16
REMARK    3  A    between atoms: O_3  and  C_10
REMARK    4  A    between atoms: O_6  and  C_23
REMARK    5  A    between atoms: O_6  and  C_28
REMARK    6  A    between atoms: N_7  and  C_9
REMARK    7  A    between atoms: N_7  and  C_14
REMARK    8  A    between atoms: N_8  and  C_13
REMARK    9  A    between atoms: C_11  and  C_13
REMARK   10  A    between atoms: C_14  and  C_15
REMARK   11  A    between atoms: C_26  and  C_27
REMARK                            x       y       z     vdW  Elec       q    Type
REMARK                         _______ _______ _______ _____ _____    ______ ____
ROOT
ATOM      2  O   UNL     1      -1.477  -1.268  26.317  0.00  0.00    -0.371 OA
ATOM      9  C   UNL     1      -3.371  -2.011  25.092  0.00  0.00    +0.111 C 
ATOM     10  C   UNL     1      -2.125  -2.221  24.252  0.00  0.00    +0.164 C 
ATOM     11  C   UNL     1      -1.044  -2.212  25.324  0.00  0.00    +0.164 C 
ATOM     12  C   UNL     1      -2.877  -1.004  26.118  0.00  0.00    +0.181 C 
ENDROOT
BRANCH  10   3
ATOM      3  O   UNL     1      -2.149  -3.440  23.536  0.00  0.00    -0.388 OA
ATOM     30  H   UNL     1      -3.043  -3.817  23.602  0.00  0.00    +0.210 HD
ENDBRANCH  10   3
BRANCH   9   7
ATOM      7  N   UNL     1      -4.514  -1.531  24.332  0.00  0.00    -0.305 NA
ATOM     29  H   UNL     1      -5.263  -1.283  24.978  0.00  0.00    +0.123 HD
BRANCH   7  14
ATOM     14  C   UNL     1      -4.164  -0.357  23.542  0.00  0.00    +0.116 C 
BRANCH  14  15
ATOM     15  C   UNL     1      -4.586   0.921  24.217  0.00  0.00    -0.033 A 
ATOM     17  C   UNL     1      -4.079   2.143  23.778  0.00  0.00    +0.008 A 
ATOM     18  C   UNL     1      -5.486   0.881  25.282  0.00  0.00    +0.008 A 
ATOM     21  C   UNL     1      -4.471   3.327  24.404  0.00  0.00    +0.046 A 
ATOM     22  C   UNL     1      -5.878   2.064  25.907  0.00  0.00    +0.046 A 
ATOM     23  C   UNL     1      -5.371   3.287  25.469  0.00  0.00    +0.120 A 
BRANCH  23   6
ATOM      6  O   UNL     1      -5.754   4.441  26.078  0.00  0.00    -0.495 OA
ATOM     28  C   UNL     1      -6.341   5.448  25.254  0.00  0.00    +0.277 C 
ENDBRANCH  23   6
ENDBRANCH  14  15
ENDBRANCH   7  14
ENDBRANCH   9   7
BRANCH  11  13
ATOM     13  C   UNL     1       0.322  -1.811  24.795  0.00  0.00    +0.140 C 
BRANCH  13   8
ATOM      8  N   UNL     1       0.546  -0.373  25.043  0.00  0.00    -0.187 NA
ATOM     31  H   UNL     1       0.182  -0.012  25.934  0.00  0.00    +0.148 HD
BRANCH   8   1
ATOM      1  S   UNL     1       0.697   0.704  23.735  0.00  0.00    +0.058 S 
ATOM      4  O   UNL     1      -0.045   0.187  22.600  0.00  0.00    -0.153 OA
ATOM      5  O   UNL     1       2.092   1.073  23.587  0.00  0.00    -0.153 OA
BRANCH   1  16
ATOM     16  C   UNL     1      -0.155   2.130  24.339  0.00  0.00    +0.105 A 
ATOM     19  C   UNL     1      -0.787   2.088  25.582  0.00  0.00    +0.029 A 
ATOM     20  C   UNL     1      -0.196   3.294  23.574  0.00  0.00    +0.029 A 
ATOM     24  C   UNL     1      -1.461   3.213  26.058  0.00  0.00    +0.005 A 
ATOM     25  C   UNL     1      -0.869   4.419  24.050  0.00  0.00    +0.005 A 
ATOM     26  C   UNL     1      -1.502   4.378  25.293  0.00  0.00    -0.050 A 
ATOM     27  C   UNL     1      -2.224   5.580  25.802  0.00  0.00    +0.044 C 
ENDBRANCH   1  16
ENDBRANCH   8   1
ENDBRANCH  13   8
ENDBRANCH  11  13
TORSDOF 9
ENDMDL
MODEL 8
REMARK VINA RESULT:      -1.9      1.879      4.002
REMARK  Name = 75536709
REMARK  11 active torsions:
REMARK  status: ('A' for Active; 'I' for Inactive)
REMARK    1  A    between atoms: S_1  and  N_8
REMARK    2  A    between atoms: S_1  and  C_16
REMARK    3  A    between atoms: O_3  and  C_10
REMARK    4  A    between atoms: O_6  and  C_23
REMARK    5  A    between atoms: O_6  and  C_28
REMARK    6  A    between atoms: N_7  and  C_9
REMARK    7  A    between atoms: N_7  and  C_14
REMARK    8  A    between atoms: N_8  and  C_13
REMARK    9  A    between atoms: C_11  and  C_13
REMARK   10  A    between atoms: C_14  and  C_15
REMARK   11  A    between atoms: C_26  and  C_27
REMARK                            x       y       z     vdW  Elec       q    Type
REMARK                         _______ _______ _______ _____ _____    ______ ____
ROOT
ATOM      2  O   UNL     1      -4.123  -2.169  25.060  0.00  0.00    -0.371 OA
ATOM      9  C   UNL     1      -1.825  -2.096  24.465  0.00  0.00    +0.111 C 
ATOM     10  C   UNL     1      -2.142  -0.913  25.361  0.00  0.00    +0.164 C 
ATOM     11  C   UNL     1      -3.416  -1.394  26.042  0.00  0.00    +0.164 C 
ATOM     12  C   UNL     1      -3.213  -2.499  23.996  0.00  0.00    +0.181 C 
ENDROOT
BRANCH  10   3
ATOM      3  O   UNL     1      -1.114  -0.643  26.294  0.00  0.00    -0.388 OA
ATOM     30  H   UNL     1      -0.376  -1.252  26.121  0.00  0.00    +0.210 HD
ENDBRANCH  10   3
BRANCH   9   7
ATOM      7  N   UNL     1      -0.927  -1.773  23.368  0.00  0.00    -0.305 NA
ATOM     29  H   UNL     1      -1.305  -2.161  22.504  0.00  0.00    +0.123 HD
BRANCH   7  14
ATOM     14  C   UNL     1      -0.783  -0.330  23.214  0.00  0.00    +0.116 C 
BRANCH  14  15
ATOM     15  C   UNL     1       0.661   0.079  23.089  0.00  0.00    -0.033 A 
ATOM     17  C   UNL     1       1.135   1.184  23.795  0.00  0.00    +0.008 A 
ATOM     18  C   UNL     1       1.522  -0.647  22.267  0.00  0.00    +0.008 A 
ATOM     21  C   UNL     1       2.473   1.563  23.679  0.00  0.00    +0.046 A 
ATOM     22  C   UNL     1       2.859  -0.268  22.152  0.00  0.00    +0.046 A 
ATOM     23  C   UNL     1       3.335   0.837  22.857  0.00  0.00    +0.120 A 
BRANCH  23   6
ATOM      6  O   UNL     1       4.640   1.206  22.745  0.00  0.00    -0.495 OA
ATOM     28  C   UNL     1       5.605   0.394  23.414  0.00  0.00    +0.277 C 
ENDBRANCH  23   6
ENDBRANCH  14  15
ENDBRANCH   7  14
ENDBRANCH   9   7
BRANCH  11  13
ATOM     13  C   UNL     1      -4.299  -0.260  26.534  0.00  0.00    +0.140 C 
BRANCH  13   8
ATOM      8  N   UNL     1      -5.067   0.295  25.403  0.00  0.00    -0.187 NA
ATOM     31  H   UNL     1      -4.892  -0.140  24.488  0.00  0.00    +0.148 HD
BRANCH   8   1
ATOM      1  S   UNL     1      -5.592   1.913  25.442  0.00  0.00    +0.058 S 
ATOM      4  O   UNL     1      -6.095   2.222  26.767  0.00  0.00    -0.153 OA
ATOM      5  O   UNL     1      -6.411   2.171  24.273  0.00  0.00    -0.153 OA
BRANCH   1  16
ATOM     16  C   UNL     1      -4.075   2.791  25.216  0.00  0.00    +0.105 A 
ATOM     19  C   UNL     1      -3.211   2.434  24.181  0.00  0.00    +0.029 A 
ATOM     20  C   UNL     1      -3.741   3.839  26.073  0.00  0.00    +0.029 A 
ATOM     24  C   UNL     1      -2.013   3.126  24.004  0.00  0.00    +0.005 A 
ATOM     25  C   UNL     1      -2.543   4.530  25.896  0.00  0.00    +0.005 A 
ATOM     26  C   UNL     1      -1.679   4.174  24.861  0.00  0.00    -0.050 A 
ATOM     27  C   UNL     1      -0.397   4.913  24.672  0.00  0.00    +0.044 C 
ENDBRANCH   1  16
ENDBRANCH   8   1
ENDBRANCH  13   8
ENDBRANCH  11  13
TORSDOF 9
ENDMDL
MODEL 9
REMARK VINA RESULT:      -1.6      2.671      6.027
REMARK  Name = 75536709
REMARK  11 active torsions:
REMARK  status: ('A' for Active; 'I' for Inactive)
REMARK    1  A    between atoms: S_1  and  N_8
REMARK    2  A    between atoms: S_1  and  C_16
REMARK    3  A    between atoms: O_3  and  C_10
REMARK    4  A    between atoms: O_6  and  C_23
REMARK    5  A    between atoms: O_6  and  C_28
REMARK    6  A    between atoms: N_7  and  C_9
REMARK    7  A    between atoms: N_7  and  C_14
REMARK    8  A    between atoms: N_8  and  C_13
REMARK    9  A    between atoms: C_11  and  C_13
REMARK   10  A    between atoms: C_14  and  C_15
REMARK   11  A    between atoms: C_26  and  C_27
REMARK                            x       y       z     vdW  Elec       q    Type
REMARK                         _______ _______ _______ _____ _____    ______ ____
ROOT
ATOM      2  O   UNL     1      -2.708   3.357  23.690  0.00  0.00    -0.371 OA
ATOM      9  C   UNL     1      -4.988   2.863  24.136  0.00  0.00    +0.111 C 
ATOM     10  C   UNL     1      -4.399   3.595  25.327  0.00  0.00    +0.164 C 
ATOM     11  C   UNL     1      -3.193   4.271  24.688  0.00  0.00    +0.164 C 
ATOM     12  C   UNL     1      -3.733   2.383  23.426  0.00  0.00    +0.181 C 
ENDROOT
BRANCH  10   3
ATOM      3  O   UNL     1      -5.294   4.534  25.888  0.00  0.00    -0.388 OA
ATOM     30  H   UNL     1      -5.977   4.740  25.226  0.00  0.00    +0.210 HD
ENDBRANCH  10   3
BRANCH   9   7
ATOM      7  N   UNL     1      -5.882   1.777  24.502  0.00  0.00    -0.305 NA
ATOM     29  H   UNL     1      -5.940   1.117  23.726  0.00  0.00    +0.123 HD
BRANCH   7  14
ATOM     14  C   UNL     1      -5.399   1.074  25.685  0.00  0.00    +0.116 C 
BRANCH  14  15
ATOM     15  C   UNL     1      -4.483  -0.065  25.326  0.00  0.00    -0.033 A 
ATOM     17  C   UNL     1      -3.486  -0.465  26.215  0.00  0.00    +0.008 A 
ATOM     18  C   UNL     1      -4.632  -0.720  24.103  0.00  0.00    +0.008 A 
ATOM     21  C   UNL     1      -2.637  -1.521  25.882  0.00  0.00    +0.046 A 
ATOM     22  C   UNL     1      -3.783  -1.776  23.771  0.00  0.00    +0.046 A 
ATOM     23  C   UNL     1      -2.786  -2.176  24.660  0.00  0.00    +0.120 A 
BRANCH  23   6
ATOM      6  O   UNL     1      -1.959  -3.207  24.335  0.00  0.00    -0.495 OA
ATOM     28  C   UNL     1      -0.616  -3.137  24.814  0.00  0.00    +0.277 C 
ENDBRANCH  23   6
ENDBRANCH  14  15
ENDBRANCH   7  14
ENDBRANCH   9   7
BRANCH  11  13
ATOM     13  C   UNL     1      -2.085   4.582  25.680  0.00  0.00    +0.140 C 
BRANCH  13   8
ATOM      8  N   UNL     1      -0.834   3.931  25.244  0.00  0.00    -0.187 NA
ATOM     31  H   UNL     1      -0.567   4.089  24.265  0.00  0.00    +0.148 HD
BRANCH   8   1
ATOM      1  S   UNL     1      -0.304   2.507  26.008  0.00  0.00    +0.058 S 
ATOM      4  O   UNL     1      -1.443   1.822  26.591  0.00  0.00    -0.153 OA
ATOM      5  O   UNL     1       0.857   2.812  26.822  0.00  0.00    -0.153 OA
BRANCH   1  16
ATOM     16  C   UNL     1       0.263   1.549  24.635  0.00  0.00    +0.105 A 
ATOM     19  C   UNL     1      -0.556   0.558  24.092  0.00  0.00    +0.029 A 
ATOM     20  C   UNL     1       1.527   1.781  24.097  0.00  0.00    +0.029 A 
ATOM     24  C   UNL     1      -0.107  -0.199  23.010  0.00  0.00    +0.005 A 
ATOM     25  C   UNL     1       1.976   1.024  23.016  0.00  0.00    +0.005 A 
ATOM     26  C   UNL     1       1.157   0.033  22.472  0.00  0.00    -0.050 A 
ATOM     27  C   UNL     1       1.637  -0.778  21.315  0.00  0.00    +0.044 C 
ENDBRANCH   1  16
ENDBRANCH   8   1
ENDBRANCH  13   8
ENDBRANCH  11  13
TORSDOF 9
ENDMDL
MODEL 10
REMARK VINA RESULT:      -0.4     15.176     18.049
REMARK  Name = 75536709
REMARK  11 active torsions:
REMARK  status: ('A' for Active; 'I' for Inactive)
REMARK    1  A    between atoms: S_1  and  N_8
REMARK    2  A    between atoms: S_1  and  C_16
REMARK    3  A    between atoms: O_3  and  C_10
REMARK    4  A    between atoms: O_6  and  C_23
REMARK    5  A    between atoms: O_6  and  C_28
REMARK    6  A    between atoms: N_7  and  C_9
REMARK    7  A    between atoms: N_7  and  C_14
REMARK    8  A    between atoms: N_8  and  C_13
REMARK    9  A    between atoms: C_11  and  C_13
REMARK   10  A    between atoms: C_14  and  C_15
REMARK   11  A    between atoms: C_26  and  C_27
REMARK                            x       y       z     vdW  Elec       q    Type
REMARK                         _______ _______ _______ _____ _____    ______ ____
ROOT
ATOM      2  O   UNL     1      -3.214  -9.058  10.923  0.00  0.00    -0.371 OA
ATOM      9  C   UNL     1      -5.337  -9.208   9.870  0.00  0.00    +0.111 C 
ATOM     10  C   UNL     1      -5.269 -10.225  10.993  0.00  0.00    +0.164 C 
ATOM     11  C   UNL     1      -4.146  -9.649  11.844  0.00  0.00    +0.164 C 
ATOM     12  C   UNL     1      -3.864  -8.904   9.650  0.00  0.00    +0.181 C 
ENDROOT
BRANCH  10   3
ATOM      3  O   UNL     1      -6.481 -10.323  11.716  0.00  0.00    -0.388 OA
ATOM     30  H   UNL     1      -6.280 -10.652  12.609  0.00  0.00    +0.210 HD
ENDBRANCH  10   3
BRANCH   9   7
ATOM      7  N   UNL     1      -5.998  -9.703   8.674  0.00  0.00    -0.305 NA
ATOM     29  H   UNL     1      -5.594 -10.604   8.419  0.00  0.00    +0.123 HD
BRANCH   7  14
ATOM     14  C   UNL     1      -7.429  -9.873   8.896  0.00  0.00    +0.116 C 
BRANCH  14  15
ATOM     15  C   UNL     1      -8.179  -8.576   8.742  0.00  0.00    -0.033 A 
ATOM     17  C   UNL     1      -7.501  -7.420   8.359  0.00  0.00    +0.008 A 
ATOM     18  C   UNL     1      -9.552  -8.533   8.982  0.00  0.00    +0.008 A 
ATOM     21  C   UNL     1      -8.196  -6.218   8.216  0.00  0.00    +0.046 A 
ATOM     22  C   UNL     1     -10.247  -7.333   8.838  0.00  0.00    +0.046 A 
ATOM     23  C   UNL     1      -9.570  -6.175   8.456  0.00  0.00    +0.120 A 
BRANCH  23   6
ATOM      6  O   UNL     1     -10.248  -5.004   8.315  0.00  0.00    -0.495 OA
ATOM     28  C   UNL     1     -10.507  -4.256   9.503  0.00  0.00    +0.277 C 
ENDBRANCH  23   6
ENDBRANCH  14  15
ENDBRANCH   7  14
ENDBRANCH   9   7
BRANCH  11  13
ATOM     13  C   UNL     1      -3.439 -10.692  12.692  0.00  0.00    +0.140 C 
BRANCH  13   8
ATOM      8  N   UNL     1      -2.029 -10.298  12.888  0.00  0.00    -0.187 NA
ATOM     31  H   UNL     1      -1.355 -10.715  12.234  0.00  0.00    +0.148 HD
BRANCH   8   1
ATOM      1  S   UNL     1      -1.481  -9.833  14.430  0.00  0.00    +0.058 S 
ATOM      4  O   UNL     1      -1.202  -8.410  14.431  0.00  0.00    -0.153 OA
ATOM      5  O   UNL     1      -0.471 -10.775  14.874  0.00  0.00    -0.153 OA
BRANCH   1  16
ATOM     16  C   UNL     1      -2.917 -10.108  15.423  0.00  0.00    +0.105 A 
ATOM     19  C   UNL     1      -2.779 -10.524  16.747  0.00  0.00    +0.029 A 
ATOM     20  C   UNL     1      -4.187  -9.911  14.883  0.00  0.00    +0.029 A 
ATOM     24  C   UNL     1      -3.913 -10.743  17.530  0.00  0.00    +0.005 A 
ATOM     25  C   UNL     1      -5.320 -10.129  15.665  0.00  0.00    +0.005 A 
ATOM     26  C   UNL     1      -5.182 -10.546  16.990  0.00  0.00    -0.050 A 
ATOM     27  C   UNL     1      -6.394 -10.781  17.827  0.00  0.00    +0.044 C 
ENDBRANCH   1  16
ENDBRANCH   8   1
ENDBRANCH  13   8
ENDBRANCH  11  13
TORSDOF 9
ENDMDL
