MODEL 1
REMARK VINA RESULT:      -6.2      0.000      0.000
REMARK  Name = 75536934
REMARK  5 active torsions:
REMARK  status: ('A' for Active; 'I' for Inactive)
REMARK    1  A    between atoms: O_2  and  C_9
REMARK    2  A    between atoms: O_2  and  C_17
REMARK    3  A    between atoms: N_3  and  C_11
REMARK    4  A    between atoms: N_4  and  C_18
REMARK    5  A    between atoms: C_11  and  C_14
REMARK                            x       y       z     vdW  Elec       q    Type
REMARK                         _______ _______ _______ _____ _____    ______ ____
ROOT
ATOM      1  O   UNL     1      -3.021  -2.901  24.727  0.00  0.00    -0.375 OA
ATOM      3  N   UNL     1      -1.635  -0.602  25.765  0.00  0.00    -0.292 NA
ATOM      8  C   UNL     1      -2.580   0.069  24.875  0.00  0.00    +0.131 C 
ATOM      9  C   UNL     1      -3.949  -0.622  24.905  0.00  0.00    +0.215 C 
ATOM     10  C   UNL     1      -0.921  -1.730  25.155  0.00  0.00    +0.113 C 
ATOM     12  C   UNL     1      -4.006  -1.996  24.243  0.00  0.00    +0.205 C 
ATOM     13  C   UNL     1      -1.727  -2.617  24.208  0.00  0.00    +0.175 C 
ENDROOT
BRANCH   9   2
ATOM      2  O   UNL     1      -4.889   0.234  24.255  0.00  0.00    -0.468 OA
BRANCH   2  17
ATOM      6  N   UNL     1      -4.186   2.425  23.931  0.00  0.00    -0.219 NA
ATOM      7  N   UNL     1      -5.665   3.202  26.183  0.00  0.00    -0.256 NA
ATOM     17  C   UNL     1      -4.901   1.542  24.653  0.00  0.00    +0.234 A 
ATOM     19  C   UNL     1      -5.628   1.923  25.760  0.00  0.00    +0.177 A 
ATOM     20  C   UNL     1      -4.223   3.704  24.354  0.00  0.00    +0.134 A 
ATOM     21  C   UNL     1      -4.949   4.086  25.461  0.00  0.00    +0.130 A 
ENDBRANCH   2  17
ENDBRANCH   9   2
BRANCH   3  11
ATOM     11  C   UNL     1      -0.677   0.342  26.341  0.00  0.00    +0.122 C 
BRANCH  11  14
ATOM      4  N   UNL     1      -0.838   3.740  24.994  0.00  0.00    -0.274 N 
ATOM      5  N   UNL     1      -0.333   3.150  23.897  0.00  0.00    -0.180 NA
ATOM     14  C   UNL     1      -0.653   1.646  25.586  0.00  0.00    +0.004 A 
ATOM     15  C   UNL     1      -1.048   2.883  26.035  0.00  0.00    +0.112 A 
ATOM     16  C   UNL     1      -0.222   1.870  24.265  0.00  0.00    +0.139 A 
ATOM     18  C   UNL     1      -1.105   5.158  24.987  0.00  0.00    +0.172 C 
ENDBRANCH  11  14
ENDBRANCH   3  11
TORSDOF 4
ENDMDL
MODEL 2
REMARK VINA RESULT:      -5.4      1.551      3.777
REMARK  Name = 75536934
REMARK  5 active torsions:
REMARK  status: ('A' for Active; 'I' for Inactive)
REMARK    1  A    between atoms: O_2  and  C_9
REMARK    2  A    between atoms: O_2  and  C_17
REMARK    3  A    between atoms: N_3  and  C_11
REMARK    4  A    between atoms: N_4  and  C_18
REMARK    5  A    between atoms: C_11  and  C_14
REMARK                            x       y       z     vdW  Elec       q    Type
REMARK                         _______ _______ _______ _____ _____    ______ ____
ROOT
ATOM      1  O   UNL     1      -0.945  -2.150  23.825  0.00  0.00    -0.375 OA
ATOM      3  N   UNL     1      -3.346  -0.669  24.395  0.00  0.00    -0.292 NA
ATOM      8  C   UNL     1      -2.413   0.042  25.266  0.00  0.00    +0.131 C 
ATOM      9  C   UNL     1      -1.040   0.192  24.596  0.00  0.00    +0.215 C 
ATOM     10  C   UNL     1      -3.290  -2.131  24.509  0.00  0.00    +0.113 C 
ATOM     12  C   UNL     1      -0.232  -1.096  24.461  0.00  0.00    +0.205 C 
ATOM     13  C   UNL     1      -1.904  -2.749  24.688  0.00  0.00    +0.175 C 
ENDROOT
BRANCH   9   2
ATOM      2  O   UNL     1      -0.278   1.128  25.357  0.00  0.00    -0.468 OA
BRANCH   2  17
ATOM      6  N   UNL     1      -0.101   3.145  24.215  0.00  0.00    -0.219 NA
ATOM      7  N   UNL     1      -1.871   4.308  26.054  0.00  0.00    -0.256 NA
ATOM     17  C   UNL     1      -0.630   2.444  25.236  0.00  0.00    +0.234 A 
ATOM     19  C   UNL     1      -1.500   3.015  26.140  0.00  0.00    +0.177 A 
ATOM     20  C   UNL     1      -0.472   4.438  24.129  0.00  0.00    +0.134 A 
ATOM     21  C   UNL     1      -1.342   5.009  25.032  0.00  0.00    +0.130 A 
ENDBRANCH   2  17
ENDBRANCH   9   2
BRANCH   3  11
ATOM     11  C   UNL     1      -4.721  -0.207  24.590  0.00  0.00    +0.122 C 
BRANCH  11  14
ATOM      4  N   UNL     1      -5.297   3.367  25.121  0.00  0.00    -0.274 N 
ATOM      5  N   UNL     1      -4.434   3.488  24.098  0.00  0.00    -0.180 NA
ATOM     14  C   UNL     1      -4.805   1.297  24.627  0.00  0.00    +0.004 A 
ATOM     15  C   UNL     1      -5.553   2.075  25.477  0.00  0.00    +0.112 A 
ATOM     16  C   UNL     1      -4.137   2.220  23.800  0.00  0.00    +0.139 A 
ATOM     18  C   UNL     1      -5.857   4.549  25.731  0.00  0.00    +0.172 C 
ENDBRANCH  11  14
ENDBRANCH   3  11
TORSDOF 4
ENDMDL
MODEL 3
REMARK VINA RESULT:      -5.1      2.181      4.779
REMARK  Name = 75536934
REMARK  5 active torsions:
REMARK  status: ('A' for Active; 'I' for Inactive)
REMARK    1  A    between atoms: O_2  and  C_9
REMARK    2  A    between atoms: O_2  and  C_17
REMARK    3  A    between atoms: N_3  and  C_11
REMARK    4  A    between atoms: N_4  and  C_18
REMARK    5  A    between atoms: C_11  and  C_14
REMARK                            x       y       z     vdW  Elec       q    Type
REMARK                         _______ _______ _______ _____ _____    ______ ____
ROOT
ATOM      1  O   UNL     1      -3.985   4.302  24.397  0.00  0.00    -0.375 OA
ATOM      3  N   UNL     1      -1.572   2.887  25.075  0.00  0.00    -0.292 NA
ATOM      8  C   UNL     1      -2.551   2.017  25.724  0.00  0.00    +0.131 C 
ATOM      9  C   UNL     1      -3.820   1.886  24.871  0.00  0.00    +0.215 C 
ATOM     10  C   UNL     1      -1.742   4.316  25.364  0.00  0.00    +0.113 C 
ATOM     12  C   UNL     1      -4.694   3.135  24.799  0.00  0.00    +0.205 C 
ATOM     13  C   UNL     1      -3.179   4.830  25.443  0.00  0.00    +0.175 C 
ENDROOT
BRANCH   9   2
ATOM      2  O   UNL     1      -4.601   0.817  25.406  0.00  0.00    -0.468 OA
BRANCH   2  17
ATOM      6  N   UNL     1      -3.486  -1.124  26.034  0.00  0.00    -0.219 NA
ATOM      7  N   UNL     1      -4.105  -2.251  23.541  0.00  0.00    -0.256 NA
ATOM     17  C   UNL     1      -4.189  -0.451  25.102  0.00  0.00    +0.234 A 
ATOM     19  C   UNL     1      -4.492  -1.004  23.877  0.00  0.00    +0.177 A 
ATOM     20  C   UNL     1      -3.098  -2.371  25.698  0.00  0.00    +0.134 A 
ATOM     21  C   UNL     1      -3.402  -2.924  24.473  0.00  0.00    +0.130 A 
ENDBRANCH   2  17
ENDBRANCH   9   2
BRANCH   3  11
ATOM     11  C   UNL     1      -0.201   2.476  25.382  0.00  0.00    +0.122 C 
BRANCH  11  14
ATOM      4  N   UNL     1       1.391   0.223  22.981  0.00  0.00    -0.274 N 
ATOM      5  N   UNL     1       0.394  -0.601  23.346  0.00  0.00    -0.180 NA
ATOM     14  C   UNL     1       0.281   1.394  24.452  0.00  0.00    +0.004 A 
ATOM     15  C   UNL     1       1.369   1.431  23.614  0.00  0.00    +0.112 A 
ATOM     16  C   UNL     1      -0.281   0.120  24.246  0.00  0.00    +0.139 A 
ATOM     18  C   UNL     1       2.356  -0.210  21.999  0.00  0.00    +0.172 C 
ENDBRANCH  11  14
ENDBRANCH   3  11
TORSDOF 4
ENDMDL
MODEL 4
REMARK VINA RESULT:      -4.7      2.253      5.952
REMARK  Name = 75536934
REMARK  5 active torsions:
REMARK  status: ('A' for Active; 'I' for Inactive)
REMARK    1  A    between atoms: O_2  and  C_9
REMARK    2  A    between atoms: O_2  and  C_17
REMARK    3  A    between atoms: N_3  and  C_11
REMARK    4  A    between atoms: N_4  and  C_18
REMARK    5  A    between atoms: C_11  and  C_14
REMARK                            x       y       z     vdW  Elec       q    Type
REMARK                         _______ _______ _______ _____ _____    ______ ____
ROOT
ATOM      1  O   UNL     1      -3.354   4.520  26.381  0.00  0.00    -0.375 OA
ATOM      3  N   UNL     1      -4.326   2.079  25.206  0.00  0.00    -0.292 NA
ATOM      8  C   UNL     1      -3.092   2.240  24.439  0.00  0.00    +0.131 C 
ATOM      9  C   UNL     1      -1.961   2.779  25.325  0.00  0.00    +0.215 C 
ATOM     10  C   UNL     1      -5.155   3.287  25.284  0.00  0.00    +0.113 C 
ATOM     12  C   UNL     1      -2.106   4.234  25.761  0.00  0.00    +0.205 C 
ATOM     13  C   UNL     1      -4.415   4.615  25.437  0.00  0.00    +0.175 C 
ENDROOT
BRANCH   9   2
ATOM      2  O   UNL     1      -0.735   2.641  24.607  0.00  0.00    -0.468 OA
BRANCH   2  17
ATOM      6  N   UNL     1       0.474   1.166  23.276  0.00  0.00    -0.219 NA
ATOM      7  N   UNL     1      -0.325  -0.944  24.942  0.00  0.00    -0.256 NA
ATOM     17  C   UNL     1      -0.321   1.364  24.347  0.00  0.00    +0.234 A 
ATOM     19  C   UNL     1      -0.713   0.327  25.165  0.00  0.00    +0.177 A 
ATOM     20  C   UNL     1       0.862  -0.105  23.053  0.00  0.00    +0.134 A 
ATOM     21  C   UNL     1       0.469  -1.141  23.872  0.00  0.00    +0.130 A 
ENDBRANCH   2  17
ENDBRANCH   9   2
BRANCH   3  11
ATOM     11  C   UNL     1      -5.125   0.958  24.708  0.00  0.00    +0.122 C 
BRANCH  11  14
ATOM      4  N   UNL     1      -3.407  -2.261  24.443  0.00  0.00    -0.274 N 
ATOM      5  N   UNL     1      -3.292  -2.120  25.775  0.00  0.00    -0.180 NA
ATOM     14  C   UNL     1      -4.392  -0.351  24.837  0.00  0.00    +0.004 A 
ATOM     15  C   UNL     1      -4.058  -1.228  23.833  0.00  0.00    +0.112 A 
ATOM     16  C   UNL     1      -3.895  -0.951  26.009  0.00  0.00    +0.139 A 
ATOM     18  C   UNL     1      -2.863  -3.430  23.796  0.00  0.00    +0.172 C 
ENDBRANCH  11  14
ENDBRANCH   3  11
TORSDOF 4
ENDMDL
MODEL 5
REMARK VINA RESULT:      -4.6      3.279      4.148
REMARK  Name = 75536934
REMARK  5 active torsions:
REMARK  status: ('A' for Active; 'I' for Inactive)
REMARK    1  A    between atoms: O_2  and  C_9
REMARK    2  A    between atoms: O_2  and  C_17
REMARK    3  A    between atoms: N_3  and  C_11
REMARK    4  A    between atoms: N_4  and  C_18
REMARK    5  A    between atoms: C_11  and  C_14
REMARK                            x       y       z     vdW  Elec       q    Type
REMARK                         _______ _______ _______ _____ _____    ______ ____
ROOT
ATOM      1  O   UNL     1      -1.209  -0.239  26.038  0.00  0.00    -0.375 OA
ATOM      3  N   UNL     1       0.340   0.026  23.627  0.00  0.00    -0.292 NA
ATOM      8  C   UNL     1      -0.714   0.998  23.343  0.00  0.00    +0.131 C 
ATOM      9  C   UNL     1      -1.105   1.770  24.610  0.00  0.00    +0.215 C 
ATOM     10  C   UNL     1      -0.144  -1.276  24.100  0.00  0.00    +0.113 C 
ATOM     12  C   UNL     1      -1.866   0.966  25.661  0.00  0.00    +0.205 C 
ATOM     13  C   UNL     1      -1.339  -1.255  25.051  0.00  0.00    +0.175 C 
ENDROOT
BRANCH   9   2
ATOM      2  O   UNL     1      -1.912   2.881  24.217  0.00  0.00    -0.468 OA
BRANCH   2  17
ATOM      6  N   UNL     1      -4.068   2.013  24.150  0.00  0.00    -0.219 NA
ATOM      7  N   UNL     1      -4.830   3.832  26.144  0.00  0.00    -0.256 NA
ATOM     17  C   UNL     1      -3.199   2.894  24.682  0.00  0.00    +0.234 A 
ATOM     19  C   UNL     1      -3.573   3.788  25.661  0.00  0.00    +0.177 A 
ATOM     20  C   UNL     1      -5.326   2.057  24.633  0.00  0.00    +0.134 A 
ATOM     21  C   UNL     1      -5.700   2.950  25.613  0.00  0.00    +0.130 A 
ENDBRANCH   2  17
ENDBRANCH   9   2
BRANCH   3  11
ATOM     11  C   UNL     1       1.224  -0.159  22.475  0.00  0.00    +0.122 C 
BRANCH  11  14
ATOM      4  N   UNL     1       4.717  -0.267  23.558  0.00  0.00    -0.274 N 
ATOM      5  N   UNL     1       4.717   1.005  23.122  0.00  0.00    -0.180 NA
ATOM     14  C   UNL     1       2.672   0.024  22.846  0.00  0.00    +0.004 A 
ATOM     15  C   UNL     1       3.516  -0.899  23.415  0.00  0.00    +0.112 A 
ATOM     16  C   UNL     1       3.465   1.177  22.688  0.00  0.00    +0.139 A 
ATOM     18  C   UNL     1       5.921  -0.834  24.114  0.00  0.00    +0.172 C 
ENDBRANCH  11  14
ENDBRANCH   3  11
TORSDOF 4
ENDMDL
MODEL 6
REMARK VINA RESULT:      -3.8      2.128      5.490
REMARK  Name = 75536934
REMARK  5 active torsions:
REMARK  status: ('A' for Active; 'I' for Inactive)
REMARK    1  A    between atoms: O_2  and  C_9
REMARK    2  A    between atoms: O_2  and  C_17
REMARK    3  A    between atoms: N_3  and  C_11
REMARK    4  A    between atoms: N_4  and  C_18
REMARK    5  A    between atoms: C_11  and  C_14
REMARK                            x       y       z     vdW  Elec       q    Type
REMARK                         _______ _______ _______ _____ _____    ______ ____
ROOT
ATOM      1  O   UNL     1       0.347   3.177  25.747  0.00  0.00    -0.375 OA
ATOM      3  N   UNL     1      -2.384   3.549  24.918  0.00  0.00    -0.292 NA
ATOM      8  C   UNL     1      -2.004   2.463  24.016  0.00  0.00    +0.131 C 
ATOM      9  C   UNL     1      -1.091   1.453  24.725  0.00  0.00    +0.215 C 
ATOM     10  C   UNL     1      -1.428   4.661  24.965  0.00  0.00    +0.113 C 
ATOM     12  C   UNL     1       0.319   1.947  25.032  0.00  0.00    +0.205 C 
ATOM     13  C   UNL     1       0.053   4.292  24.914  0.00  0.00    +0.175 C 
ENDROOT
BRANCH   9   2
ATOM      2  O   UNL     1      -0.995   0.292  23.900  0.00  0.00    -0.468 OA
BRANCH   2  17
ATOM      6  N   UNL     1      -3.211  -0.411  23.947  0.00  0.00    -0.219 NA
ATOM      7  N   UNL     1      -2.357  -2.948  24.782  0.00  0.00    -0.256 NA
ATOM     17  C   UNL     1      -1.908  -0.699  24.133  0.00  0.00    +0.234 A 
ATOM     19  C   UNL     1      -1.489  -1.946  24.543  0.00  0.00    +0.177 A 
ATOM     20  C   UNL     1      -4.080  -1.413  24.186  0.00  0.00    +0.134 A 
ATOM     21  C   UNL     1      -3.660  -2.660  24.596  0.00  0.00    +0.130 A 
ENDBRANCH   2  17
ENDBRANCH   9   2
BRANCH   3  11
ATOM     11  C   UNL     1      -3.723   4.054  24.615  0.00  0.00    +0.122 C 
BRANCH  11  14
ATOM      4  N   UNL     1      -6.231   1.966  26.268  0.00  0.00    -0.274 N 
ATOM      5  N   UNL     1      -6.423   1.501  25.021  0.00  0.00    -0.180 NA
ATOM     14  C   UNL     1      -4.797   3.105  25.077  0.00  0.00    +0.004 A 
ATOM     15  C   UNL     1      -5.268   2.929  26.356  0.00  0.00    +0.112 A 
ATOM     16  C   UNL     1      -5.544   2.201  24.298  0.00  0.00    +0.139 A 
ATOM     18  C   UNL     1      -7.015   1.439  27.358  0.00  0.00    +0.172 C 
ENDBRANCH  11  14
ENDBRANCH   3  11
TORSDOF 4
ENDMDL
MODEL 7
REMARK VINA RESULT:      -3.7      1.954      4.073
REMARK  Name = 75536934
REMARK  5 active torsions:
REMARK  status: ('A' for Active; 'I' for Inactive)
REMARK    1  A    between atoms: O_2  and  C_9
REMARK    2  A    between atoms: O_2  and  C_17
REMARK    3  A    between atoms: N_3  and  C_11
REMARK    4  A    between atoms: N_4  and  C_18
REMARK    5  A    between atoms: C_11  and  C_14
REMARK                            x       y       z     vdW  Elec       q    Type
REMARK                         _______ _______ _______ _____ _____    ______ ____
ROOT
ATOM      1  O   UNL     1       0.943  -0.589  24.236  0.00  0.00    -0.375 OA
ATOM      3  N   UNL     1      -0.264   1.842  25.195  0.00  0.00    -0.292 NA
ATOM      8  C   UNL     1      -1.378   0.920  25.410  0.00  0.00    +0.131 C 
ATOM      9  C   UNL     1      -0.875  -0.445  25.898  0.00  0.00    +0.215 C 
ATOM     10  C   UNL     1       0.353   1.752  23.867  0.00  0.00    +0.113 C 
ATOM     12  C   UNL     1      -0.133  -1.281  24.860  0.00  0.00    +0.205 C 
ATOM     13  C   UNL     1       0.490   0.352  23.271  0.00  0.00    +0.175 C 
ENDROOT
BRANCH   9   2
ATOM      2  O   UNL     1      -2.003  -1.190  26.358  0.00  0.00    -0.468 OA
BRANCH   2  17
ATOM      6  N   UNL     1      -3.749  -0.575  24.953  0.00  0.00    -0.219 NA
ATOM      7  N   UNL     1      -3.907  -3.222  24.039  0.00  0.00    -0.256 NA
ATOM     17  C   UNL     1      -2.930  -1.539  25.416  0.00  0.00    +0.234 A 
ATOM     19  C   UNL     1      -3.008  -2.840  24.967  0.00  0.00    +0.177 A 
ATOM     20  C   UNL     1      -4.648  -0.957  24.024  0.00  0.00    +0.134 A 
ATOM     21  C   UNL     1      -4.726  -2.257  23.576  0.00  0.00    +0.130 A 
ENDBRANCH   2  17
ENDBRANCH   9   2
BRANCH   3  11
ATOM     11  C   UNL     1      -0.651   3.225  25.473  0.00  0.00    +0.122 C 
BRANCH  11  14
ATOM      4  N   UNL     1      -4.245   3.874  25.260  0.00  0.00    -0.274 N 
ATOM      5  N   UNL     1      -4.015   3.775  23.939  0.00  0.00    -0.180 NA
ATOM     14  C   UNL     1      -2.100   3.477  25.148  0.00  0.00    +0.004 A 
ATOM     15  C   UNL     1      -3.131   3.703  26.028  0.00  0.00    +0.112 A 
ATOM     16  C   UNL     1      -2.703   3.533  23.877  0.00  0.00    +0.139 A 
ATOM     18  C   UNL     1      -5.581   4.137  25.737  0.00  0.00    +0.172 C 
ENDBRANCH  11  14
ENDBRANCH   3  11
TORSDOF 4
ENDMDL
MODEL 8
REMARK VINA RESULT:      -3.4      2.019      2.640
REMARK  Name = 75536934
REMARK  5 active torsions:
REMARK  status: ('A' for Active; 'I' for Inactive)
REMARK    1  A    between atoms: O_2  and  C_9
REMARK    2  A    between atoms: O_2  and  C_17
REMARK    3  A    between atoms: N_3  and  C_11
REMARK    4  A    between atoms: N_4  and  C_18
REMARK    5  A    between atoms: C_11  and  C_14
REMARK                            x       y       z     vdW  Elec       q    Type
REMARK                         _______ _______ _______ _____ _____    ______ ____
ROOT
ATOM      1  O   UNL     1      -2.642  -2.566  25.278  0.00  0.00    -0.375 OA
ATOM      3  N   UNL     1      -1.186  -0.105  24.954  0.00  0.00    -0.292 NA
ATOM      8  C   UNL     1      -2.440   0.270  24.303  0.00  0.00    +0.131 C 
ATOM      9  C   UNL     1      -3.644  -0.323  25.046  0.00  0.00    +0.215 C 
ATOM     10  C   UNL     1      -0.638  -1.395  24.520  0.00  0.00    +0.113 C 
ATOM     12  C   UNL     1      -3.810  -1.835  24.923  0.00  0.00    +0.205 C 
ATOM     13  C   UNL     1      -1.645  -2.514  24.265  0.00  0.00    +0.175 C 
ENDROOT
BRANCH   9   2
ATOM      2  O   UNL     1      -4.824   0.305  24.544  0.00  0.00    -0.468 OA
BRANCH   2  17
ATOM      6  N   UNL     1      -4.209   2.502  24.096  0.00  0.00    -0.219 NA
ATOM      7  N   UNL     1      -6.017   3.376  26.053  0.00  0.00    -0.256 NA
ATOM     17  C   UNL     1      -4.963   1.640  24.806  0.00  0.00    +0.234 A 
ATOM     19  C   UNL     1      -5.851   2.069  25.768  0.00  0.00    +0.177 A 
ATOM     20  C   UNL     1      -4.375   3.808  24.381  0.00  0.00    +0.134 A 
ATOM     21  C   UNL     1      -5.263   4.238  25.343  0.00  0.00    +0.130 A 
ENDBRANCH   2  17
ENDBRANCH   9   2
BRANCH   3  11
ATOM     11  C   UNL     1      -0.173   0.941  24.810  0.00  0.00    +0.122 C 
BRANCH  11  14
ATOM      4  N   UNL     1       2.652   0.419  22.545  0.00  0.00    -0.274 N 
ATOM      5  N   UNL     1       1.740  -0.267  21.834  0.00  0.00    -0.180 NA
ATOM     14  C   UNL     1       0.835   0.602  23.744  0.00  0.00    +0.004 A 
ATOM     15  C   UNL     1       2.161   0.959  23.698  0.00  0.00    +0.112 A 
ATOM     16  C   UNL     1       0.632  -0.152  22.572  0.00  0.00    +0.139 A 
ATOM     18  C   UNL     1       4.007   0.525  22.060  0.00  0.00    +0.172 C 
ENDBRANCH  11  14
ENDBRANCH   3  11
TORSDOF 4
ENDMDL
MODEL 9
REMARK VINA RESULT:      -3.1      1.936      4.675
REMARK  Name = 75536934
REMARK  5 active torsions:
REMARK  status: ('A' for Active; 'I' for Inactive)
REMARK    1  A    between atoms: O_2  and  C_9
REMARK    2  A    between atoms: O_2  and  C_17
REMARK    3  A    between atoms: N_3  and  C_11
REMARK    4  A    between atoms: N_4  and  C_18
REMARK    5  A    between atoms: C_11  and  C_14
REMARK                            x       y       z     vdW  Elec       q    Type
REMARK                         _______ _______ _______ _____ _____    ______ ____
ROOT
ATOM      1  O   UNL     1       0.756   0.690  23.866  0.00  0.00    -0.375 OA
ATOM      3  N   UNL     1      -1.104   2.621  24.911  0.00  0.00    -0.292 NA
ATOM      8  C   UNL     1      -1.838   1.394  25.214  0.00  0.00    +0.131 C 
ATOM      9  C   UNL     1      -0.883   0.280  25.664  0.00  0.00    +0.215 C 
ATOM     10  C   UNL     1      -0.591   2.701  23.539  0.00  0.00    +0.113 C 
ATOM     12  C   UNL     1       0.014  -0.298  24.573  0.00  0.00    +0.205 C 
ATOM     13  C   UNL     1      -0.048   1.406  22.937  0.00  0.00    +0.175 C 
ENDROOT
BRANCH   9   2
ATOM      2  O   UNL     1      -1.669  -0.779  26.212  0.00  0.00    -0.468 OA
BRANCH   2  17
ATOM      6  N   UNL     1      -2.287  -2.580  24.879  0.00  0.00    -0.219 NA
ATOM      7  N   UNL     1      -4.669  -1.248  24.235  0.00  0.00    -0.256 NA
ATOM     17  C   UNL     1      -2.578  -1.361  25.373  0.00  0.00    +0.234 A 
ATOM     19  C   UNL     1      -3.749  -0.707  25.057  0.00  0.00    +0.177 A 
ATOM     20  C   UNL     1      -3.207  -3.122  24.057  0.00  0.00    +0.134 A 
ATOM     21  C   UNL     1      -4.377  -2.467  23.740  0.00  0.00    +0.130 A 
ENDBRANCH   2  17
ENDBRANCH   9   2
BRANCH   3  11
ATOM     11  C   UNL     1      -1.901   3.811  25.216  0.00  0.00    +0.122 C 
BRANCH  11  14
ATOM      4  N   UNL     1      -5.377   2.672  25.168  0.00  0.00    -0.274 N 
ATOM      5  N   UNL     1      -5.472   3.449  26.261  0.00  0.00    -0.180 NA
ATOM     14  C   UNL     1      -3.359   3.478  25.392  0.00  0.00    +0.004 A 
ATOM     15  C   UNL     1      -4.132   2.654  24.610  0.00  0.00    +0.112 A 
ATOM     16  C   UNL     1      -4.235   3.939  26.392  0.00  0.00    +0.139 A 
ATOM     18  C   UNL     1      -6.537   1.956  24.695  0.00  0.00    +0.172 C 
ENDBRANCH  11  14
ENDBRANCH   3  11
TORSDOF 4
ENDMDL
MODEL 10
REMARK VINA RESULT:      -2.9      2.184      4.876
REMARK  Name = 75536934
REMARK  5 active torsions:
REMARK  status: ('A' for Active; 'I' for Inactive)
REMARK    1  A    between atoms: O_2  and  C_9
REMARK    2  A    between atoms: O_2  and  C_17
REMARK    3  A    between atoms: N_3  and  C_11
REMARK    4  A    between atoms: N_4  and  C_18
REMARK    5  A    between atoms: C_11  and  C_14
REMARK                            x       y       z     vdW  Elec       q    Type
REMARK                         _______ _______ _______ _____ _____    ______ ____
ROOT
ATOM      1  O   UNL     1      -6.244   3.111  26.016  0.00  0.00    -0.375 OA
ATOM      3  N   UNL     1      -4.739   0.770  25.283  0.00  0.00    -0.292 NA
ATOM      8  C   UNL     1      -3.902   1.797  24.665  0.00  0.00    +0.131 C 
ATOM      9  C   UNL     1      -3.822   3.048  25.552  0.00  0.00    +0.215 C 
ATOM     10  C   UNL     1      -6.171   0.896  24.990  0.00  0.00    +0.113 C 
ATOM     12  C   UNL     1      -5.103   3.873  25.639  0.00  0.00    +0.205 C 
ATOM     13  C   UNL     1      -6.737   2.314  24.946  0.00  0.00    +0.175 C 
ENDROOT
BRANCH   9   2
ATOM      2  O   UNL     1      -2.780   3.881  25.044  0.00  0.00    -0.468 OA
BRANCH   2  17
ATOM      6  N   UNL     1      -0.881   3.249  23.860  0.00  0.00    -0.219 NA
ATOM      7  N   UNL     1       0.300   2.410  26.261  0.00  0.00    -0.256 NA
ATOM     17  C   UNL     1      -1.520   3.350  25.043  0.00  0.00    +0.234 A 
ATOM     19  C   UNL     1      -0.939   2.938  26.222  0.00  0.00    +0.177 A 
ATOM     20  C   UNL     1       0.358   2.722  23.899  0.00  0.00    +0.134 A 
ATOM     21  C   UNL     1       0.939   2.310  25.079  0.00  0.00    +0.130 A 
ENDBRANCH   2  17
ENDBRANCH   9   2
BRANCH   3  11
ATOM     11  C   UNL     1      -4.276  -0.575  24.942  0.00  0.00    +0.122 C 
BRANCH  11  14
ATOM      4  N   UNL     1      -0.683  -0.668  24.261  0.00  0.00    -0.274 N 
ATOM      5  N   UNL     1      -0.608  -0.901  25.583  0.00  0.00    -0.180 NA
ATOM     14  C   UNL     1      -2.773  -0.655  24.896  0.00  0.00    +0.004 A 
ATOM     15  C   UNL     1      -1.957  -0.514  23.800  0.00  0.00    +0.112 A 
ATOM     16  C   UNL     1      -1.888  -0.892  25.966  0.00  0.00    +0.139 A 
ATOM     18  C   UNL     1       0.525  -0.604  23.475  0.00  0.00    +0.172 C 
ENDBRANCH  11  14
ENDBRANCH   3  11
TORSDOF 4
ENDMDL
