MODEL 1
REMARK VINA RESULT:      -5.8      0.000      0.000
REMARK  Name = 51137078
REMARK  2 active torsions:
REMARK  status: ('A' for Active; 'I' for Inactive)
REMARK    1  A    between atoms: N_2  and  C_9
REMARK    2  A    between atoms: C_4  and  C_8
REMARK                            x       y       z     vdW  Elec       q    Type
REMARK                         _______ _______ _______ _____ _____    ______ ____
ROOT
ATOM      1  S   UNL     1      -3.316   1.201  24.546  0.00  0.00    -0.072 S 
ATOM      3  N   UNL     1      -1.240  -0.142  25.278  0.00  0.00    -0.244 NA
ATOM      8  C   UNL     1      -1.725   1.072  25.160  0.00  0.00    +0.084 A 
ATOM     10  C   UNL     1      -3.394  -0.517  24.413  0.00  0.00    +0.039 A 
ATOM     11  C   UNL     1      -2.185  -1.064  24.853  0.00  0.00    +0.078 A 
ATOM     12  C   UNL     1      -4.450  -1.321  23.953  0.00  0.00    +0.017 A 
ATOM     13  C   UNL     1      -2.030  -2.467  24.831  0.00  0.00    +0.029 A 
ATOM     14  C   UNL     1      -4.268  -2.707  23.941  0.00  0.00    +0.001 A 
ATOM     15  C   UNL     1      -3.075  -3.274  24.374  0.00  0.00    +0.002 A 
ENDROOT
BRANCH   8   4
ATOM      2  N   UNL     1      -1.015   4.663  25.297  0.00  0.00    -0.305 NA
ATOM      4  C   UNL     1      -0.975   2.330  25.530  0.00  0.00    +0.060 C 
ATOM      5  C   UNL     1       0.097   2.765  24.515  0.00  0.00    +0.027 C 
ATOM      6  C   UNL     1      -1.892   3.552  25.673  0.00  0.00    +0.094 C 
ATOM      7  C   UNL     1      -0.285   4.186  24.123  0.00  0.00    +0.085 C 
ATOM      9  C   UNL     1      -1.755   5.888  25.030  0.00  0.00    +0.104 C 
ENDBRANCH   8   4
TORSDOF 1
ENDMDL
MODEL 2
REMARK VINA RESULT:      -5.6      1.543      2.312
REMARK  Name = 51137078
REMARK  2 active torsions:
REMARK  status: ('A' for Active; 'I' for Inactive)
REMARK    1  A    between atoms: N_2  and  C_9
REMARK    2  A    between atoms: C_4  and  C_8
REMARK                            x       y       z     vdW  Elec       q    Type
REMARK                         _______ _______ _______ _____ _____    ______ ____
ROOT
ATOM      1  S   UNL     1      -1.718   0.690  24.937  0.00  0.00    -0.072 S 
ATOM      3  N   UNL     1      -4.155   0.523  24.110  0.00  0.00    -0.244 NA
ATOM      8  C   UNL     1      -3.215   1.368  24.462  0.00  0.00    +0.084 A 
ATOM     10  C   UNL     1      -2.355  -0.888  24.656  0.00  0.00    +0.039 A 
ATOM     11  C   UNL     1      -3.677  -0.775  24.216  0.00  0.00    +0.078 A 
ATOM     12  C   UNL     1      -1.729  -2.135  24.813  0.00  0.00    +0.017 A 
ATOM     13  C   UNL     1      -4.396  -1.955  23.924  0.00  0.00    +0.029 A 
ATOM     14  C   UNL     1      -2.464  -3.286  24.519  0.00  0.00    +0.001 A 
ATOM     15  C   UNL     1      -3.780  -3.199  24.079  0.00  0.00    +0.002 A 
ENDROOT
BRANCH   8   4
ATOM      2  N   UNL     1      -2.225   4.870  24.885  0.00  0.00    -0.305 NA
ATOM      4  C   UNL     1      -3.377   2.871  24.470  0.00  0.00    +0.060 C 
ATOM      5  C   UNL     1      -3.843   3.463  25.811  0.00  0.00    +0.027 C 
ATOM      6  C   UNL     1      -2.074   3.614  24.148  0.00  0.00    +0.094 C 
ATOM      7  C   UNL     1      -2.773   4.481  26.184  0.00  0.00    +0.085 C 
ATOM      9  C   UNL     1      -0.970   5.597  25.008  0.00  0.00    +0.104 C 
ENDBRANCH   8   4
TORSDOF 1
ENDMDL
MODEL 3
REMARK VINA RESULT:      -5.1      1.551      6.207
REMARK  Name = 51137078
REMARK  2 active torsions:
REMARK  status: ('A' for Active; 'I' for Inactive)
REMARK    1  A    between atoms: N_2  and  C_9
REMARK    2  A    between atoms: C_4  and  C_8
REMARK                            x       y       z     vdW  Elec       q    Type
REMARK                         _______ _______ _______ _____ _____    ______ ____
ROOT
ATOM      1  S   UNL     1      -1.327   1.138  24.642  0.00  0.00    -0.072 S 
ATOM      3  N   UNL     1      -3.457   2.318  25.492  0.00  0.00    -0.244 NA
ATOM      8  C   UNL     1      -2.939   1.144  25.215  0.00  0.00    +0.084 A 
ATOM     10  C   UNL     1      -1.288   2.858  24.762  0.00  0.00    +0.039 A 
ATOM     11  C   UNL     1      -2.523   3.311  25.236  0.00  0.00    +0.078 A 
ATOM     12  C   UNL     1      -0.240   3.742  24.458  0.00  0.00    +0.017 A 
ATOM     13  C   UNL     1      -2.712   4.699  25.412  0.00  0.00    +0.029 A 
ATOM     14  C   UNL     1      -0.455   5.110  24.640  0.00  0.00    +0.001 A 
ATOM     15  C   UNL     1      -1.674   5.585  25.111  0.00  0.00    +0.002 A 
ENDROOT
BRANCH   8   4
ATOM      2  N   UNL     1      -3.585  -2.435  24.774  0.00  0.00    -0.305 NA
ATOM      4  C   UNL     1      -3.668  -0.170  25.374  0.00  0.00    +0.060 C 
ATOM      5  C   UNL     1      -4.726  -0.455  24.295  0.00  0.00    +0.027 C 
ATOM      6  C   UNL     1      -2.730  -1.383  25.330  0.00  0.00    +0.094 C 
ATOM      7  C   UNL     1      -4.317  -1.790  23.685  0.00  0.00    +0.085 C 
ATOM      9  C   UNL     1      -2.822  -3.589  24.322  0.00  0.00    +0.104 C 
ENDBRANCH   8   4
TORSDOF 1
ENDMDL
MODEL 4
REMARK VINA RESULT:      -4.6      2.763      4.430
REMARK  Name = 51137078
REMARK  2 active torsions:
REMARK  status: ('A' for Active; 'I' for Inactive)
REMARK    1  A    between atoms: N_2  and  C_9
REMARK    2  A    between atoms: C_4  and  C_8
REMARK                            x       y       z     vdW  Elec       q    Type
REMARK                         _______ _______ _______ _____ _____    ______ ____
ROOT
ATOM      1  S   UNL     1      -1.458   2.758  25.110  0.00  0.00    -0.072 S 
ATOM      3  N   UNL     1      -2.599   0.475  24.736  0.00  0.00    -0.244 NA
ATOM      8  C   UNL     1      -1.433   1.075  24.804  0.00  0.00    +0.084 A 
ATOM     10  C   UNL     1      -3.182   2.713  25.161  0.00  0.00    +0.039 A 
ATOM     11  C   UNL     1      -3.611   1.402  24.938  0.00  0.00    +0.078 A 
ATOM     12  C   UNL     1      -4.087   3.764  25.383  0.00  0.00    +0.017 A 
ATOM     13  C   UNL     1      -4.998   1.134  24.938  0.00  0.00    +0.029 A 
ATOM     14  C   UNL     1      -5.453   3.471  25.376  0.00  0.00    +0.001 A 
ATOM     15  C   UNL     1      -5.905   2.175  25.157  0.00  0.00    +0.002 A 
ENDROOT
BRANCH   8   4
ATOM      2  N   UNL     1       1.918   0.478  23.448  0.00  0.00    -0.305 NA
ATOM      4  C   UNL     1      -0.103   0.378  24.633  0.00  0.00    +0.060 C 
ATOM      5  C   UNL     1      -0.083  -0.720  23.557  0.00  0.00    +0.027 C 
ATOM      6  C   UNL     1       1.026   1.336  24.232  0.00  0.00    +0.094 C 
ATOM      7  C   UNL     1       1.028  -0.313  22.599  0.00  0.00    +0.085 C 
ATOM      9  C   UNL     1       2.887   1.242  22.677  0.00  0.00    +0.104 C 
ENDBRANCH   8   4
TORSDOF 1
ENDMDL
MODEL 5
REMARK VINA RESULT:      -4.4     14.365     16.098
REMARK  Name = 51137078
REMARK  2 active torsions:
REMARK  status: ('A' for Active; 'I' for Inactive)
REMARK    1  A    between atoms: N_2  and  C_9
REMARK    2  A    between atoms: C_4  and  C_8
REMARK                            x       y       z     vdW  Elec       q    Type
REMARK                         _______ _______ _______ _____ _____    ______ ____
ROOT
ATOM      1  S   UNL     1      -7.361 -10.325  14.751  0.00  0.00    -0.072 S 
ATOM      3  N   UNL     1      -4.800 -10.626  14.775  0.00  0.00    -0.244 NA
ATOM      8  C   UNL     1      -5.838 -10.470  13.987  0.00  0.00    +0.084 A 
ATOM     10  C   UNL     1      -6.595 -10.482  16.288  0.00  0.00    +0.039 A 
ATOM     11  C   UNL     1      -5.218 -10.635  16.098  0.00  0.00    +0.078 A 
ATOM     12  C   UNL     1      -7.171 -10.470  17.569  0.00  0.00    +0.017 A 
ATOM     13  C   UNL     1      -4.391 -10.781  17.233  0.00  0.00    +0.029 A 
ATOM     14  C   UNL     1      -6.329 -10.618  18.674  0.00  0.00    +0.001 A 
ATOM     15  C   UNL     1      -4.957 -10.771  18.510  0.00  0.00    +0.002 A 
ENDROOT
BRANCH   8   4
ATOM      2  N   UNL     1      -4.428  -9.656  10.705  0.00  0.00    -0.305 NA
ATOM      4  C   UNL     1      -5.762 -10.411  12.479  0.00  0.00    +0.060 C 
ATOM      5  C   UNL     1      -6.403  -9.163  11.848  0.00  0.00    +0.027 C 
ATOM      6  C   UNL     1      -4.321 -10.417  11.952  0.00  0.00    +0.094 C 
ATOM      7  C   UNL     1      -5.292  -8.521  11.028  0.00  0.00    +0.085 C 
ATOM      9  C   UNL     1      -3.129  -9.237  10.197  0.00  0.00    +0.104 C 
ENDBRANCH   8   4
TORSDOF 1
ENDMDL
MODEL 6
REMARK VINA RESULT:      -4.4     14.612     16.604
REMARK  Name = 51137078
REMARK  2 active torsions:
REMARK  status: ('A' for Active; 'I' for Inactive)
REMARK    1  A    between atoms: N_2  and  C_9
REMARK    2  A    between atoms: C_4  and  C_8
REMARK                            x       y       z     vdW  Elec       q    Type
REMARK                         _______ _______ _______ _____ _____    ______ ____
ROOT
ATOM      1  S   UNL     1      -6.875  -9.307  12.350  0.00  0.00    -0.072 S 
ATOM      3  N   UNL     1      -4.927 -10.531  13.515  0.00  0.00    -0.244 NA
ATOM      8  C   UNL     1      -6.188 -10.190  13.643  0.00  0.00    +0.084 A 
ATOM     10  C   UNL     1      -5.365  -9.367  11.519  0.00  0.00    +0.039 A 
ATOM     11  C   UNL     1      -4.441 -10.066  12.302  0.00  0.00    +0.078 A 
ATOM     12  C   UNL     1      -5.024  -8.835  10.265  0.00  0.00    +0.017 A 
ATOM     13  C   UNL     1      -3.128 -10.236  11.810  0.00  0.00    +0.029 A 
ATOM     14  C   UNL     1      -3.718  -9.017   9.803  0.00  0.00    +0.001 A 
ATOM     15  C   UNL     1      -2.781  -9.708  10.563  0.00  0.00    +0.002 A 
ENDROOT
BRANCH   8   4
ATOM      2  N   UNL     1      -8.500  -9.588  16.421  0.00  0.00    -0.305 NA
ATOM      4  C   UNL     1      -7.046 -10.529  14.840  0.00  0.00    +0.060 C 
ATOM      5  C   UNL     1      -6.331 -10.423  16.198  0.00  0.00    +0.027 C 
ATOM      6  C   UNL     1      -8.272  -9.617  14.974  0.00  0.00    +0.094 C 
ATOM      7  C   UNL     1      -7.169  -9.443  17.009  0.00  0.00    +0.085 C 
ATOM      9  C   UNL     1      -9.402  -8.517  16.820  0.00  0.00    +0.104 C 
ENDBRANCH   8   4
TORSDOF 1
ENDMDL
MODEL 7
REMARK VINA RESULT:      -4.2      1.384      5.929
REMARK  Name = 51137078
REMARK  2 active torsions:
REMARK  status: ('A' for Active; 'I' for Inactive)
REMARK    1  A    between atoms: N_2  and  C_9
REMARK    2  A    between atoms: C_4  and  C_8
REMARK                            x       y       z     vdW  Elec       q    Type
REMARK                         _______ _______ _______ _____ _____    ______ ____
ROOT
ATOM      1  S   UNL     1      -3.099   1.601  24.832  0.00  0.00    -0.072 S 
ATOM      3  N   UNL     1      -0.647   1.867  24.079  0.00  0.00    -0.244 NA
ATOM      8  C   UNL     1      -1.620   0.998  24.219  0.00  0.00    +0.084 A 
ATOM     10  C   UNL     1      -2.404   3.177  24.931  0.00  0.00    +0.039 A 
ATOM     11  C   UNL     1      -1.081   3.121  24.483  0.00  0.00    +0.078 A 
ATOM     12  C   UNL     1      -2.988   4.374  25.374  0.00  0.00    +0.017 A 
ATOM     13  C   UNL     1      -0.317   4.309  24.479  0.00  0.00    +0.029 A 
ATOM     14  C   UNL     1      -2.210   5.535  25.360  0.00  0.00    +0.001 A 
ATOM     15  C   UNL     1      -0.892   5.505  24.919  0.00  0.00    +0.002 A 
ENDROOT
BRANCH   8   4
ATOM      2  N   UNL     1      -2.456  -2.567  24.325  0.00  0.00    -0.305 NA
ATOM      4  C   UNL     1      -1.510  -0.469  23.875  0.00  0.00    +0.060 C 
ATOM      5  C   UNL     1      -0.565  -1.276  24.782  0.00  0.00    +0.027 C 
ATOM      6  C   UNL     1      -2.854  -1.205  23.961  0.00  0.00    +0.094 C 
ATOM      7  C   UNL     1      -1.425  -2.398  25.348  0.00  0.00    +0.085 C 
ATOM      9  C   UNL     1      -3.578  -3.367  24.795  0.00  0.00    +0.104 C 
ENDBRANCH   8   4
TORSDOF 1
ENDMDL
MODEL 8
REMARK VINA RESULT:      -3.8     17.110     18.777
REMARK  Name = 51137078
REMARK  2 active torsions:
REMARK  status: ('A' for Active; 'I' for Inactive)
REMARK    1  A    between atoms: N_2  and  C_9
REMARK    2  A    between atoms: C_4  and  C_8
REMARK                            x       y       z     vdW  Elec       q    Type
REMARK                         _______ _______ _______ _____ _____    ______ ____
ROOT
ATOM      1  S   UNL     1      12.080   8.585  19.676  0.00  0.00    -0.072 S 
ATOM      3  N   UNL     1      13.991   9.014  17.998  0.00  0.00    -0.244 NA
ATOM      8  C   UNL     1      13.723   8.837  19.271  0.00  0.00    +0.084 A 
ATOM     10  C   UNL     1      11.659   8.719  18.009  0.00  0.00    +0.039 A 
ATOM     11  C   UNL     1      12.818   8.950  17.262  0.00  0.00    +0.078 A 
ATOM     12  C   UNL     1      10.393   8.628  17.407  0.00  0.00    +0.017 A 
ATOM     13  C   UNL     1      12.703   9.093  15.862  0.00  0.00    +0.029 A 
ATOM     14  C   UNL     1      10.309   8.775  16.020  0.00  0.00    +0.001 A 
ATOM     15  C   UNL     1      11.447   9.004  15.255  0.00  0.00    +0.002 A 
ENDROOT
BRANCH   8   4
ATOM      2  N   UNL     1      16.439   7.538  21.358  0.00  0.00    -0.305 NA
ATOM      4  C   UNL     1      14.759   8.842  20.371  0.00  0.00    +0.060 C 
ATOM      5  C   UNL     1      14.265   8.307  21.726  0.00  0.00    +0.027 C 
ATOM      6  C   UNL     1      15.987   7.985  20.038  0.00  0.00    +0.094 C 
ATOM      7  C   UNL     1      15.216   7.168  22.070  0.00  0.00    +0.085 C 
ATOM      9  C   UNL     1      17.388   6.437  21.277  0.00  0.00    +0.104 C 
ENDBRANCH   8   4
TORSDOF 1
ENDMDL
MODEL 9
REMARK VINA RESULT:      -3.7     15.553     18.060
REMARK  Name = 51137078
REMARK  2 active torsions:
REMARK  status: ('A' for Active; 'I' for Inactive)
REMARK    1  A    between atoms: N_2  and  C_9
REMARK    2  A    between atoms: C_4  and  C_8
REMARK                            x       y       z     vdW  Elec       q    Type
REMARK                         _______ _______ _______ _____ _____    ______ ____
ROOT
ATOM      1  S   UNL     1      13.716   9.094  21.720  0.00  0.00    -0.072 S 
ATOM      3  N   UNL     1      13.368   6.760  20.679  0.00  0.00    -0.244 NA
ATOM      8  C   UNL     1      14.232   7.740  20.810  0.00  0.00    +0.084 A 
ATOM     10  C   UNL     1      12.193   8.328  21.979  0.00  0.00    +0.039 A 
ATOM     11  C   UNL     1      12.194   7.083  21.344  0.00  0.00    +0.078 A 
ATOM     12  C   UNL     1      11.078   8.796  22.693  0.00  0.00    +0.017 A 
ATOM     13  C   UNL     1      11.036   6.279  21.427  0.00  0.00    +0.029 A 
ATOM     14  C   UNL     1       9.945   7.981  22.759  0.00  0.00    +0.001 A 
ATOM     15  C   UNL     1       9.923   6.738  22.136  0.00  0.00    +0.002 A 
ENDROOT
BRANCH   8   4
ATOM      2  N   UNL     1      17.141   6.405  19.029  0.00  0.00    -0.305 NA
ATOM      4  C   UNL     1      15.622   7.738  20.218  0.00  0.00    +0.060 C 
ATOM      5  C   UNL     1      16.728   7.245  21.168  0.00  0.00    +0.027 C 
ATOM      6  C   UNL     1      15.743   6.838  18.981  0.00  0.00    +0.094 C 
ATOM      7  C   UNL     1      17.390   6.086  20.434  0.00  0.00    +0.085 C 
ATOM      9  C   UNL     1      17.404   5.276  18.149  0.00  0.00    +0.104 C 
ENDBRANCH   8   4
TORSDOF 1
ENDMDL
MODEL 10
REMARK VINA RESULT:      -3.6      2.188      2.716
REMARK  Name = 51137078
REMARK  2 active torsions:
REMARK  status: ('A' for Active; 'I' for Inactive)
REMARK    1  A    between atoms: N_2  and  C_9
REMARK    2  A    between atoms: C_4  and  C_8
REMARK                            x       y       z     vdW  Elec       q    Type
REMARK                         _______ _______ _______ _____ _____    ______ ____
ROOT
ATOM      1  S   UNL     1      -1.428   0.584  25.245  0.00  0.00    -0.072 S 
ATOM      3  N   UNL     1      -3.946   0.503  24.695  0.00  0.00    -0.244 NA
ATOM      8  C   UNL     1      -2.973   1.298  25.073  0.00  0.00    +0.084 A 
ATOM     10  C   UNL     1      -2.090  -0.938  24.774  0.00  0.00    +0.039 A 
ATOM     11  C   UNL     1      -3.456  -0.782  24.520  0.00  0.00    +0.078 A 
ATOM     12  C   UNL     1      -1.446  -2.178  24.641  0.00  0.00    +0.017 A 
ATOM     13  C   UNL     1      -4.202  -1.911  24.117  0.00  0.00    +0.029 A 
ATOM     14  C   UNL     1      -2.208  -3.279  24.242  0.00  0.00    +0.001 A 
ATOM     15  C   UNL     1      -3.568  -3.150  23.983  0.00  0.00    +0.002 A 
ENDROOT
BRANCH   8   4
ATOM      2  N   UNL     1      -4.724   4.499  25.409  0.00  0.00    -0.305 NA
ATOM      4  C   UNL     1      -3.137   2.774  25.357  0.00  0.00    +0.060 C 
ATOM      5  C   UNL     1      -2.938   3.692  24.139  0.00  0.00    +0.027 C 
ATOM      6  C   UNL     1      -4.532   3.128  25.888  0.00  0.00    +0.094 C 
ATOM      7  C   UNL     1      -4.231   4.489  24.032  0.00  0.00    +0.085 C 
ATOM      9  C   UNL     1      -6.112   4.929  25.498  0.00  0.00    +0.104 C 
ENDBRANCH   8   4
TORSDOF 1
ENDMDL
