MODEL 1
REMARK VINA RESULT:       2.9      0.000      0.000
REMARK  Name = 44716830
REMARK  10 active torsions:
REMARK  status: ('A' for Active; 'I' for Inactive)
REMARK    1  A    between atoms: S_1  and  N_9
REMARK    2  A    between atoms: S_1  and  C_23
REMARK    3  A    between atoms: N_9  and  C_14
REMARK    4  A    between atoms: N_10  and  C_21
REMARK    5  A    between atoms: N_12  and  C_34
REMARK    6  A    between atoms: C_16  and  C_19
REMARK    7  A    between atoms: C_20  and  C_22
REMARK    8  A    between atoms: C_21  and  C_24
REMARK    9  A    between atoms: C_21  and  C_25
REMARK   10  A    between atoms: C_24  and  C_28
REMARK                            x       y       z     vdW  Elec       q    Type
REMARK                         _______ _______ _______ _____ _____    ______ ____
ROOT
ATOM      3  O   UNL     1      -1.579   3.799  27.198  0.00  0.00    -0.267 OA
ATOM      8  N   UNL     1      -1.448   2.342  25.366  0.00  0.00    -0.283 N 
ATOM     14  C   UNL     1      -0.259  -0.011  24.132  0.00  0.00    +0.080 C 
ATOM     15  C   UNL     1      -0.689   1.183  23.279  0.00  0.00    +0.052 C 
ATOM     16  C   UNL     1      -1.754   2.050  23.953  0.00  0.00    +0.164 C 
ATOM     17  C   UNL     1       0.136   0.444  25.534  0.00  0.00    +0.039 C 
ATOM     18  C   UNL     1      -1.003   1.214  26.191  0.00  0.00    +0.110 C 
ATOM     20  C   UNL     1      -1.698   3.570  25.995  0.00  0.00    +0.283 C 
ENDROOT
BRANCH  20  22
ATOM      6  O   UNL     1      -3.359   4.617  24.578  0.00  0.00    -0.458 OA
ATOM     22  C   UNL     1      -2.136   4.698  25.166  0.00  0.00    +0.189 A 
ATOM     27  C   UNL     1      -1.524   5.888  24.847  0.00  0.00    +0.054 A 
ATOM     30  C   UNL     1      -2.429   6.583  24.011  0.00  0.00    +0.042 A 
ATOM     31  C   UNL     1      -3.530   5.769  23.877  0.00  0.00    +0.196 A 
ENDBRANCH  20  22
BRANCH  16  19
ATOM      2  O   UNL     1      -3.572   0.913  22.901  0.00  0.00    -0.274 OA
ATOM     10  N   UNL     1      -3.741   1.461  25.156  0.00  0.00    -0.302 N 
ATOM     19  C   UNL     1      -3.109   1.405  23.925  0.00  0.00    +0.234 C 
ATOM     39  H   UNL     1      -3.229   1.806  25.963  0.00  0.00    +0.150 HD
BRANCH  10  21
ATOM     21  C   UNL     1      -5.065   0.931  25.389  0.00  0.00    +0.163 C 
BRANCH  21  25
ATOM      7  O   UNL     1      -7.020   1.910  24.330  0.00  0.00    -0.274 OA
ATOM     13  N   UNL     1      -5.781   3.209  25.764  0.00  0.00    -0.328 N 
ATOM     25  C   UNL     1      -6.054   2.045  25.077  0.00  0.00    +0.231 C 
ATOM     40  H   UNL     1      -6.373   4.027  25.657  0.00  0.00    +0.145 HD
ATOM     41  H   UNL     1      -4.993   3.298  26.395  0.00  0.00    +0.145 HD
ENDBRANCH  21  25
BRANCH  21  24
ATOM     24  C   UNL     1      -5.358  -0.301  24.524  0.00  0.00    +0.067 C 
BRANCH  24  28
ATOM     28  C   UNL     1      -4.272  -1.345  24.611  0.00  0.00    -0.045 A 
ATOM     32  C   UNL     1      -3.409  -1.365  25.705  0.00  0.00    +0.004 A 
ATOM     33  C   UNL     1      -4.131  -2.290  23.595  0.00  0.00    +0.004 A 
ATOM     35  C   UNL     1      -2.404  -2.330  25.786  0.00  0.00    +0.000 A 
ATOM     36  C   UNL     1      -3.127  -3.255  23.675  0.00  0.00    +0.000 A 
ATOM     37  C   UNL     1      -2.263  -3.274  24.770  0.00  0.00    +0.000 A 
ENDBRANCH  24  28
ENDBRANCH  21  24
ENDBRANCH  10  21
ENDBRANCH  16  19
BRANCH  14   9
ATOM      9  N   UNL     1       0.898  -0.683  23.493  0.00  0.00    -0.185 NA
ATOM     38  H   UNL     1       1.261  -1.511  23.980  0.00  0.00    +0.148 HD
BRANCH   9   1
ATOM      1  S   UNL     1       1.951   0.209  22.503  0.00  0.00    +0.077 S 
ATOM      4  O   UNL     1       1.817   1.622  22.804  0.00  0.00    -0.152 OA
ATOM      5  O   UNL     1       1.821  -0.262  21.137  0.00  0.00    -0.152 OA
BRANCH   1  23
ATOM     11  N   UNL     1       3.710  -1.517  23.738  0.00  0.00    -0.216 NA
ATOM     12  N   UNL     1       5.651  -0.452  23.557  0.00  0.00    -0.338 N 
ATOM     23  C   UNL     1       3.535  -0.323  23.083  0.00  0.00    +0.211 A 
ATOM     26  C   UNL     1       4.725   0.355  22.960  0.00  0.00    +0.135 A 
ATOM     29  C   UNL     1       4.996  -1.563  24.009  0.00  0.00    +0.201 A 
ATOM     34  C   UNL     1       7.063  -0.181  23.689  0.00  0.00    +0.150 C 
ENDBRANCH   1  23
ENDBRANCH   9   1
ENDBRANCH  14   9
TORSDOF 9
ENDMDL
MODEL 2
REMARK VINA RESULT:       4.8      1.587      3.157
REMARK  Name = 44716830
REMARK  10 active torsions:
REMARK  status: ('A' for Active; 'I' for Inactive)
REMARK    1  A    between atoms: S_1  and  N_9
REMARK    2  A    between atoms: S_1  and  C_23
REMARK    3  A    between atoms: N_9  and  C_14
REMARK    4  A    between atoms: N_10  and  C_21
REMARK    5  A    between atoms: N_12  and  C_34
REMARK    6  A    between atoms: C_16  and  C_19
REMARK    7  A    between atoms: C_20  and  C_22
REMARK    8  A    between atoms: C_21  and  C_24
REMARK    9  A    between atoms: C_21  and  C_25
REMARK   10  A    between atoms: C_24  and  C_28
REMARK                            x       y       z     vdW  Elec       q    Type
REMARK                         _______ _______ _______ _____ _____    ______ ____
ROOT
ATOM      3  O   UNL     1      -1.352   2.581  27.410  0.00  0.00    -0.267 OA
ATOM      8  N   UNL     1      -0.916   1.712  25.276  0.00  0.00    -0.283 N 
ATOM     14  C   UNL     1       0.443  -0.255  23.615  0.00  0.00    +0.080 C 
ATOM     15  C   UNL     1       0.186   1.161  23.095  0.00  0.00    +0.052 C 
ATOM     16  C   UNL     1      -0.970   1.862  23.810  0.00  0.00    +0.164 C 
ATOM     17  C   UNL     1       0.588  -0.252  25.134  0.00  0.00    +0.039 C 
ATOM     18  C   UNL     1      -0.640   0.367  25.791  0.00  0.00    +0.110 C 
ATOM     20  C   UNL     1      -1.258   2.719  26.190  0.00  0.00    +0.283 C 
ENDROOT
BRANCH  20  22
ATOM      6  O   UNL     1      -0.556   4.671  24.942  0.00  0.00    -0.458 OA
ATOM     22  C   UNL     1      -1.528   4.065  25.672  0.00  0.00    +0.189 A 
ATOM     27  C   UNL     1      -2.630   4.881  25.783  0.00  0.00    +0.054 A 
ATOM     30  C   UNL     1      -2.314   6.064  25.074  0.00  0.00    +0.042 A 
ATOM     31  C   UNL     1      -1.042   5.887  24.581  0.00  0.00    +0.196 A 
ENDBRANCH  20  22
BRANCH  16  19
ATOM      2  O   UNL     1      -2.889   1.800  22.389  0.00  0.00    -0.274 OA
ATOM     10  N   UNL     1      -2.777   0.336  24.195  0.00  0.00    -0.302 N 
ATOM     19  C   UNL     1      -2.307   1.342  23.367  0.00  0.00    +0.234 C 
ATOM     39  H   UNL     1      -2.172  -0.034  24.922  0.00  0.00    +0.150 HD
BRANCH  10  21
ATOM     21  C   UNL     1      -4.051  -0.317  24.000  0.00  0.00    +0.163 C 
BRANCH  21  25
ATOM      7  O   UNL     1      -4.611  -2.642  23.569  0.00  0.00    -0.274 OA
ATOM     13  N   UNL     1      -2.497  -2.140  24.315  0.00  0.00    -0.328 N 
ATOM     25  C   UNL     1      -3.784  -1.814  23.945  0.00  0.00    +0.231 C 
ATOM     40  H   UNL     1      -2.183  -3.106  24.310  0.00  0.00    +0.145 HD
ATOM     41  H   UNL     1      -1.818  -1.443  24.602  0.00  0.00    +0.145 HD
ENDBRANCH  21  25
BRANCH  21  24
ATOM     24  C   UNL     1      -5.047   0.007  25.121  0.00  0.00    +0.067 C 
BRANCH  24  28
ATOM     28  C   UNL     1      -5.308   1.487  25.258  0.00  0.00    -0.045 A 
ATOM     32  C   UNL     1      -4.856   2.369  24.278  0.00  0.00    +0.004 A 
ATOM     33  C   UNL     1      -6.001   1.973  26.367  0.00  0.00    +0.004 A 
ATOM     35  C   UNL     1      -5.097   3.738  24.405  0.00  0.00    +0.000 A 
ATOM     36  C   UNL     1      -6.243   3.340  26.494  0.00  0.00    +0.000 A 
ATOM     37  C   UNL     1      -5.790   4.223  25.513  0.00  0.00    +0.000 A 
ENDBRANCH  24  28
ENDBRANCH  21  24
ENDBRANCH  10  21
ENDBRANCH  16  19
BRANCH  14   9
ATOM      9  N   UNL     1       1.686  -0.786  23.006  0.00  0.00    -0.185 NA
ATOM     38  H   UNL     1       2.001  -1.700  23.355  0.00  0.00    +0.148 HD
BRANCH   9   1
ATOM      1  S   UNL     1       2.838   0.286  22.368  0.00  0.00    +0.077 S 
ATOM      4  O   UNL     1       2.598   1.619  22.886  0.00  0.00    -0.152 OA
ATOM      5  O   UNL     1       2.939   0.066  20.937  0.00  0.00    -0.152 OA
BRANCH   1  23
ATOM     11  N   UNL     1       4.373  -1.458  23.851  0.00  0.00    -0.216 NA
ATOM     12  N   UNL     1       6.404  -0.570  23.706  0.00  0.00    -0.338 N 
ATOM     23  C   UNL     1       4.336  -0.316  23.089  0.00  0.00    +0.211 A 
ATOM     26  C   UNL     1       5.584   0.252  22.986  0.00  0.00    +0.135 A 
ATOM     29  C   UNL     1       5.633  -1.583  24.206  0.00  0.00    +0.201 A 
ATOM     34  C   UNL     1       7.823  -0.402  23.904  0.00  0.00    +0.150 C 
ENDBRANCH   1  23
ENDBRANCH   9   1
ENDBRANCH  14   9
TORSDOF 9
ENDMDL
MODEL 3
REMARK VINA RESULT:       5.2      2.605      6.886
REMARK  Name = 44716830
REMARK  10 active torsions:
REMARK  status: ('A' for Active; 'I' for Inactive)
REMARK    1  A    between atoms: S_1  and  N_9
REMARK    2  A    between atoms: S_1  and  C_23
REMARK    3  A    between atoms: N_9  and  C_14
REMARK    4  A    between atoms: N_10  and  C_21
REMARK    5  A    between atoms: N_12  and  C_34
REMARK    6  A    between atoms: C_16  and  C_19
REMARK    7  A    between atoms: C_20  and  C_22
REMARK    8  A    between atoms: C_21  and  C_24
REMARK    9  A    between atoms: C_21  and  C_25
REMARK   10  A    between atoms: C_24  and  C_28
REMARK                            x       y       z     vdW  Elec       q    Type
REMARK                         _______ _______ _______ _____ _____    ______ ____
ROOT
ATOM      3  O   UNL     1       1.213  -0.756  21.249  0.00  0.00    -0.267 OA
ATOM      8  N   UNL     1       0.322   0.755  22.806  0.00  0.00    -0.283 N 
ATOM     14  C   UNL     1      -1.746   2.678  23.511  0.00  0.00    +0.080 C 
ATOM     15  C   UNL     1      -0.311   2.860  24.006  0.00  0.00    +0.052 C 
ATOM     16  C   UNL     1       0.485   1.554  24.034  0.00  0.00    +0.164 C 
ATOM     17  C   UNL     1      -1.765   1.934  22.179  0.00  0.00    +0.039 C 
ATOM     18  C   UNL     1      -1.045   0.596  22.299  0.00  0.00    +0.110 C 
ATOM     20  C   UNL     1       1.349   0.023  22.192  0.00  0.00    +0.283 C 
ENDROOT
BRANCH  20  22
ATOM      6  O   UNL     1       3.297  -0.872  23.318  0.00  0.00    -0.458 OA
ATOM     22  C   UNL     1       2.716   0.189  22.697  0.00  0.00    +0.189 A 
ATOM     27  C   UNL     1       3.576   1.262  22.665  0.00  0.00    +0.054 A 
ATOM     30  C   UNL     1       4.762   0.832  23.307  0.00  0.00    +0.042 A 
ATOM     31  C   UNL     1       4.542  -0.472  23.686  0.00  0.00    +0.196 A 
ENDBRANCH  20  22
BRANCH  16  19
ATOM      2  O   UNL     1      -0.109   1.124  26.307  0.00  0.00    -0.274 OA
ATOM     10  N   UNL     1      -0.003  -0.659  24.815  0.00  0.00    -0.302 N 
ATOM     19  C   UNL     1       0.086   0.674  25.183  0.00  0.00    +0.234 C 
ATOM     39  H   UNL     1       0.086  -0.912  23.835  0.00  0.00    +0.150 HD
BRANCH  10  21
ATOM     21  C   UNL     1      -0.348  -1.712  25.742  0.00  0.00    +0.163 C 
BRANCH  21  25
ATOM      7  O   UNL     1      -2.452  -0.796  26.538  0.00  0.00    -0.274 OA
ATOM     13  N   UNL     1      -0.711  -1.002  28.023  0.00  0.00    -0.328 N 
ATOM     25  C   UNL     1      -1.288  -1.111  26.776  0.00  0.00    +0.231 C 
ATOM     40  H   UNL     1      -1.236  -0.629  28.808  0.00  0.00    +0.145 HD
ATOM     41  H   UNL     1       0.244  -1.288  28.209  0.00  0.00    +0.145 HD
ENDBRANCH  21  25
BRANCH  21  24
ATOM     24  C   UNL     1      -1.014  -2.904  25.044  0.00  0.00    +0.067 C 
BRANCH  24  28
ATOM     28  C   UNL     1      -2.376  -2.566  24.486  0.00  0.00    -0.045 A 
ATOM     32  C   UNL     1      -3.386  -3.527  24.485  0.00  0.00    +0.004 A 
ATOM     33  C   UNL     1      -2.622  -1.295  23.971  0.00  0.00    +0.004 A 
ATOM     35  C   UNL     1      -4.645  -3.216  23.969  0.00  0.00    +0.000 A 
ATOM     36  C   UNL     1      -3.880  -0.983  23.456  0.00  0.00    +0.000 A 
ATOM     37  C   UNL     1      -4.891  -1.945  23.454  0.00  0.00    +0.000 A 
ENDBRANCH  24  28
ENDBRANCH  21  24
ENDBRANCH  10  21
ENDBRANCH  16  19
BRANCH  14   9
ATOM      9  N   UNL     1      -2.380   4.007  23.337  0.00  0.00    -0.185 NA
ATOM     38  H   UNL     1      -1.932   4.632  22.655  0.00  0.00    +0.148 HD
BRANCH   9   1
ATOM      1  S   UNL     1      -3.268   4.692  24.611  0.00  0.00    +0.077 S 
ATOM      4  O   UNL     1      -4.025   5.828  24.118  0.00  0.00    -0.152 OA
ATOM      5  O   UNL     1      -2.397   4.841  25.762  0.00  0.00    -0.152 OA
BRANCH   1  23
ATOM     11  N   UNL     1      -4.794   2.462  24.067  0.00  0.00    -0.216 NA
ATOM     12  N   UNL     1      -5.815   2.082  26.002  0.00  0.00    -0.338 N 
ATOM     23  C   UNL     1      -4.413   3.401  24.994  0.00  0.00    +0.211 A 
ATOM     26  C   UNL     1      -5.035   3.185  26.202  0.00  0.00    +0.135 A 
ATOM     29  C   UNL     1      -5.638   1.683  24.706  0.00  0.00    +0.201 A 
ATOM     34  C   UNL     1      -6.671   1.452  26.978  0.00  0.00    +0.150 C 
ENDBRANCH   1  23
ENDBRANCH   9   1
ENDBRANCH  14   9
TORSDOF 9
ENDMDL
MODEL 4
REMARK VINA RESULT:       6.0      1.793      4.691
REMARK  Name = 44716830
REMARK  10 active torsions:
REMARK  status: ('A' for Active; 'I' for Inactive)
REMARK    1  A    between atoms: S_1  and  N_9
REMARK    2  A    between atoms: S_1  and  C_23
REMARK    3  A    between atoms: N_9  and  C_14
REMARK    4  A    between atoms: N_10  and  C_21
REMARK    5  A    between atoms: N_12  and  C_34
REMARK    6  A    between atoms: C_16  and  C_19
REMARK    7  A    between atoms: C_20  and  C_22
REMARK    8  A    between atoms: C_21  and  C_24
REMARK    9  A    between atoms: C_21  and  C_25
REMARK   10  A    between atoms: C_24  and  C_28
REMARK                            x       y       z     vdW  Elec       q    Type
REMARK                         _______ _______ _______ _____ _____    ______ ____
ROOT
ATOM      3  O   UNL     1      -3.501  -0.075  22.897  0.00  0.00    -0.267 OA
ATOM      8  N   UNL     1      -1.509   0.668  23.885  0.00  0.00    -0.283 N 
ATOM     14  C   UNL     1       1.194   1.703  23.571  0.00  0.00    +0.080 C 
ATOM     15  C   UNL     1       0.844   0.779  24.739  0.00  0.00    +0.052 C 
ATOM     16  C   UNL     1      -0.648   0.779  25.077  0.00  0.00    +0.164 C 
ATOM     17  C   UNL     1       0.304   1.410  22.367  0.00  0.00    +0.039 C 
ATOM     18  C   UNL     1      -1.168   1.525  22.744  0.00  0.00    +0.110 C 
ATOM     20  C   UNL     1      -2.698  -0.073  23.829  0.00  0.00    +0.283 C 
ENDROOT
BRANCH  20  22
ATOM      6  O   UNL     1      -2.879  -2.275  24.819  0.00  0.00    -0.458 OA
ATOM     22  C   UNL     1      -3.033  -0.933  24.969  0.00  0.00    +0.189 A 
ATOM     27  C   UNL     1      -3.496  -0.637  26.230  0.00  0.00    +0.054 A 
ATOM     30  C   UNL     1      -3.635  -1.877  26.898  0.00  0.00    +0.042 A 
ATOM     31  C   UNL     1      -3.247  -2.843  25.998  0.00  0.00    +0.196 A 
ENDBRANCH  20  22
BRANCH  16  19
ATOM      2  O   UNL     1      -0.739   2.241  26.964  0.00  0.00    -0.274 OA
ATOM     10  N   UNL     1      -1.848   2.852  25.011  0.00  0.00    -0.302 N 
ATOM     19  C   UNL     1      -1.064   2.027  25.800  0.00  0.00    +0.234 C 
ATOM     39  H   UNL     1      -1.979   2.626  24.030  0.00  0.00    +0.150 HD
BRANCH  10  21
ATOM     21  C   UNL     1      -2.397   4.105  25.479  0.00  0.00    +0.163 C 
BRANCH  21  25
ATOM      7  O   UNL     1      -1.685   6.400  25.119  0.00  0.00    -0.274 OA
ATOM     13  N   UNL     1      -0.191   4.706  24.694  0.00  0.00    -0.328 N 
ATOM     25  C   UNL     1      -1.422   5.200  25.073  0.00  0.00    +0.231 C 
ATOM     40  H   UNL     1       0.556   5.332  24.412  0.00  0.00    +0.145 HD
ATOM     41  H   UNL     1       0.018   3.714  24.683  0.00  0.00    +0.145 HD
ENDBRANCH  21  25
BRANCH  21  24
ATOM     24  C   UNL     1      -3.787   4.384  24.895  0.00  0.00    +0.067 C 
BRANCH  24  28
ATOM     28  C   UNL     1      -4.782   3.294  25.212  0.00  0.00    -0.045 A 
ATOM     32  C   UNL     1      -5.151   2.380  24.227  0.00  0.00    +0.004 A 
ATOM     33  C   UNL     1      -5.334   3.204  26.490  0.00  0.00    +0.004 A 
ATOM     35  C   UNL     1      -6.072   1.372  24.519  0.00  0.00    +0.000 A 
ATOM     36  C   UNL     1      -6.254   2.197  26.782  0.00  0.00    +0.000 A 
ATOM     37  C   UNL     1      -6.624   1.282  25.796  0.00  0.00    +0.000 A 
ENDBRANCH  24  28
ENDBRANCH  21  24
ENDBRANCH  10  21
ENDBRANCH  16  19
BRANCH  14   9
ATOM      9  N   UNL     1       2.613   1.501  23.191  0.00  0.00    -0.185 NA
ATOM     38  H   UNL     1       3.163   2.356  23.041  0.00  0.00    +0.148 HD
BRANCH   9   1
ATOM      1  S   UNL     1       3.078   0.080  22.387  0.00  0.00    +0.077 S 
ATOM      4  O   UNL     1       3.236   0.355  20.971  0.00  0.00    -0.152 OA
ATOM      5  O   UNL     1       2.225  -1.007  22.828  0.00  0.00    -0.152 OA
BRANCH   1  23
ATOM     11  N   UNL     1       4.860  -0.791  24.301  0.00  0.00    -0.216 NA
ATOM     12  N   UNL     1       6.829  -0.333  23.383  0.00  0.00    -0.338 N 
ATOM     23  C   UNL     1       4.683  -0.216  23.067  0.00  0.00    +0.211 A 
ATOM     26  C   UNL     1       5.891   0.077  22.479  0.00  0.00    +0.135 A 
ATOM     29  C   UNL     1       6.164  -0.847  24.461  0.00  0.00    +0.201 A 
ATOM     34  C   UNL     1       8.261  -0.240  23.230  0.00  0.00    +0.150 C 
ENDBRANCH   1  23
ENDBRANCH   9   1
ENDBRANCH  14   9
TORSDOF 9
ENDMDL
MODEL 5
REMARK VINA RESULT:       6.5      1.559      3.071
REMARK  Name = 44716830
REMARK  10 active torsions:
REMARK  status: ('A' for Active; 'I' for Inactive)
REMARK    1  A    between atoms: S_1  and  N_9
REMARK    2  A    between atoms: S_1  and  C_23
REMARK    3  A    between atoms: N_9  and  C_14
REMARK    4  A    between atoms: N_10  and  C_21
REMARK    5  A    between atoms: N_12  and  C_34
REMARK    6  A    between atoms: C_16  and  C_19
REMARK    7  A    between atoms: C_20  and  C_22
REMARK    8  A    between atoms: C_21  and  C_24
REMARK    9  A    between atoms: C_21  and  C_25
REMARK   10  A    between atoms: C_24  and  C_28
REMARK                            x       y       z     vdW  Elec       q    Type
REMARK                         _______ _______ _______ _____ _____    ______ ____
ROOT
ATOM      3  O   UNL     1      -2.469   4.374  26.717  0.00  0.00    -0.267 OA
ATOM      8  N   UNL     1      -1.541   3.057  25.014  0.00  0.00    -0.283 N 
ATOM     14  C   UNL     1       0.638   1.372  24.072  0.00  0.00    +0.080 C 
ATOM     15  C   UNL     1      -0.134   2.263  23.099  0.00  0.00    +0.052 C 
ATOM     16  C   UNL     1      -1.532   2.631  23.602  0.00  0.00    +0.164 C 
ATOM     17  C   UNL     1       0.644   1.981  25.471  0.00  0.00    +0.039 C 
ATOM     18  C   UNL     1      -0.779   2.231  25.956  0.00  0.00    +0.110 C 
ATOM     20  C   UNL     1      -2.341   4.088  25.527  0.00  0.00    +0.283 C 
ENDROOT
BRANCH  20  22
ATOM      6  O   UNL     1      -2.504   6.044  24.111  0.00  0.00    -0.458 OA
ATOM     22  C   UNL     1      -3.097   4.916  24.581  0.00  0.00    +0.189 A 
ATOM     27  C   UNL     1      -4.355   4.770  24.045  0.00  0.00    +0.054 A 
ATOM     30  C   UNL     1      -4.547   5.880  23.189  0.00  0.00    +0.042 A 
ATOM     31  C   UNL     1      -3.393   6.626  23.263  0.00  0.00    +0.196 A 
ENDBRANCH  20  22
BRANCH  16  19
ATOM      2  O   UNL     1      -3.487   1.543  22.766  0.00  0.00    -0.274 OA
ATOM     10  N   UNL     1      -2.132   0.414  24.284  0.00  0.00    -0.302 N 
ATOM     19  C   UNL     1      -2.494   1.486  23.485  0.00  0.00    +0.234 C 
ATOM     39  H   UNL     1      -1.239   0.434  24.769  0.00  0.00    +0.150 HD
BRANCH  10  21
ATOM     21  C   UNL     1      -2.905  -0.804  24.371  0.00  0.00    +0.163 C 
BRANCH  21  25
ATOM      7  O   UNL     1      -2.114  -3.091  24.155  0.00  0.00    -0.274 OA
ATOM     13  N   UNL     1      -0.760  -1.553  25.194  0.00  0.00    -0.328 N 
ATOM     25  C   UNL     1      -1.919  -1.947  24.561  0.00  0.00    +0.231 C 
ATOM     40  H   UNL     1      -0.012  -2.216  25.371  0.00  0.00    +0.145 HD
ATOM     41  H   UNL     1      -0.605  -0.599  25.504  0.00  0.00    +0.145 HD
ENDBRANCH  21  25
BRANCH  21  24
ATOM     24  C   UNL     1      -3.913  -0.770  25.526  0.00  0.00    +0.067 C 
BRANCH  24  28
ATOM     28  C   UNL     1      -4.835   0.423  25.462  0.00  0.00    -0.045 A 
ATOM     32  C   UNL     1      -4.655   1.491  26.341  0.00  0.00    +0.004 A 
ATOM     33  C   UNL     1      -5.867   0.457  24.526  0.00  0.00    +0.004 A 
ATOM     35  C   UNL     1      -5.507   2.594  26.283  0.00  0.00    +0.000 A 
ATOM     36  C   UNL     1      -6.719   1.560  24.467  0.00  0.00    +0.000 A 
ATOM     37  C   UNL     1      -6.539   2.628  25.346  0.00  0.00    +0.000 A 
ENDBRANCH  24  28
ENDBRANCH  21  24
ENDBRANCH  10  21
ENDBRANCH  16  19
BRANCH  14   9
ATOM      9  N   UNL     1       2.035   1.220  23.600  0.00  0.00    -0.185 NA
ATOM     38  H   UNL     1       2.557   2.094  23.458  0.00  0.00    +0.148 HD
BRANCH   9   1
ATOM      1  S   UNL     1       2.480  -0.151  22.703  0.00  0.00    +0.077 S 
ATOM      4  O   UNL     1       2.515   0.184  21.292  0.00  0.00    -0.152 OA
ATOM      5  O   UNL     1       1.700  -1.284  23.164  0.00  0.00    -0.152 OA
BRANCH   1  23
ATOM     11  N   UNL     1       4.492  -1.477  24.041  0.00  0.00    -0.216 NA
ATOM     12  N   UNL     1       6.281  -0.243  23.584  0.00  0.00    -0.338 N 
ATOM     23  C   UNL     1       4.143  -0.417  23.241  0.00  0.00    +0.211 A 
ATOM     26  C   UNL     1       5.237   0.362  22.946  0.00  0.00    +0.135 A 
ATOM     29  C   UNL     1       5.786  -1.343  24.228  0.00  0.00    +0.201 A 
ATOM     34  C   UNL     1       7.656   0.196  23.581  0.00  0.00    +0.150 C 
ENDBRANCH   1  23
ENDBRANCH   9   1
ENDBRANCH  14   9
TORSDOF 9
ENDMDL
