MODEL 1
REMARK VINA RESULT:       0.3      0.000      0.000
REMARK  Name = 75367767
REMARK  6 active torsions:
REMARK  status: ('A' for Active; 'I' for Inactive)
REMARK    1  A    between atoms: O_3  and  C_9
REMARK    2  A    between atoms: O_3  and  C_17
REMARK    3  A    between atoms: O_5  and  C_28
REMARK    4  A    between atoms: O_5  and  C_29
REMARK    5  A    between atoms: N_8  and  C_20
REMARK    6  A    between atoms: C_20  and  C_21
REMARK                            x       y       z     vdW  Elec       q    Type
REMARK                         _______ _______ _______ _____ _____    ______ ____
ROOT
ATOM      1  S   UNL     1      -2.417   0.317  26.174  0.00  0.00    -0.052 S 
ATOM      2  O   UNL     1      -3.176   4.901  24.101  0.00  0.00    -0.375 OA
ATOM      6  N   UNL     1      -3.794   2.583  25.763  0.00  0.00    -0.304 N 
ATOM      7  N   UNL     1      -4.396   0.614  24.547  0.00  0.00    -0.225 NA
ATOM      9  C   UNL     1      -1.621   3.801  25.663  0.00  0.00    +0.221 C 
ATOM     10  C   UNL     1      -2.781   3.314  26.539  0.00  0.00    +0.154 C 
ATOM     11  C   UNL     1      -4.827   3.434  25.157  0.00  0.00    +0.135 C 
ATOM     12  C   UNL     1      -1.969   4.154  24.215  0.00  0.00    +0.206 C 
ATOM     13  C   UNL     1      -4.324   4.082  23.871  0.00  0.00    +0.179 C 
ATOM     14  C   UNL     1      -3.646   1.240  25.423  0.00  0.00    +0.162 A 
ATOM     15  C   UNL     1      -2.908  -1.061  25.262  0.00  0.00    +0.041 A 
ATOM     16  C   UNL     1      -3.986  -0.707  24.443  0.00  0.00    +0.080 A 
ATOM     18  C   UNL     1      -2.379  -2.361  25.269  0.00  0.00    +0.017 A 
ATOM     19  C   UNL     1      -4.551  -1.692  23.604  0.00  0.00    +0.029 A 
ATOM     22  C   UNL     1      -2.957  -3.317  24.430  0.00  0.00    +0.001 A 
ATOM     23  C   UNL     1      -4.029  -2.989  23.607  0.00  0.00    +0.002 A 
ENDROOT
BRANCH   9   3
ATOM      3  O   UNL     1      -0.579   2.826  25.632  0.00  0.00    -0.443 OA
BRANCH   3  17
ATOM      4  O   UNL     1       0.151   3.286  23.504  0.00  0.00    -0.226 OA
ATOM      8  N   UNL     1       0.005   1.111  24.299  0.00  0.00    -0.277 N 
ATOM     17  C   UNL     1      -0.114   2.482  24.391  0.00  0.00    +0.401 C 
ATOM     30  H   UNL     1      -0.239   0.556  25.112  0.00  0.00    +0.152 HD
BRANCH   8  20
ATOM     20  C   UNL     1       0.470   0.425  23.115  0.00  0.00    +0.142 C 
BRANCH  20  21
ATOM     21  C   UNL     1       1.963   0.271  23.107  0.00  0.00    -0.030 A 
ATOM     24  C   UNL     1       2.774   1.346  22.741  0.00  0.00    +0.009 A 
ATOM     25  C   UNL     1       2.541  -0.948  23.464  0.00  0.00    +0.009 A 
ATOM     26  C   UNL     1       4.162   1.202  22.734  0.00  0.00    +0.046 A 
ATOM     27  C   UNL     1       3.928  -1.092  23.456  0.00  0.00    +0.046 A 
ATOM     28  C   UNL     1       4.738  -0.017  23.091  0.00  0.00    +0.120 A 
BRANCH  28   5
ATOM      5  O   UNL     1       6.093  -0.157  23.084  0.00  0.00    -0.495 OA
ATOM     29  C   UNL     1       6.680  -0.840  24.190  0.00  0.00    +0.277 C 
ENDBRANCH  28   5
ENDBRANCH  20  21
ENDBRANCH   8  20
ENDBRANCH   3  17
ENDBRANCH   9   3
TORSDOF 5
ENDMDL
MODEL 2
REMARK VINA RESULT:       0.4      1.877      4.268
REMARK  Name = 75367767
REMARK  6 active torsions:
REMARK  status: ('A' for Active; 'I' for Inactive)
REMARK    1  A    between atoms: O_3  and  C_9
REMARK    2  A    between atoms: O_3  and  C_17
REMARK    3  A    between atoms: O_5  and  C_28
REMARK    4  A    between atoms: O_5  and  C_29
REMARK    5  A    between atoms: N_8  and  C_20
REMARK    6  A    between atoms: C_20  and  C_21
REMARK                            x       y       z     vdW  Elec       q    Type
REMARK                         _______ _______ _______ _____ _____    ______ ____
ROOT
ATOM      1  S   UNL     1      -2.754   1.939  23.974  0.00  0.00    -0.052 S 
ATOM      2  O   UNL     1      -2.593  -2.935  25.424  0.00  0.00    -0.375 OA
ATOM      6  N   UNL     1      -3.314  -0.673  23.726  0.00  0.00    -0.304 N 
ATOM      7  N   UNL     1      -4.959   0.792  24.657  0.00  0.00    -0.225 NA
ATOM      9  C   UNL     1      -1.054  -1.172  24.655  0.00  0.00    +0.221 C 
ATOM     10  C   UNL     1      -1.901  -0.923  23.401  0.00  0.00    +0.154 C 
ATOM     11  C   UNL     1      -4.136  -1.885  23.838  0.00  0.00    +0.135 C 
ATOM     12  C   UNL     1      -1.766  -1.848  25.828  0.00  0.00    +0.206 C 
ATOM     13  C   UNL     1      -3.952  -2.552  25.197  0.00  0.00    +0.179 C 
ATOM     14  C   UNL     1      -3.773   0.576  24.138  0.00  0.00    +0.162 A 
ATOM     15  C   UNL     1      -3.988   2.933  24.654  0.00  0.00    +0.041 A 
ATOM     16  C   UNL     1      -5.098   2.139  24.958  0.00  0.00    +0.080 A 
ATOM     18  C   UNL     1      -3.976   4.315  24.900  0.00  0.00    +0.017 A 
ATOM     19  C   UNL     1      -6.234   2.752  25.529  0.00  0.00    +0.029 A 
ATOM     22  C   UNL     1      -5.113   4.898  25.465  0.00  0.00    +0.001 A 
ATOM     23  C   UNL     1      -6.229   4.128  25.776  0.00  0.00    +0.002 A 
ENDROOT
BRANCH   9   3
ATOM      3  O   UNL     1      -0.501   0.054  25.132  0.00  0.00    -0.443 OA
BRANCH   3  17
ATOM      4  O   UNL     1       0.783   1.825  24.435  0.00  0.00    -0.226 OA
ATOM      8  N   UNL     1       0.828  -0.219  23.338  0.00  0.00    -0.277 N 
ATOM     17  C   UNL     1       0.408   0.664  24.311  0.00  0.00    +0.401 C 
ATOM     30  H   UNL     1       0.447  -1.160  23.352  0.00  0.00    +0.152 HD
BRANCH   8  20
ATOM     20  C   UNL     1       1.789   0.116  22.313  0.00  0.00    +0.142 C 
BRANCH  20  21
ATOM     21  C   UNL     1       3.202  -0.024  22.801  0.00  0.00    -0.030 A 
ATOM     24  C   UNL     1       4.094   1.040  22.667  0.00  0.00    +0.009 A 
ATOM     25  C   UNL     1       3.623  -1.218  23.387  0.00  0.00    +0.009 A 
ATOM     26  C   UNL     1       5.407   0.911  23.120  0.00  0.00    +0.046 A 
ATOM     27  C   UNL     1       4.935  -1.347  23.840  0.00  0.00    +0.046 A 
ATOM     28  C   UNL     1       5.827  -0.283  23.707  0.00  0.00    +0.120 A 
BRANCH  28   5
ATOM      5  O   UNL     1       7.109  -0.409  24.149  0.00  0.00    -0.495 OA
ATOM     29  C   UNL     1       8.145  -0.289  23.177  0.00  0.00    +0.277 C 
ENDBRANCH  28   5
ENDBRANCH  20  21
ENDBRANCH   8  20
ENDBRANCH   3  17
ENDBRANCH   9   3
TORSDOF 5
ENDMDL
MODEL 3
REMARK VINA RESULT:       1.9     15.569     18.021
REMARK  Name = 75367767
REMARK  6 active torsions:
REMARK  status: ('A' for Active; 'I' for Inactive)
REMARK    1  A    between atoms: O_3  and  C_9
REMARK    2  A    between atoms: O_3  and  C_17
REMARK    3  A    between atoms: O_5  and  C_28
REMARK    4  A    between atoms: O_5  and  C_29
REMARK    5  A    between atoms: N_8  and  C_20
REMARK    6  A    between atoms: C_20  and  C_21
REMARK                            x       y       z     vdW  Elec       q    Type
REMARK                         _______ _______ _______ _____ _____    ______ ____
ROOT
ATOM      1  S   UNL     1      -6.430  -7.727   8.659  0.00  0.00    -0.052 S 
ATOM      2  O   UNL     1     -10.156 -10.781  10.295  0.00  0.00    -0.375 OA
ATOM      6  N   UNL     1      -8.594  -9.280   8.338  0.00  0.00    -0.304 N 
ATOM      7  N   UNL     1      -8.866  -6.906   8.452  0.00  0.00    -0.225 NA
ATOM      9  C   UNL     1      -7.699 -10.773  10.123  0.00  0.00    +0.221 C 
ATOM     10  C   UNL     1      -7.763 -10.459   8.624  0.00  0.00    +0.154 C 
ATOM     11  C   UNL     1     -10.024  -9.569   8.170  0.00  0.00    +0.135 C 
ATOM     12  C   UNL     1      -8.941 -10.417  10.942  0.00  0.00    +0.206 C 
ATOM     13  C   UNL     1     -10.719  -9.719   9.520  0.00  0.00    +0.179 C 
ATOM     14  C   UNL     1      -8.110  -7.979   8.467  0.00  0.00    +0.162 A 
ATOM     15  C   UNL     1      -6.704  -6.026   8.732  0.00  0.00    +0.041 A 
ATOM     16  C   UNL     1      -8.074  -5.777   8.603  0.00  0.00    +0.080 A 
ATOM     18  C   UNL     1      -5.774  -4.986   8.892  0.00  0.00    +0.017 A 
ATOM     19  C   UNL     1      -8.526  -4.440   8.635  0.00  0.00    +0.029 A 
ATOM     22  C   UNL     1      -6.247  -3.672   8.921  0.00  0.00    +0.001 A 
ATOM     23  C   UNL     1      -7.605  -3.400   8.794  0.00  0.00    +0.002 A 
ENDROOT
BRANCH   9   3
ATOM      3  O   UNL     1      -6.583 -10.113  10.720  0.00  0.00    -0.443 OA
BRANCH   3  17
ATOM      4  O   UNL     1      -7.407  -8.636  12.274  0.00  0.00    -0.226 OA
ATOM      8  N   UNL     1      -6.142 -10.480  12.895  0.00  0.00    -0.277 N 
ATOM     17  C   UNL     1      -6.771  -9.647  11.994  0.00  0.00    +0.401 C 
ATOM     30  H   UNL     1      -5.655 -11.294  12.533  0.00  0.00    +0.152 HD
BRANCH   8  20
ATOM     20  C   UNL     1      -6.150 -10.266  14.324  0.00  0.00    +0.142 C 
BRANCH  20  21
ATOM     21  C   UNL     1      -4.775 -10.371  14.915  0.00  0.00    -0.030 A 
ATOM     24  C   UNL     1      -3.686 -10.684  14.100  0.00  0.00    +0.009 A 
ATOM     25  C   UNL     1      -4.584 -10.157  16.281  0.00  0.00    +0.009 A 
ATOM     26  C   UNL     1      -2.408 -10.781  14.649  0.00  0.00    +0.046 A 
ATOM     27  C   UNL     1      -3.306 -10.254  16.830  0.00  0.00    +0.046 A 
ATOM     28  C   UNL     1      -2.218 -10.566  16.015  0.00  0.00    +0.120 A 
BRANCH  28   5
ATOM      5  O   UNL     1      -0.970 -10.661  16.551  0.00  0.00    -0.495 OA
ATOM     29  C   UNL     1      -0.004  -9.706  16.118  0.00  0.00    +0.277 C 
ENDBRANCH  28   5
ENDBRANCH  20  21
ENDBRANCH   8  20
ENDBRANCH   3  17
ENDBRANCH   9   3
TORSDOF 5
ENDMDL
MODEL 4
REMARK VINA RESULT:       2.8     15.148     17.943
REMARK  Name = 75367767
REMARK  6 active torsions:
REMARK  status: ('A' for Active; 'I' for Inactive)
REMARK    1  A    between atoms: O_3  and  C_9
REMARK    2  A    between atoms: O_3  and  C_17
REMARK    3  A    between atoms: O_5  and  C_28
REMARK    4  A    between atoms: O_5  and  C_29
REMARK    5  A    between atoms: N_8  and  C_20
REMARK    6  A    between atoms: C_20  and  C_21
REMARK                            x       y       z     vdW  Elec       q    Type
REMARK                         _______ _______ _______ _____ _____    ______ ____
ROOT
ATOM      1  S   UNL     1      -6.483  -7.673   9.003  0.00  0.00    -0.052 S 
ATOM      2  O   UNL     1      -9.475 -10.781  11.698  0.00  0.00    -0.375 OA
ATOM      6  N   UNL     1      -8.406  -9.521   9.293  0.00  0.00    -0.304 N 
ATOM      7  N   UNL     1      -9.023  -7.228   9.007  0.00  0.00    -0.225 NA
ATOM      9  C   UNL     1      -7.086 -10.496  11.171  0.00  0.00    +0.221 C 
ATOM     10  C   UNL     1      -7.376 -10.503   9.665  0.00  0.00    +0.154 C 
ATOM     11  C   UNL     1      -9.784 -10.018   9.392  0.00  0.00    +0.135 C 
ATOM     12  C   UNL     1      -8.263 -10.142  12.084  0.00  0.00    +0.206 C 
ATOM     13  C   UNL     1     -10.282  -9.979  10.833  0.00  0.00    +0.179 C 
ATOM     14  C   UNL     1      -8.115  -8.171   9.108  0.00  0.00    +0.162 A 
ATOM     15  C   UNL     1      -7.003  -6.042   8.801  0.00  0.00    +0.041 A 
ATOM     16  C   UNL     1      -8.400  -6.001   8.830  0.00  0.00    +0.080 A 
ATOM     18  C   UNL     1      -6.231  -4.882   8.630  0.00  0.00    +0.017 A 
ATOM     19  C   UNL     1      -9.045  -4.754   8.682  0.00  0.00    +0.029 A 
ATOM     22  C   UNL     1      -6.894  -3.660   8.486  0.00  0.00    +0.001 A 
ATOM     23  C   UNL     1      -8.283  -3.595   8.511  0.00  0.00    +0.002 A 
ENDROOT
BRANCH   9   3
ATOM      3  O   UNL     1      -6.022  -9.592  11.467  0.00  0.00    -0.443 OA
BRANCH   3  17
ATOM      4  O   UNL     1      -6.035  -9.220  13.733  0.00  0.00    -0.226 OA
ATOM      8  N   UNL     1      -4.287 -10.336  12.691  0.00  0.00    -0.277 N 
ATOM     17  C   UNL     1      -5.497  -9.674  12.729  0.00  0.00    +0.401 C 
ATOM     30  H   UNL     1      -3.957 -10.673  11.793  0.00  0.00    +0.152 HD
BRANCH   8  20
ATOM     20  C   UNL     1      -3.475 -10.588  13.859  0.00  0.00    +0.142 C 
BRANCH  20  21
ATOM     21  C   UNL     1      -4.287 -10.573  15.121  0.00  0.00    -0.030 A 
ATOM     24  C   UNL     1      -5.667 -10.776  15.066  0.00  0.00    +0.009 A 
ATOM     25  C   UNL     1      -3.663 -10.354  16.350  0.00  0.00    +0.009 A 
ATOM     26  C   UNL     1      -6.421 -10.762  16.239  0.00  0.00    +0.046 A 
ATOM     27  C   UNL     1      -4.417 -10.339  17.522  0.00  0.00    +0.046 A 
ATOM     28  C   UNL     1      -5.796 -10.543  17.467  0.00  0.00    +0.120 A 
BRANCH  28   5
ATOM      5  O   UNL     1      -6.532 -10.529  18.612  0.00  0.00    -0.495 OA
ATOM     29  C   UNL     1      -7.852  -9.995  18.528  0.00  0.00    +0.277 C 
ENDBRANCH  28   5
ENDBRANCH  20  21
ENDBRANCH   8  20
ENDBRANCH   3  17
ENDBRANCH   9   3
TORSDOF 5
ENDMDL
MODEL 5
REMARK VINA RESULT:       2.8     15.979     18.054
REMARK  Name = 75367767
REMARK  6 active torsions:
REMARK  status: ('A' for Active; 'I' for Inactive)
REMARK    1  A    between atoms: O_3  and  C_9
REMARK    2  A    between atoms: O_3  and  C_17
REMARK    3  A    between atoms: O_5  and  C_28
REMARK    4  A    between atoms: O_5  and  C_29
REMARK    5  A    between atoms: N_8  and  C_20
REMARK    6  A    between atoms: C_20  and  C_21
REMARK                            x       y       z     vdW  Elec       q    Type
REMARK                         _______ _______ _______ _____ _____    ______ ____
ROOT
ATOM      1  S   UNL     1      -6.637  -7.656   9.137  0.00  0.00    -0.052 S 
ATOM      2  O   UNL     1     -10.070 -10.764  11.243  0.00  0.00    -0.375 OA
ATOM      6  N   UNL     1      -8.619  -9.463   9.070  0.00  0.00    -0.304 N 
ATOM      7  N   UNL     1      -9.138  -7.148   8.767  0.00  0.00    -0.225 NA
ATOM      9  C   UNL     1      -7.623 -10.524  11.096  0.00  0.00    +0.221 C 
ATOM     10  C   UNL     1      -7.678 -10.480   9.564  0.00  0.00    +0.154 C 
ATOM     11  C   UNL     1     -10.006  -9.928   8.941  0.00  0.00    +0.135 C 
ATOM     12  C   UNL     1      -8.918 -10.167  11.829  0.00  0.00    +0.206 C 
ATOM     13  C   UNL     1     -10.719  -9.918  10.290  0.00  0.00    +0.179 C 
ATOM     14  C   UNL     1      -8.276  -8.116   8.975  0.00  0.00    +0.162 A 
ATOM     15  C   UNL     1      -7.087  -6.007   8.911  0.00  0.00    +0.041 A 
ATOM     16  C   UNL     1      -8.472  -5.932   8.728  0.00  0.00    +0.080 A 
ATOM     18  C   UNL     1      -6.275  -4.862   8.897  0.00  0.00    +0.017 A 
ATOM     19  C   UNL     1      -9.061  -4.666   8.523  0.00  0.00    +0.029 A 
ATOM     22  C   UNL     1      -6.883  -3.620   8.693  0.00  0.00    +0.001 A 
ATOM     23  C   UNL     1      -8.258  -3.521   8.508  0.00  0.00    +0.002 A 
ENDROOT
BRANCH   9   3
ATOM      3  O   UNL     1      -6.599  -9.655  11.580  0.00  0.00    -0.443 OA
BRANCH   3  17
ATOM      4  O   UNL     1      -4.891 -10.612  12.779  0.00  0.00    -0.226 OA
ATOM      8  N   UNL     1      -4.719 -10.245  10.494  0.00  0.00    -0.277 N 
ATOM     17  C   UNL     1      -5.355 -10.211  11.718  0.00  0.00    +0.401 C 
ATOM     30  H   UNL     1      -5.219  -9.888   9.687  0.00  0.00    +0.152 HD
BRANCH   8  20
ATOM     20  C   UNL     1      -3.388 -10.772  10.298  0.00  0.00    +0.142 C 
BRANCH  20  21
ATOM     21  C   UNL     1      -2.349  -9.948  10.999  0.00  0.00    -0.030 A 
ATOM     24  C   UNL     1      -1.848  -8.794  10.395  0.00  0.00    +0.009 A 
ATOM     25  C   UNL     1      -1.881 -10.335  12.256  0.00  0.00    +0.009 A 
ATOM     26  C   UNL     1      -0.882  -8.028  11.047  0.00  0.00    +0.046 A 
ATOM     27  C   UNL     1      -0.916  -9.569  12.908  0.00  0.00    +0.046 A 
ATOM     28  C   UNL     1      -0.416  -8.416  12.303  0.00  0.00    +0.120 A 
BRANCH  28   5
ATOM      5  O   UNL     1       0.527  -7.667  12.939  0.00  0.00    -0.495 OA
ATOM     29  C   UNL     1       0.404  -6.250  12.843  0.00  0.00    +0.277 C 
ENDBRANCH  28   5
ENDBRANCH  20  21
ENDBRANCH   8  20
ENDBRANCH   3  17
ENDBRANCH   9   3
TORSDOF 5
ENDMDL
MODEL 6
REMARK VINA RESULT:       2.9      2.161      4.513
REMARK  Name = 75367767
REMARK  6 active torsions:
REMARK  status: ('A' for Active; 'I' for Inactive)
REMARK    1  A    between atoms: O_3  and  C_9
REMARK    2  A    between atoms: O_3  and  C_17
REMARK    3  A    between atoms: O_5  and  C_28
REMARK    4  A    between atoms: O_5  and  C_29
REMARK    5  A    between atoms: N_8  and  C_20
REMARK    6  A    between atoms: C_20  and  C_21
REMARK                            x       y       z     vdW  Elec       q    Type
REMARK                         _______ _______ _______ _____ _____    ______ ____
ROOT
ATOM      1  S   UNL     1      -1.484   1.871  23.630  0.00  0.00    -0.052 S 
ATOM      2  O   UNL     1      -4.450  -1.228  26.365  0.00  0.00    -0.375 OA
ATOM      6  N   UNL     1      -3.787   0.622  24.207  0.00  0.00    -0.304 N 
ATOM      7  N   UNL     1      -3.485   2.893  24.895  0.00  0.00    -0.225 NA
ATOM      9  C   UNL     1      -2.451  -1.355  24.933  0.00  0.00    +0.221 C 
ATOM     10  C   UNL     1      -3.179  -0.649  23.783  0.00  0.00    +0.154 C 
ATOM     11  C   UNL     1      -5.140   0.494  24.765  0.00  0.00    +0.135 C 
ATOM     12  C   UNL     1      -3.030  -1.140  26.333  0.00  0.00    +0.206 C 
ATOM     13  C   UNL     1      -5.095   0.040  26.220  0.00  0.00    +0.179 C 
ATOM     14  C   UNL     1      -3.053   1.802  24.306  0.00  0.00    +0.162 A 
ATOM     15  C   UNL     1      -1.338   3.506  24.158  0.00  0.00    +0.041 A 
ATOM     16  C   UNL     1      -2.513   3.879  24.818  0.00  0.00    +0.080 A 
ATOM     18  C   UNL     1      -0.263   4.394  23.999  0.00  0.00    +0.017 A 
ATOM     19  C   UNL     1      -2.612   5.189  25.336  0.00  0.00    +0.029 A 
ATOM     22  C   UNL     1      -0.386   5.684  24.521  0.00  0.00    +0.001 A 
ATOM     23  C   UNL     1      -1.545   6.078  25.182  0.00  0.00    +0.002 A 
ENDROOT
BRANCH   9   3
ATOM      3  O   UNL     1      -1.079  -0.961  24.967  0.00  0.00    -0.443 OA
BRANCH   3  17
ATOM      4  O   UNL     1      -0.447  -2.247  23.173  0.00  0.00    -0.226 OA
ATOM      8  N   UNL     1       0.494  -0.164  23.570  0.00  0.00    -0.277 N 
ATOM     17  C   UNL     1      -0.351  -1.221  23.837  0.00  0.00    +0.401 C 
ATOM     30  H   UNL     1       0.469   0.636  24.195  0.00  0.00    +0.152 HD
BRANCH   8  20
ATOM     20  C   UNL     1       1.399  -0.125  22.445  0.00  0.00    +0.142 C 
BRANCH  20  21
ATOM     21  C   UNL     1       2.835  -0.170  22.878  0.00  0.00    -0.030 A 
ATOM     24  C   UNL     1       3.658   0.940  22.683  0.00  0.00    +0.009 A 
ATOM     25  C   UNL     1       3.349  -1.322  23.474  0.00  0.00    +0.009 A 
ATOM     26  C   UNL     1       4.992   0.899  23.085  0.00  0.00    +0.046 A 
ATOM     27  C   UNL     1       4.683  -1.364  23.876  0.00  0.00    +0.046 A 
ATOM     28  C   UNL     1       5.505  -0.254  23.682  0.00  0.00    +0.120 A 
BRANCH  28   5
ATOM      5  O   UNL     1       6.808  -0.294  24.075  0.00  0.00    -0.495 OA
ATOM     29  C   UNL     1       7.792  -0.408  23.048  0.00  0.00    +0.277 C 
ENDBRANCH  28   5
ENDBRANCH  20  21
ENDBRANCH   8  20
ENDBRANCH   3  17
ENDBRANCH   9   3
TORSDOF 5
ENDMDL
MODEL 7
REMARK VINA RESULT:       3.3      2.699      7.542
REMARK  Name = 75367767
REMARK  6 active torsions:
REMARK  status: ('A' for Active; 'I' for Inactive)
REMARK    1  A    between atoms: O_3  and  C_9
REMARK    2  A    between atoms: O_3  and  C_17
REMARK    3  A    between atoms: O_5  and  C_28
REMARK    4  A    between atoms: O_5  and  C_29
REMARK    5  A    between atoms: N_8  and  C_20
REMARK    6  A    between atoms: C_20  and  C_21
REMARK                            x       y       z     vdW  Elec       q    Type
REMARK                         _______ _______ _______ _____ _____    ______ ____
ROOT
ATOM      1  S   UNL     1      -0.507   1.189  26.194  0.00  0.00    -0.052 S 
ATOM      2  O   UNL     1       0.079  -1.959  22.241  0.00  0.00    -0.375 OA
ATOM      6  N   UNL     1       0.888   0.031  24.217  0.00  0.00    -0.304 N 
ATOM      7  N   UNL     1      -0.032   2.211  23.875  0.00  0.00    -0.225 NA
ATOM      9  C   UNL     1      -0.371  -2.076  24.659  0.00  0.00    +0.221 C 
ATOM     10  C   UNL     1       0.870  -1.231  24.973  0.00  0.00    +0.154 C 
ATOM     11  C   UNL     1       1.496  -0.067  22.884  0.00  0.00    +0.135 C 
ATOM     12  C   UNL     1      -0.933  -1.951  23.242  0.00  0.00    +0.206 C 
ATOM     13  C   UNL     1       0.514  -0.648  21.871  0.00  0.00    +0.179 C 
ATOM     14  C   UNL     1       0.170   1.153  24.624  0.00  0.00    +0.162 A 
ATOM     15  C   UNL     1      -1.140   2.761  25.874  0.00  0.00    +0.041 A 
ATOM     16  C   UNL     1      -0.782   3.143  24.578  0.00  0.00    +0.080 A 
ATOM     18  C   UNL     1      -1.899   3.596  26.710  0.00  0.00    +0.017 A 
ATOM     19  C   UNL     1      -1.200   4.405  24.103  0.00  0.00    +0.029 A 
ATOM     22  C   UNL     1      -2.299   4.840  26.217  0.00  0.00    +0.001 A 
ATOM     23  C   UNL     1      -1.955   5.242  24.931  0.00  0.00    +0.002 A 
ENDROOT
BRANCH   9   3
ATOM      3  O   UNL     1      -1.425  -1.767  25.571  0.00  0.00    -0.443 OA
BRANCH   3  17
ATOM      4  O   UNL     1      -3.569  -2.460  25.133  0.00  0.00    -0.226 OA
ATOM      8  N   UNL     1      -2.758  -0.434  24.344  0.00  0.00    -0.277 N 
ATOM     17  C   UNL     1      -2.672  -1.631  25.024  0.00  0.00    +0.401 C 
ATOM     30  H   UNL     1      -1.943   0.170  24.339  0.00  0.00    +0.152 HD
BRANCH   8  20
ATOM     20  C   UNL     1      -3.946   0.011  23.653  0.00  0.00    +0.142 C 
BRANCH  20  21
ATOM     21  C   UNL     1      -4.551   1.222  24.300  0.00  0.00    -0.030 A 
ATOM     24  C   UNL     1      -4.299   2.492  23.778  0.00  0.00    +0.009 A 
ATOM     25  C   UNL     1      -5.366   1.080  25.423  0.00  0.00    +0.009 A 
ATOM     26  C   UNL     1      -4.862   3.617  24.379  0.00  0.00    +0.046 A 
ATOM     27  C   UNL     1      -5.929   2.205  26.025  0.00  0.00    +0.046 A 
ATOM     28  C   UNL     1      -5.677   3.473  25.503  0.00  0.00    +0.120 A 
BRANCH  28   5
ATOM      5  O   UNL     1      -6.227   4.572  26.089  0.00  0.00    -0.495 OA
ATOM     29  C   UNL     1      -6.402   5.726  25.269  0.00  0.00    +0.277 C 
ENDBRANCH  28   5
ENDBRANCH  20  21
ENDBRANCH   8  20
ENDBRANCH   3  17
ENDBRANCH   9   3
TORSDOF 5
ENDMDL
MODEL 8
REMARK VINA RESULT:       3.9      2.702      6.140
REMARK  Name = 75367767
REMARK  6 active torsions:
REMARK  status: ('A' for Active; 'I' for Inactive)
REMARK    1  A    between atoms: O_3  and  C_9
REMARK    2  A    between atoms: O_3  and  C_17
REMARK    3  A    between atoms: O_5  and  C_28
REMARK    4  A    between atoms: O_5  and  C_29
REMARK    5  A    between atoms: N_8  and  C_20
REMARK    6  A    between atoms: C_20  and  C_21
REMARK                            x       y       z     vdW  Elec       q    Type
REMARK                         _______ _______ _______ _____ _____    ______ ____
ROOT
ATOM      1  S   UNL     1      -3.282   0.656  22.949  0.00  0.00    -0.052 S 
ATOM      2  O   UNL     1      -1.256  -3.012  25.833  0.00  0.00    -0.375 OA
ATOM      6  N   UNL     1      -3.311  -1.702  24.228  0.00  0.00    -0.304 N 
ATOM      7  N   UNL     1      -4.326   0.200  25.263  0.00  0.00    -0.225 NA
ATOM      9  C   UNL     1      -0.907  -1.977  23.626  0.00  0.00    +0.221 C 
ATOM     10  C   UNL     1      -2.367  -2.229  23.231  0.00  0.00    +0.154 C 
ATOM     11  C   UNL     1      -3.621  -2.630  25.324  0.00  0.00    +0.135 C 
ATOM     12  C   UNL     1      -0.605  -1.962  25.126  0.00  0.00    +0.206 C 
ATOM     13  C   UNL     1      -2.519  -2.624  26.379  0.00  0.00    +0.179 C 
ATOM     14  C   UNL     1      -3.680  -0.359  24.266  0.00  0.00    +0.162 A 
ATOM     15  C   UNL     1      -4.032   1.982  23.757  0.00  0.00    +0.041 A 
ATOM     16  C   UNL     1      -4.535   1.543  24.986  0.00  0.00    +0.080 A 
ATOM     18  C   UNL     1      -4.167   3.314  23.334  0.00  0.00    +0.017 A 
ATOM     19  C   UNL     1      -5.196   2.473  25.819  0.00  0.00    +0.029 A 
ATOM     22  C   UNL     1      -4.824   4.214  24.177  0.00  0.00    +0.001 A 
ATOM     23  C   UNL     1      -5.333   3.801  25.404  0.00  0.00    +0.002 A 
ENDROOT
BRANCH   9   3
ATOM      3  O   UNL     1      -0.453  -0.739  23.081  0.00  0.00    -0.443 OA
BRANCH   3  17
ATOM      4  O   UNL     1       1.286   0.535  23.872  0.00  0.00    -0.226 OA
ATOM      8  N   UNL     1      -0.765   0.465  24.955  0.00  0.00    -0.277 N 
ATOM     17  C   UNL     1       0.132   0.128  23.964  0.00  0.00    +0.401 C 
ATOM     30  H   UNL     1      -1.697   0.066  24.910  0.00  0.00    +0.152 HD
BRANCH   8  20
ATOM     20  C   UNL     1      -0.457   1.364  26.043  0.00  0.00    +0.142 C 
BRANCH  20  21
ATOM     21  C   UNL     1      -0.852   2.778  25.732  0.00  0.00    -0.030 A 
ATOM     24  C   UNL     1      -0.201   3.477  24.714  0.00  0.00    +0.009 A 
ATOM     25  C   UNL     1      -1.870   3.395  26.460  0.00  0.00    +0.009 A 
ATOM     26  C   UNL     1      -0.568   4.791  24.425  0.00  0.00    +0.046 A 
ATOM     27  C   UNL     1      -2.237   4.709  26.171  0.00  0.00    +0.046 A 
ATOM     28  C   UNL     1      -1.586   5.407  25.154  0.00  0.00    +0.120 A 
BRANCH  28   5
ATOM      5  O   UNL     1      -1.945   6.690  24.871  0.00  0.00    -0.495 OA
ATOM     29  C   UNL     1      -2.549   6.929  23.601  0.00  0.00    +0.277 C 
ENDBRANCH  28   5
ENDBRANCH  20  21
ENDBRANCH   8  20
ENDBRANCH   3  17
ENDBRANCH   9   3
TORSDOF 5
ENDMDL
MODEL 9
REMARK VINA RESULT:       4.1      2.738      5.006
REMARK  Name = 75367767
REMARK  6 active torsions:
REMARK  status: ('A' for Active; 'I' for Inactive)
REMARK    1  A    between atoms: O_3  and  C_9
REMARK    2  A    between atoms: O_3  and  C_17
REMARK    3  A    between atoms: O_5  and  C_28
REMARK    4  A    between atoms: O_5  and  C_29
REMARK    5  A    between atoms: N_8  and  C_20
REMARK    6  A    between atoms: C_20  and  C_21
REMARK                            x       y       z     vdW  Elec       q    Type
REMARK                         _______ _______ _______ _____ _____    ______ ____
ROOT
ATOM      1  S   UNL     1      -2.444   2.366  22.719  0.00  0.00    -0.052 S 
ATOM      2  O   UNL     1      -4.305   4.370  27.009  0.00  0.00    -0.375 OA
ATOM      6  N   UNL     1      -2.677   4.277  24.589  0.00  0.00    -0.304 N 
ATOM      7  N   UNL     1      -0.826   2.765  24.687  0.00  0.00    -0.225 NA
ATOM      9  C   UNL     1      -5.096   3.699  24.775  0.00  0.00    +0.221 C 
ATOM     10  C   UNL     1      -4.031   4.566  24.093  0.00  0.00    +0.154 C 
ATOM     11  C   UNL     1      -2.291   5.037  25.785  0.00  0.00    +0.135 C 
ATOM     12  C   UNL     1      -4.812   3.296  26.224  0.00  0.00    +0.206 C 
ATOM     13  C   UNL     1      -2.876   4.412  27.048  0.00  0.00    +0.179 C 
ATOM     14  C   UNL     1      -1.927   3.200  24.120  0.00  0.00    +0.162 A 
ATOM     15  C   UNL     1      -1.085   1.315  22.855  0.00  0.00    +0.041 A 
ATOM     16  C   UNL     1      -0.331   1.684  23.973  0.00  0.00    +0.080 A 
ATOM     18  C   UNL     1      -0.712   0.240  22.032  0.00  0.00    +0.017 A 
ATOM     19  C   UNL     1       0.837   0.951  24.275  0.00  0.00    +0.029 A 
ATOM     22  C   UNL     1       0.448  -0.470  22.353  0.00  0.00    +0.001 A 
ATOM     23  C   UNL     1       1.214  -0.120  23.460  0.00  0.00    +0.002 A 
ENDROOT
BRANCH   9   3
ATOM      3  O   UNL     1      -5.314   2.502  24.029  0.00  0.00    -0.443 OA
BRANCH   3  17
ATOM      4  O   UNL     1      -5.658   1.246  25.919  0.00  0.00    -0.226 OA
ATOM      8  N   UNL     1      -4.863   0.299  23.955  0.00  0.00    -0.277 N 
ATOM     17  C   UNL     1      -5.311   1.337  24.746  0.00  0.00    +0.401 C 
ATOM     30  H   UNL     1      -4.616   0.507  22.993  0.00  0.00    +0.152 HD
BRANCH   8  20
ATOM     20  C   UNL     1      -4.742  -1.065  24.415  0.00  0.00    +0.142 C 
BRANCH  20  21
ATOM     21  C   UNL     1      -3.345  -1.385  24.859  0.00  0.00    -0.030 A 
ATOM     24  C   UNL     1      -2.732  -0.614  25.848  0.00  0.00    +0.009 A 
ATOM     25  C   UNL     1      -2.657  -2.454  24.283  0.00  0.00    +0.009 A 
ATOM     26  C   UNL     1      -1.434  -0.912  26.261  0.00  0.00    +0.046 A 
ATOM     27  C   UNL     1      -1.359  -2.752  24.695  0.00  0.00    +0.046 A 
ATOM     28  C   UNL     1      -0.747  -1.981  25.684  0.00  0.00    +0.120 A 
BRANCH  28   5
ATOM      5  O   UNL     1       0.520  -2.272  26.087  0.00  0.00    -0.495 OA
ATOM     29  C   UNL     1       1.260  -3.194  25.289  0.00  0.00    +0.277 C 
ENDBRANCH  28   5
ENDBRANCH  20  21
ENDBRANCH   8  20
ENDBRANCH   3  17
ENDBRANCH   9   3
TORSDOF 5
ENDMDL
