MODEL 1
REMARK VINA RESULT:      -5.4      0.000      0.000
REMARK  Name = 25338993
REMARK  8 active torsions:
REMARK  status: ('A' for Active; 'I' for Inactive)
REMARK    1  A    between atoms: S_1  and  N_6
REMARK    2  A    between atoms: S_1  and  C_17
REMARK    3  A    between atoms: O_2  and  C_16
REMARK    4  A    between atoms: O_2  and  C_20
REMARK    5  A    between atoms: N_7  and  C_14
REMARK    6  A    between atoms: C_9  and  C_16
REMARK    7  A    between atoms: C_14  and  C_18
REMARK    8  A    between atoms: C_14  and  C_19
REMARK                            x       y       z     vdW  Elec       q    Type
REMARK                         _______ _______ _______ _____ _____    ______ ____
ROOT
ATOM      6  N   UNL     1      -2.862   2.176  25.453  0.00  0.00    -0.161 NA
ATOM      7  N   UNL     1      -2.338  -1.414  24.540  0.00  0.00    -0.330 N 
ATOM      8  N   UNL     1      -0.302  -1.101  25.405  0.00  0.00    -0.240 NA
ATOM      9  C   UNL     1      -1.399   2.534  25.392  0.00  0.00    +0.194 C 
ATOM     10  C   UNL     1      -2.257  -0.093  24.866  0.00  0.00    +0.057 A 
ATOM     11  C   UNL     1      -3.283   0.951  24.678  0.00  0.00    +0.165 C 
ATOM     12  C   UNL     1      -0.503   1.377  25.886  0.00  0.00    +0.089 C 
ATOM     13  C   UNL     1      -0.999   0.075  25.390  0.00  0.00    +0.066 A 
ATOM     15  C   UNL     1      -1.137  -1.980  24.885  0.00  0.00    +0.200 A 
ENDROOT
BRANCH   6   1
ATOM      1  S   UNL     1      -3.972   3.481  25.419  0.00  0.00    +0.030 S 
ATOM      3  O   UNL     1      -4.064   3.977  24.064  0.00  0.00    -0.158 OA
ATOM      4  O   UNL     1      -3.693   4.357  26.535  0.00  0.00    -0.158 OA
ATOM     17  C   UNL     1      -5.464   2.591  25.780  0.00  0.00    +0.215 C 
ENDBRANCH   6   1
BRANCH   7  14
ATOM     14  C   UNL     1      -3.458  -2.099  23.942  0.00  0.00    +0.082 C 
ATOM     18  C   UNL     1      -4.730  -1.248  23.989  0.00  0.00    +0.030 C 
ATOM     19  C   UNL     1      -3.692  -3.467  24.588  0.00  0.00    +0.030 C 
ENDBRANCH   7  14
BRANCH   9  16
ATOM      5  O   UNL     1      -1.410   2.339  22.996  0.00  0.00    -0.249 OA
ATOM     16  C   UNL     1      -1.059   2.951  23.997  0.00  0.00    +0.326 C 
BRANCH  16   2
ATOM      2  O   UNL     1      -0.316   4.092  24.029  0.00  0.00    -0.467 OA
ATOM     20  C   UNL     1      -0.793   5.112  24.913  0.00  0.00    +0.280 C 
ENDBRANCH  16   2
ENDBRANCH   9  16
TORSDOF 4
ENDMDL
MODEL 2
REMARK VINA RESULT:      -5.3      2.783      4.857
REMARK  Name = 25338993
REMARK  8 active torsions:
REMARK  status: ('A' for Active; 'I' for Inactive)
REMARK    1  A    between atoms: S_1  and  N_6
REMARK    2  A    between atoms: S_1  and  C_17
REMARK    3  A    between atoms: O_2  and  C_16
REMARK    4  A    between atoms: O_2  and  C_20
REMARK    5  A    between atoms: N_7  and  C_14
REMARK    6  A    between atoms: C_9  and  C_16
REMARK    7  A    between atoms: C_14  and  C_18
REMARK    8  A    between atoms: C_14  and  C_19
REMARK                            x       y       z     vdW  Elec       q    Type
REMARK                         _______ _______ _______ _____ _____    ______ ____
ROOT
ATOM      6  N   UNL     1      -2.840  -0.371  24.307  0.00  0.00    -0.161 NA
ATOM      7  N   UNL     1      -4.379   2.993  24.866  0.00  0.00    -0.330 N 
ATOM      8  N   UNL     1      -2.734   3.715  23.537  0.00  0.00    -0.240 NA
ATOM      9  C   UNL     1      -1.463   0.169  24.019  0.00  0.00    +0.194 C 
ATOM     10  C   UNL     1      -3.594   1.911  24.601  0.00  0.00    +0.057 A 
ATOM     11  C   UNL     1      -3.760   0.530  25.096  0.00  0.00    +0.165 C 
ATOM     12  C   UNL     1      -1.519   1.511  23.255  0.00  0.00    +0.089 C 
ATOM     13  C   UNL     1      -2.591   2.379  23.789  0.00  0.00    +0.066 A 
ATOM     15  C   UNL     1      -3.821   4.056  24.201  0.00  0.00    +0.200 A 
ENDROOT
BRANCH   6   1
ATOM      1  S   UNL     1      -2.946  -2.038  24.687  0.00  0.00    +0.030 S 
ATOM      3  O   UNL     1      -3.365  -2.174  26.064  0.00  0.00    -0.158 OA
ATOM      4  O   UNL     1      -1.768  -2.705  24.180  0.00  0.00    -0.158 OA
ATOM     17  C   UNL     1      -4.316  -2.478  23.649  0.00  0.00    +0.215 C 
ENDBRANCH   6   1
BRANCH   7  14
ATOM     14  C   UNL     1      -5.564   3.034  25.688  0.00  0.00    +0.082 C 
ATOM     18  C   UNL     1      -6.585   1.979  25.255  0.00  0.00    +0.030 C 
ATOM     19  C   UNL     1      -6.192   4.430  25.701  0.00  0.00    +0.030 C 
ENDBRANCH   7  14
BRANCH   9  16
ATOM      5  O   UNL     1      -0.809  -0.506  26.231  0.00  0.00    -0.249 OA
ATOM     16  C   UNL     1      -0.709   0.287  25.305  0.00  0.00    +0.326 C 
BRANCH  16   2
ATOM      2  O   UNL     1       0.084   1.396  25.270  0.00  0.00    -0.467 OA
ATOM     20  C   UNL     1      -0.093   2.313  26.354  0.00  0.00    +0.280 C 
ENDBRANCH  16   2
ENDBRANCH   9  16
TORSDOF 4
ENDMDL
MODEL 3
REMARK VINA RESULT:      -4.6      2.807      5.021
REMARK  Name = 25338993
REMARK  8 active torsions:
REMARK  status: ('A' for Active; 'I' for Inactive)
REMARK    1  A    between atoms: S_1  and  N_6
REMARK    2  A    between atoms: S_1  and  C_17
REMARK    3  A    between atoms: O_2  and  C_16
REMARK    4  A    between atoms: O_2  and  C_20
REMARK    5  A    between atoms: N_7  and  C_14
REMARK    6  A    between atoms: C_9  and  C_16
REMARK    7  A    between atoms: C_14  and  C_18
REMARK    8  A    between atoms: C_14  and  C_19
REMARK                            x       y       z     vdW  Elec       q    Type
REMARK                         _______ _______ _______ _____ _____    ______ ____
ROOT
ATOM      6  N   UNL     1      -2.960  -0.312  24.204  0.00  0.00    -0.161 NA
ATOM      7  N   UNL     1      -4.489   3.053  24.781  0.00  0.00    -0.330 N 
ATOM      8  N   UNL     1      -3.235   3.671  23.038  0.00  0.00    -0.240 NA
ATOM      9  C   UNL     1      -1.715   0.228  23.548  0.00  0.00    +0.194 C 
ATOM     10  C   UNL     1      -3.736   1.968  24.444  0.00  0.00    +0.057 A 
ATOM     11  C   UNL     1      -3.715   0.644  25.096  0.00  0.00    +0.165 C 
ATOM     12  C   UNL     1      -2.012   1.480  22.693  0.00  0.00    +0.089 C 
ATOM     13  C   UNL     1      -2.973   2.373  23.377  0.00  0.00    +0.066 A 
ATOM     15  C   UNL     1      -4.153   4.053  23.904  0.00  0.00    +0.200 A 
ENDROOT
BRANCH   6   1
ATOM      1  S   UNL     1      -2.893  -1.932  24.757  0.00  0.00    +0.030 S 
ATOM      3  O   UNL     1      -3.278  -1.962  26.151  0.00  0.00    -0.158 OA
ATOM      4  O   UNL     1      -1.662  -2.531  24.294  0.00  0.00    -0.158 OA
ATOM     17  C   UNL     1      -4.227  -2.611  23.805  0.00  0.00    +0.215 C 
ENDBRANCH   6   1
BRANCH   7  14
ATOM     14  C   UNL     1      -5.452   3.151  25.851  0.00  0.00    +0.082 C 
ATOM     18  C   UNL     1      -6.430   1.974  25.838  0.00  0.00    +0.030 C 
ATOM     19  C   UNL     1      -6.201   4.485  25.814  0.00  0.00    +0.030 C 
ENDBRANCH   7  14
BRANCH   9  16
ATOM      5  O   UNL     1      -0.912   0.434  25.804  0.00  0.00    -0.249 OA
ATOM     16  C   UNL     1      -0.691   0.500  24.603  0.00  0.00    +0.326 C 
BRANCH  16   2
ATOM      2  O   UNL     1       0.496   0.823  24.014  0.00  0.00    -0.467 OA
ATOM     20  C   UNL     1       0.997  -0.134  23.075  0.00  0.00    +0.280 C 
ENDBRANCH  16   2
ENDBRANCH   9  16
TORSDOF 4
ENDMDL
MODEL 4
REMARK VINA RESULT:      -3.8      1.667      3.693
REMARK  Name = 25338993
REMARK  8 active torsions:
REMARK  status: ('A' for Active; 'I' for Inactive)
REMARK    1  A    between atoms: S_1  and  N_6
REMARK    2  A    between atoms: S_1  and  C_17
REMARK    3  A    between atoms: O_2  and  C_16
REMARK    4  A    between atoms: O_2  and  C_20
REMARK    5  A    between atoms: N_7  and  C_14
REMARK    6  A    between atoms: C_9  and  C_16
REMARK    7  A    between atoms: C_14  and  C_18
REMARK    8  A    between atoms: C_14  and  C_19
REMARK                            x       y       z     vdW  Elec       q    Type
REMARK                         _______ _______ _______ _____ _____    ______ ____
ROOT
ATOM      6  N   UNL     1      -1.929   2.969  24.366  0.00  0.00    -0.161 NA
ATOM      7  N   UNL     1      -2.680  -0.684  24.659  0.00  0.00    -0.330 N 
ATOM      8  N   UNL     1      -4.586  -0.144  23.625  0.00  0.00    -0.240 NA
ATOM      9  C   UNL     1      -3.375   3.389  24.313  0.00  0.00    +0.194 C 
ATOM     10  C   UNL     1      -2.677   0.672  24.529  0.00  0.00    +0.057 A 
ATOM     11  C   UNL     1      -1.646   1.623  24.989  0.00  0.00    +0.165 C 
ATOM     12  C   UNL     1      -4.245   2.365  23.551  0.00  0.00    +0.089 C 
ATOM     13  C   UNL     1      -3.856   0.980  23.897  0.00  0.00    +0.066 A 
ATOM     15  C   UNL     1      -3.850  -1.130  24.098  0.00  0.00    +0.200 A 
ENDROOT
BRANCH   6   1
ATOM      1  S   UNL     1      -0.787   4.195  24.723  0.00  0.00    +0.030 S 
ATOM      3  O   UNL     1      -1.480   5.315  25.320  0.00  0.00    -0.158 OA
ATOM      4  O   UNL     1       0.089   4.360  23.584  0.00  0.00    -0.158 OA
ATOM     17  C   UNL     1       0.125   3.369  26.001  0.00  0.00    +0.215 C 
ENDBRANCH   6   1
BRANCH   7  14
ATOM     14  C   UNL     1      -1.665  -1.506  25.271  0.00  0.00    +0.082 C 
ATOM     18  C   UNL     1      -0.268  -1.150  24.757  0.00  0.00    +0.030 C 
ATOM     19  C   UNL     1      -1.955  -2.997  25.076  0.00  0.00    +0.030 C 
ENDBRANCH   7  14
BRANCH   9  16
ATOM      5  O   UNL     1      -3.133   3.731  26.680  0.00  0.00    -0.249 OA
ATOM     16  C   UNL     1      -3.866   3.614  25.707  0.00  0.00    +0.326 C 
BRANCH  16   2
ATOM      2  O   UNL     1      -5.228   3.666  25.709  0.00  0.00    -0.467 OA
ATOM     20  C   UNL     1      -5.886   2.526  26.272  0.00  0.00    +0.280 C 
ENDBRANCH  16   2
ENDBRANCH   9  16
TORSDOF 4
ENDMDL
MODEL 5
REMARK VINA RESULT:      -3.7      2.800      5.825
REMARK  Name = 25338993
REMARK  8 active torsions:
REMARK  status: ('A' for Active; 'I' for Inactive)
REMARK    1  A    between atoms: S_1  and  N_6
REMARK    2  A    between atoms: S_1  and  C_17
REMARK    3  A    between atoms: O_2  and  C_16
REMARK    4  A    between atoms: O_2  and  C_20
REMARK    5  A    between atoms: N_7  and  C_14
REMARK    6  A    between atoms: C_9  and  C_16
REMARK    7  A    between atoms: C_14  and  C_18
REMARK    8  A    between atoms: C_14  and  C_19
REMARK                            x       y       z     vdW  Elec       q    Type
REMARK                         _______ _______ _______ _____ _____    ______ ____
ROOT
ATOM      6  N   UNL     1      -2.076  -0.247  25.164  0.00  0.00    -0.161 NA
ATOM      7  N   UNL     1      -2.760   3.429  25.048  0.00  0.00    -0.330 N 
ATOM      8  N   UNL     1      -4.820   2.836  25.678  0.00  0.00    -0.240 NA
ATOM      9  C   UNL     1      -3.509  -0.647  24.924  0.00  0.00    +0.194 C 
ATOM     10  C   UNL     1      -2.781   2.067  25.062  0.00  0.00    +0.057 A 
ATOM     11  C   UNL     1      -1.685   1.141  24.715  0.00  0.00    +0.165 C 
ATOM     12  C   UNL     1      -4.499   0.325  25.602  0.00  0.00    +0.089 C 
ATOM     13  C   UNL     1      -4.054   1.727  25.447  0.00  0.00    +0.066 A 
ATOM     15  C   UNL     1      -4.011   3.846  25.428  0.00  0.00    +0.200 A 
ENDROOT
BRANCH   6   1
ATOM      1  S   UNL     1      -0.890  -1.458  24.914  0.00  0.00    +0.030 S 
ATOM      3  O   UNL     1      -1.499  -2.566  24.212  0.00  0.00    -0.158 OA
ATOM      4  O   UNL     1      -0.154  -1.647  26.144  0.00  0.00    -0.158 OA
ATOM     17  C   UNL     1       0.159  -0.595  23.774  0.00  0.00    +0.215 C 
ENDBRANCH   6   1
BRANCH   7  14
ATOM     14  C   UNL     1      -1.650   4.282  24.697  0.00  0.00    +0.082 C 
ATOM     18  C   UNL     1      -0.331   3.750  25.260  0.00  0.00    +0.030 C 
ATOM     19  C   UNL     1      -1.890   5.728  25.140  0.00  0.00    +0.030 C 
ENDBRANCH   7  14
BRANCH   9  16
ATOM      5  O   UNL     1      -3.371   0.087  22.639  0.00  0.00    -0.249 OA
ATOM     16  C   UNL     1      -3.744  -0.749  23.450  0.00  0.00    +0.326 C 
BRANCH  16   2
ATOM      2  O   UNL     1      -4.423  -1.899  23.175  0.00  0.00    -0.467 OA
ATOM     20  C   UNL     1      -4.223  -2.969  24.104  0.00  0.00    +0.280 C 
ENDBRANCH  16   2
ENDBRANCH   9  16
TORSDOF 4
ENDMDL
MODEL 6
REMARK VINA RESULT:      -3.6      2.406      4.023
REMARK  Name = 25338993
REMARK  8 active torsions:
REMARK  status: ('A' for Active; 'I' for Inactive)
REMARK    1  A    between atoms: S_1  and  N_6
REMARK    2  A    between atoms: S_1  and  C_17
REMARK    3  A    between atoms: O_2  and  C_16
REMARK    4  A    between atoms: O_2  and  C_20
REMARK    5  A    between atoms: N_7  and  C_14
REMARK    6  A    between atoms: C_9  and  C_16
REMARK    7  A    between atoms: C_14  and  C_18
REMARK    8  A    between atoms: C_14  and  C_19
REMARK                            x       y       z     vdW  Elec       q    Type
REMARK                         _______ _______ _______ _____ _____    ______ ____
ROOT
ATOM      6  N   UNL     1      -0.700   0.882  23.425  0.00  0.00    -0.161 NA
ATOM      7  N   UNL     1      -3.976  -0.175  24.892  0.00  0.00    -0.330 N 
ATOM      8  N   UNL     1      -4.666   1.844  24.227  0.00  0.00    -0.240 NA
ATOM      9  C   UNL     1      -0.957   2.357  23.600  0.00  0.00    +0.194 C 
ATOM     10  C   UNL     1      -2.880   0.463  24.393  0.00  0.00    +0.057 A 
ATOM     11  C   UNL     1      -1.496  -0.044  24.314  0.00  0.00    +0.165 C 
ATOM     12  C   UNL     1      -2.444   2.713  23.380  0.00  0.00    +0.089 C 
ATOM     13  C   UNL     1      -3.327   1.699  23.996  0.00  0.00    +0.066 A 
ATOM     15  C   UNL     1      -5.028   0.698  24.769  0.00  0.00    +0.200 A 
ENDROOT
BRANCH   6   1
ATOM      1  S   UNL     1       0.924   0.414  23.147  0.00  0.00    +0.030 S 
ATOM      3  O   UNL     1       1.798   1.445  23.662  0.00  0.00    -0.158 OA
ATOM      4  O   UNL     1       1.040  -0.078  21.793  0.00  0.00    -0.158 OA
ATOM     17  C   UNL     1       1.009  -0.976  24.246  0.00  0.00    +0.215 C 
ENDBRANCH   6   1
BRANCH   7  14
ATOM     14  C   UNL     1      -4.035  -1.503  25.451  0.00  0.00    +0.082 C 
ATOM     18  C   UNL     1      -3.060  -1.667  26.619  0.00  0.00    +0.030 C 
ATOM     19  C   UNL     1      -3.794  -2.574  24.383  0.00  0.00    +0.030 C 
ENDBRANCH   7  14
BRANCH   9  16
ATOM      5  O   UNL     1      -0.326   2.009  25.894  0.00  0.00    -0.249 OA
ATOM     16  C   UNL     1      -0.473   2.777  24.952  0.00  0.00    +0.326 C 
BRANCH  16   2
ATOM      2  O   UNL     1      -0.232   4.118  24.955  0.00  0.00    -0.467 OA
ATOM     20  C   UNL     1      -1.365   4.946  25.234  0.00  0.00    +0.280 C 
ENDBRANCH  16   2
ENDBRANCH   9  16
TORSDOF 4
ENDMDL
MODEL 7
REMARK VINA RESULT:      -3.1      2.070      3.691
REMARK  Name = 25338993
REMARK  8 active torsions:
REMARK  status: ('A' for Active; 'I' for Inactive)
REMARK    1  A    between atoms: S_1  and  N_6
REMARK    2  A    between atoms: S_1  and  C_17
REMARK    3  A    between atoms: O_2  and  C_16
REMARK    4  A    between atoms: O_2  and  C_20
REMARK    5  A    between atoms: N_7  and  C_14
REMARK    6  A    between atoms: C_9  and  C_16
REMARK    7  A    between atoms: C_14  and  C_18
REMARK    8  A    between atoms: C_14  and  C_19
REMARK                            x       y       z     vdW  Elec       q    Type
REMARK                         _______ _______ _______ _____ _____    ______ ____
ROOT
ATOM      6  N   UNL     1      -1.519   2.133  24.251  0.00  0.00    -0.161 NA
ATOM      7  N   UNL     1      -4.257  -0.276  25.087  0.00  0.00    -0.330 N 
ATOM      8  N   UNL     1      -5.596   1.312  24.263  0.00  0.00    -0.240 NA
ATOM      9  C   UNL     1      -2.396   3.355  24.344  0.00  0.00    +0.194 C 
ATOM     10  C   UNL     1      -3.458   0.789  24.793  0.00  0.00    +0.057 A 
ATOM     11  C   UNL     1      -2.000   0.907  24.990  0.00  0.00    +0.165 C 
ATOM     12  C   UNL     1      -3.828   3.075  23.838  0.00  0.00    +0.089 C 
ATOM     13  C   UNL     1      -4.301   1.750  24.294  0.00  0.00    +0.066 A 
ATOM     15  C   UNL     1      -5.536   0.088  24.748  0.00  0.00    +0.200 A 
ENDROOT
BRANCH   6   1
ATOM      1  S   UNL     1       0.173   2.399  24.297  0.00  0.00    +0.030 S 
ATOM      3  O   UNL     1       0.619   2.311  25.670  0.00  0.00    -0.158 OA
ATOM      4  O   UNL     1       0.487   3.539  23.465  0.00  0.00    -0.158 OA
ATOM     17  C   UNL     1       0.712   0.936  23.451  0.00  0.00    +0.215 C 
ENDBRANCH   6   1
BRANCH   7  14
ATOM     14  C   UNL     1      -3.855  -1.541  25.651  0.00  0.00    +0.082 C 
ATOM     18  C   UNL     1      -2.694  -1.376  26.634  0.00  0.00    +0.030 C 
ATOM     19  C   UNL     1      -3.506  -2.558  24.560  0.00  0.00    +0.030 C 
ENDBRANCH   7  14
BRANCH   9  16
ATOM      5  O   UNL     1      -3.158   3.463  26.621  0.00  0.00    -0.249 OA
ATOM     16  C   UNL     1      -2.387   3.852  25.754  0.00  0.00    +0.326 C 
BRANCH  16   2
ATOM      2  O   UNL     1      -1.404   4.784  25.904  0.00  0.00    -0.467 OA
ATOM     20  C   UNL     1      -1.373   5.811  24.907  0.00  0.00    +0.280 C 
ENDBRANCH  16   2
ENDBRANCH   9  16
TORSDOF 4
ENDMDL
MODEL 8
REMARK VINA RESULT:      -2.6      3.020      5.097
REMARK  Name = 25338993
REMARK  8 active torsions:
REMARK  status: ('A' for Active; 'I' for Inactive)
REMARK    1  A    between atoms: S_1  and  N_6
REMARK    2  A    between atoms: S_1  and  C_17
REMARK    3  A    between atoms: O_2  and  C_16
REMARK    4  A    between atoms: O_2  and  C_20
REMARK    5  A    between atoms: N_7  and  C_14
REMARK    6  A    between atoms: C_9  and  C_16
REMARK    7  A    between atoms: C_14  and  C_18
REMARK    8  A    between atoms: C_14  and  C_19
REMARK                            x       y       z     vdW  Elec       q    Type
REMARK                         _______ _______ _______ _____ _____    ______ ____
ROOT
ATOM      6  N   UNL     1      -2.430  -0.241  24.183  0.00  0.00    -0.161 NA
ATOM      7  N   UNL     1      -1.970   3.445  24.621  0.00  0.00    -0.330 N 
ATOM      8  N   UNL     1       0.104   3.044  23.895  0.00  0.00    -0.240 NA
ATOM      9  C   UNL     1      -0.969  -0.570  24.355  0.00  0.00    +0.194 C 
ATOM     10  C   UNL     1      -1.866   2.094  24.481  0.00  0.00    +0.057 A 
ATOM     11  C   UNL     1      -2.892   1.072  24.766  0.00  0.00    +0.165 C 
ATOM     12  C   UNL     1      -0.059   0.521  23.747  0.00  0.00    +0.089 C 
ATOM     13  C   UNL     1      -0.585   1.872  24.040  0.00  0.00    +0.066 A 
ATOM     15  C   UNL     1      -0.758   3.974  24.254  0.00  0.00    +0.200 A 
ENDROOT
BRANCH   6   1
ATOM      1  S   UNL     1      -3.531  -1.543  24.346  0.00  0.00    +0.030 S 
ATOM      3  O   UNL     1      -2.843  -2.776  24.034  0.00  0.00    -0.158 OA
ATOM      4  O   UNL     1      -4.776  -1.181  23.704  0.00  0.00    -0.158 OA
ATOM     17  C   UNL     1      -3.782  -1.483  26.101  0.00  0.00    +0.215 C 
ENDBRANCH   6   1
BRANCH   7  14
ATOM     14  C   UNL     1      -3.120   4.191  25.073  0.00  0.00    +0.082 C 
ATOM     18  C   UNL     1      -3.276   4.119  26.594  0.00  0.00    +0.030 C 
ATOM     19  C   UNL     1      -4.400   3.731  24.370  0.00  0.00    +0.030 C 
ENDBRANCH   7  14
BRANCH   9  16
ATOM      5  O   UNL     1      -0.678   0.104  26.644  0.00  0.00    -0.249 OA
ATOM     16  C   UNL     1      -0.688  -0.789  25.807  0.00  0.00    +0.326 C 
BRANCH  16   2
ATOM      2  O   UNL     1      -0.452  -2.113  26.032  0.00  0.00    -0.467 OA
ATOM     20  C   UNL     1       0.631  -2.680  25.287  0.00  0.00    +0.280 C 
ENDBRANCH  16   2
ENDBRANCH   9  16
TORSDOF 4
ENDMDL
MODEL 9
REMARK VINA RESULT:      -2.6      2.725      4.795
REMARK  Name = 25338993
REMARK  8 active torsions:
REMARK  status: ('A' for Active; 'I' for Inactive)
REMARK    1  A    between atoms: S_1  and  N_6
REMARK    2  A    between atoms: S_1  and  C_17
REMARK    3  A    between atoms: O_2  and  C_16
REMARK    4  A    between atoms: O_2  and  C_20
REMARK    5  A    between atoms: N_7  and  C_14
REMARK    6  A    between atoms: C_9  and  C_16
REMARK    7  A    between atoms: C_14  and  C_18
REMARK    8  A    between atoms: C_14  and  C_19
REMARK                            x       y       z     vdW  Elec       q    Type
REMARK                         _______ _______ _______ _____ _____    ______ ____
ROOT
ATOM      6  N   UNL     1      -4.172   1.567  24.586  0.00  0.00    -0.161 NA
ATOM      7  N   UNL     1      -0.488   2.219  24.549  0.00  0.00    -0.330 N 
ATOM      8  N   UNL     1      -0.447   0.602  23.008  0.00  0.00    -0.240 NA
ATOM      9  C   UNL     1      -4.050   0.140  24.115  0.00  0.00    +0.194 C 
ATOM     10  C   UNL     1      -1.761   1.738  24.461  0.00  0.00    +0.057 A 
ATOM     11  C   UNL     1      -2.945   2.165  25.231  0.00  0.00    +0.165 C 
ATOM     12  C   UNL     1      -2.896  -0.035  23.102  0.00  0.00    +0.089 C 
ATOM     13  C   UNL     1      -1.709   0.746  23.513  0.00  0.00    +0.066 A 
ATOM     15  C   UNL     1       0.266   1.504  23.653  0.00  0.00    +0.200 A 
ENDROOT
BRANCH   6   1
ATOM      1  S   UNL     1      -5.665   2.013  25.297  0.00  0.00    +0.030 S 
ATOM      3  O   UNL     1      -5.696   1.522  26.657  0.00  0.00    -0.158 OA
ATOM      4  O   UNL     1      -6.729   1.730  24.360  0.00  0.00    -0.158 OA
ATOM     17  C   UNL     1      -5.436   3.772  25.353  0.00  0.00    +0.215 C 
ENDBRANCH   6   1
BRANCH   7  14
ATOM     14  C   UNL     1      -0.009   3.269  25.415  0.00  0.00    +0.082 C 
ATOM     18  C   UNL     1       0.089   2.799  26.868  0.00  0.00    +0.030 C 
ATOM     19  C   UNL     1      -0.874   4.527  25.305  0.00  0.00    +0.030 C 
ENDBRANCH   7  14
BRANCH   9  16
ATOM      5  O   UNL     1      -4.341  -0.497  26.414  0.00  0.00    -0.249 OA
ATOM     16  C   UNL     1      -3.892  -0.752  25.304  0.00  0.00    +0.326 C 
BRANCH  16   2
ATOM      2  O   UNL     1      -3.185  -1.863  24.952  0.00  0.00    -0.467 OA
ATOM     20  C   UNL     1      -3.923  -2.860  24.237  0.00  0.00    +0.280 C 
ENDBRANCH  16   2
ENDBRANCH   9  16
TORSDOF 4
ENDMDL
MODEL 10
REMARK VINA RESULT:      -2.2      1.913      3.603
REMARK  Name = 25338993
REMARK  8 active torsions:
REMARK  status: ('A' for Active; 'I' for Inactive)
REMARK    1  A    between atoms: S_1  and  N_6
REMARK    2  A    between atoms: S_1  and  C_17
REMARK    3  A    between atoms: O_2  and  C_16
REMARK    4  A    between atoms: O_2  and  C_20
REMARK    5  A    between atoms: N_7  and  C_14
REMARK    6  A    between atoms: C_9  and  C_16
REMARK    7  A    between atoms: C_14  and  C_18
REMARK    8  A    between atoms: C_14  and  C_19
REMARK                            x       y       z     vdW  Elec       q    Type
REMARK                         _______ _______ _______ _____ _____    ______ ____
ROOT
ATOM      6  N   UNL     1      -1.341   1.930  24.502  0.00  0.00    -0.161 NA
ATOM      7  N   UNL     1      -3.297  -1.252  24.710  0.00  0.00    -0.330 N 
ATOM      8  N   UNL     1      -4.709  -0.209  23.328  0.00  0.00    -0.240 NA
ATOM      9  C   UNL     1      -2.535   2.788  24.171  0.00  0.00    +0.194 C 
ATOM     10  C   UNL     1      -2.823   0.017  24.560  0.00  0.00    +0.057 A 
ATOM     11  C   UNL     1      -1.631   0.617  25.189  0.00  0.00    +0.165 C 
ATOM     12  C   UNL     1      -3.550   2.042  23.277  0.00  0.00    +0.089 C 
ATOM     13  C   UNL     1      -3.707   0.637  23.713  0.00  0.00    +0.066 A 
ATOM     15  C   UNL     1      -4.434  -1.340  23.947  0.00  0.00    +0.200 A 
ENDROOT
BRANCH   6   1
ATOM      1  S   UNL     1       0.063   2.747  25.045  0.00  0.00    +0.030 S 
ATOM      3  O   UNL     1       1.195   2.292  24.268  0.00  0.00    -0.158 OA
ATOM      4  O   UNL     1       0.077   2.735  26.491  0.00  0.00    -0.158 OA
ATOM     17  C   UNL     1      -0.343   4.390  24.514  0.00  0.00    +0.215 C 
ENDBRANCH   6   1
BRANCH   7  14
ATOM     14  C   UNL     1      -2.731  -2.307  25.515  0.00  0.00    +0.082 C 
ATOM     18  C   UNL     1      -2.811  -1.981  27.008  0.00  0.00    +0.030 C 
ATOM     19  C   UNL     1      -1.291  -2.620  25.101  0.00  0.00    +0.030 C 
ENDBRANCH   7  14
BRANCH   9  16
ATOM      5  O   UNL     1      -2.604   4.026  26.230  0.00  0.00    -0.249 OA
ATOM     16  C   UNL     1      -3.155   3.267  25.445  0.00  0.00    +0.326 C 
BRANCH  16   2
ATOM      2  O   UNL     1      -4.401   2.729  25.576  0.00  0.00    -0.467 OA
ATOM     20  C   UNL     1      -5.474   3.674  25.646  0.00  0.00    +0.280 C 
ENDBRANCH  16   2
ENDBRANCH   9  16
TORSDOF 4
ENDMDL
