MODEL 1
REMARK VINA RESULT:       2.5      0.000      0.000
REMARK  Name = 7143831
REMARK  7 active torsions:
REMARK  status: ('A' for Active; 'I' for Inactive)
REMARK    1  A    between atoms: S_1  and  C_26
REMARK    2  A    between atoms: S_1  and  C_28
REMARK    3  A    between atoms: O_4  and  C_21
REMARK    4  A    between atoms: O_4  and  C_27
REMARK    5  A    between atoms: C_16  and  C_19
REMARK    6  A    between atoms: C_17  and  C_20
REMARK    7  A    between atoms: C_19  and  C_21
REMARK                            x       y       z     vdW  Elec       q    Type
REMARK                         _______ _______ _______ _____ _____    ______ ____
ROOT
ATOM      2  O   UNL     1      -5.711  -7.230  10.185  0.00  0.00    -0.267 OA
ATOM      3  O   UNL     1      -9.990  -8.418  13.165  0.00  0.00    -0.276 OA
ATOM      5  N   UNL     1     -10.285  -9.145  10.977  0.00  0.00    -0.300 N 
ATOM      6  N   UNL     1      -7.552  -8.472   9.469  0.00  0.00    -0.311 N 
ATOM      7  C   UNL     1      -9.881  -7.446   9.193  0.00  0.00    +0.027 C 
ATOM      8  C   UNL     1      -9.531  -9.831   8.708  0.00  0.00    +0.054 C 
ATOM      9  C   UNL     1     -10.078  -8.525   8.135  0.00  0.00    +0.018 C 
ATOM     10  C   UNL     1     -10.633  -7.812  10.484  0.00  0.00    +0.113 C 
ATOM     11  C   UNL     1      -8.379  -7.258   9.434  0.00  0.00    +0.130 C 
ATOM     12  C   UNL     1     -10.328 -10.216   9.970  0.00  0.00    +0.117 C 
ATOM     13  C   UNL     1      -8.058  -9.704   9.049  0.00  0.00    +0.027 A 
ATOM     14  C   UNL     1      -7.251 -10.774   8.976  0.00  0.00    +0.022 A 
ATOM     15  C   UNL     1      -6.203  -8.306   9.841  0.00  0.00    +0.259 A 
ATOM     16  C   UNL     1     -10.022  -9.330  12.335  0.00  0.00    +0.218 C 
ATOM     17  C   UNL     1      -5.332  -9.533   9.784  0.00  0.00    +0.047 A 
ATOM     18  C   UNL     1      -5.870 -10.684   9.355  0.00  0.00    +0.015 A 
ENDROOT
BRANCH  17  20
ATOM     20  C   UNL     1      -3.918  -9.485  10.196  0.00  0.00    -0.013 A 
ATOM     22  C   UNL     1      -3.443 -10.369  11.166  0.00  0.00    +0.010 A 
ATOM     23  C   UNL     1      -3.052  -8.557   9.615  0.00  0.00    +0.010 A 
ATOM     24  C   UNL     1      -2.105 -10.323  11.556  0.00  0.00    +0.015 A 
ATOM     25  C   UNL     1      -1.714  -8.511  10.006  0.00  0.00    +0.015 A 
ATOM     26  C   UNL     1      -1.240  -9.394  10.976  0.00  0.00    +0.008 A 
BRANCH  26   1
ATOM      1  S   UNL     1       0.470  -9.335  11.476  0.00  0.00    -0.129 S 
ATOM     28  C   UNL     1       0.898  -7.606  11.123  0.00  0.00    +0.090 C 
ENDBRANCH  26   1
ENDBRANCH  17  20
BRANCH  16  19
ATOM     19  C   UNL     1      -9.755 -10.745  12.784  0.00  0.00    +0.124 C 
BRANCH  19  21
ATOM     21  C   UNL     1      -8.560 -10.764  13.714  0.00  0.00    +0.168 C 
BRANCH  21   4
ATOM      4  O   UNL     1      -7.512  -9.981  13.156  0.00  0.00    -0.382 OA
ATOM     27  C   UNL     1      -6.359  -9.986  13.987  0.00  0.00    +0.194 C 
ENDBRANCH  21   4
ENDBRANCH  19  21
ENDBRANCH  16  19
TORSDOF 5
ENDMDL
MODEL 2
REMARK VINA RESULT:       2.7     16.391     17.938
REMARK  Name = 7143831
REMARK  7 active torsions:
REMARK  status: ('A' for Active; 'I' for Inactive)
REMARK    1  A    between atoms: S_1  and  C_26
REMARK    2  A    between atoms: S_1  and  C_28
REMARK    3  A    between atoms: O_4  and  C_21
REMARK    4  A    between atoms: O_4  and  C_27
REMARK    5  A    between atoms: C_16  and  C_19
REMARK    6  A    between atoms: C_17  and  C_20
REMARK    7  A    between atoms: C_19  and  C_21
REMARK                            x       y       z     vdW  Elec       q    Type
REMARK                         _______ _______ _______ _____ _____    ______ ____
ROOT
ATOM      2  O   UNL     1       0.160   2.145  25.604  0.00  0.00    -0.267 OA
ATOM      3  O   UNL     1      -4.278  -0.650  26.646  0.00  0.00    -0.276 OA
ATOM      5  N   UNL     1      -4.737   1.110  25.200  0.00  0.00    -0.300 N 
ATOM      6  N   UNL     1      -1.922   2.499  24.614  0.00  0.00    -0.311 N 
ATOM      7  C   UNL     1      -3.941   3.363  25.928  0.00  0.00    +0.027 C 
ATOM      8  C   UNL     1      -4.166   2.864  23.531  0.00  0.00    +0.054 C 
ATOM      9  C   UNL     1      -4.389   3.941  24.591  0.00  0.00    +0.018 C 
ATOM     10  C   UNL     1      -4.759   2.106  26.274  0.00  0.00    +0.113 C 
ATOM     11  C   UNL     1      -2.438   3.073  25.865  0.00  0.00    +0.130 C 
ATOM     12  C   UNL     1      -5.032   1.631  23.858  0.00  0.00    +0.117 C 
ATOM     13  C   UNL     1      -2.705   2.461  23.459  0.00  0.00    +0.027 A 
ATOM     14  C   UNL     1      -2.174   2.044  22.298  0.00  0.00    +0.022 A 
ATOM     15  C   UNL     1      -0.572   2.095  24.615  0.00  0.00    +0.259 A 
ATOM     16  C   UNL     1      -4.525  -0.233  25.512  0.00  0.00    +0.218 C 
ATOM     17  C   UNL     1      -0.016   1.597  23.307  0.00  0.00    +0.047 A 
ATOM     18  C   UNL     1      -0.811   1.601  22.227  0.00  0.00    +0.015 A 
ENDROOT
BRANCH  17  20
ATOM     20  C   UNL     1       1.369   1.105  23.204  0.00  0.00    -0.013 A 
ATOM     22  C   UNL     1       1.627  -0.266  23.235  0.00  0.00    +0.010 A 
ATOM     23  C   UNL     1       2.424   2.009  23.075  0.00  0.00    +0.010 A 
ATOM     24  C   UNL     1       2.938  -0.732  23.139  0.00  0.00    +0.015 A 
ATOM     25  C   UNL     1       3.735   1.543  22.978  0.00  0.00    +0.015 A 
ATOM     26  C   UNL     1       3.992   0.173  23.010  0.00  0.00    +0.008 A 
BRANCH  26   1
ATOM      1  S   UNL     1       5.667  -0.422  22.888  0.00  0.00    -0.129 S 
ATOM     28  C   UNL     1       5.978  -1.002  24.580  0.00  0.00    +0.090 C 
ENDBRANCH  26   1
ENDBRANCH  17  20
BRANCH  16  19
ATOM     19  C   UNL     1      -4.601  -1.212  24.368  0.00  0.00    +0.124 C 
BRANCH  19  21
ATOM     21  C   UNL     1      -3.316  -2.010  24.298  0.00  0.00    +0.168 C 
BRANCH  21   4
ATOM      4  O   UNL     1      -2.206  -1.121  24.273  0.00  0.00    -0.382 OA
ATOM     27  C   UNL     1      -1.134  -1.605  25.070  0.00  0.00    +0.194 C 
ENDBRANCH  21   4
ENDBRANCH  19  21
ENDBRANCH  16  19
TORSDOF 5
ENDMDL
MODEL 3
REMARK VINA RESULT:       6.2     16.744     18.497
REMARK  Name = 7143831
REMARK  7 active torsions:
REMARK  status: ('A' for Active; 'I' for Inactive)
REMARK    1  A    between atoms: S_1  and  C_26
REMARK    2  A    between atoms: S_1  and  C_28
REMARK    3  A    between atoms: O_4  and  C_21
REMARK    4  A    between atoms: O_4  and  C_27
REMARK    5  A    between atoms: C_16  and  C_19
REMARK    6  A    between atoms: C_17  and  C_20
REMARK    7  A    between atoms: C_19  and  C_21
REMARK                            x       y       z     vdW  Elec       q    Type
REMARK                         _______ _______ _______ _____ _____    ______ ____
ROOT
ATOM      2  O   UNL     1      -1.866   2.093  22.290  0.00  0.00    -0.267 OA
ATOM      3  O   UNL     1      -3.815   5.457  25.963  0.00  0.00    -0.276 OA
ATOM      5  N   UNL     1      -4.918   3.413  26.053  0.00  0.00    -0.300 N 
ATOM      6  N   UNL     1      -3.467   1.555  23.900  0.00  0.00    -0.311 N 
ATOM      7  C   UNL     1      -5.822   2.559  23.887  0.00  0.00    +0.027 C 
ATOM      8  C   UNL     1      -5.178   0.973  25.653  0.00  0.00    +0.054 C 
ATOM      9  C   UNL     1      -6.227   1.263  24.581  0.00  0.00    +0.018 C 
ATOM     10  C   UNL     1      -5.766   3.717  24.899  0.00  0.00    +0.113 C 
ATOM     11  C   UNL     1      -4.478   2.344  23.182  0.00  0.00    +0.130 C 
ATOM     12  C   UNL     1      -5.171   2.113  26.690  0.00  0.00    +0.117 C 
ATOM     13  C   UNL     1      -3.798   0.823  25.042  0.00  0.00    +0.027 A 
ATOM     14  C   UNL     1      -2.890   0.015  25.611  0.00  0.00    +0.022 A 
ATOM     15  C   UNL     1      -2.186   1.489  23.316  0.00  0.00    +0.259 A 
ATOM     16  C   UNL     1      -4.013   4.370  26.512  0.00  0.00    +0.218 C 
ATOM     17  C   UNL     1      -1.178   0.603  23.998  0.00  0.00    +0.047 A 
ATOM     18  C   UNL     1      -1.560  -0.089  25.081  0.00  0.00    +0.015 A 
ENDROOT
BRANCH  17  20
ATOM     20  C   UNL     1       0.204   0.497  23.501  0.00  0.00    -0.013 A 
ATOM     22  C   UNL     1       0.534  -0.477  22.557  0.00  0.00    +0.010 A 
ATOM     23  C   UNL     1       1.186   1.370  23.973  0.00  0.00    +0.010 A 
ATOM     24  C   UNL     1       1.843  -0.578  22.087  0.00  0.00    +0.015 A 
ATOM     25  C   UNL     1       2.495   1.268  23.502  0.00  0.00    +0.015 A 
ATOM     26  C   UNL     1       2.824   0.295  22.560  0.00  0.00    +0.008 A 
BRANCH  26   1
ATOM      1  S   UNL     1       4.497   0.164  21.960  0.00  0.00    -0.129 S 
ATOM     28  C   UNL     1       5.440   0.076  23.509  0.00  0.00    +0.090 C 
ENDBRANCH  26   1
ENDBRANCH  17  20
BRANCH  16  19
ATOM     19  C   UNL     1      -3.235   4.022  27.756  0.00  0.00    +0.124 C 
BRANCH  19  21
ATOM     21  C   UNL     1      -1.854   3.536  27.370  0.00  0.00    +0.168 C 
BRANCH  21   4
ATOM      4  O   UNL     1      -1.781   3.383  25.958  0.00  0.00    -0.382 OA
ATOM     27  C   UNL     1      -0.652   4.056  25.419  0.00  0.00    +0.194 C 
ENDBRANCH  21   4
ENDBRANCH  19  21
ENDBRANCH  16  19
TORSDOF 5
ENDMDL
