MODEL 1
REMARK VINA RESULT:      -1.1      0.000      0.000
REMARK  Name = 71693202
REMARK  14 active torsions:
REMARK  status: ('A' for Active; 'I' for Inactive)
REMARK    1  A    between atoms: O_2  and  C_27
REMARK    2  A    between atoms: N_4  and  C_19
REMARK    3  A    between atoms: C_7  and  C_16
REMARK    4  A    between atoms: C_7  and  C_18
REMARK    5  A    between atoms: C_8  and  C_17
REMARK    6  A    between atoms: C_9  and  C_19
REMARK    7  A    between atoms: C_13  and  C_22
REMARK    8  A    between atoms: C_16  and  C_23
REMARK    9  A    between atoms: C_17  and  C_24
REMARK   10  A    between atoms: C_17  and  C_25
REMARK   11  A    between atoms: C_18  and  C_27
REMARK   12  A    between atoms: C_20  and  C_26
REMARK   13  A    between atoms: C_22  and  C_28
REMARK   14  A    between atoms: C_31  and  C_35
REMARK                            x       y       z     vdW  Elec       q    Type
REMARK                         _______ _______ _______ _____ _____    ______ ____
ROOT
ATOM      8  C   UNL     1      15.104  -6.861  30.873  0.00  0.00    +0.000 C 
ATOM      9  C   UNL     1      15.989  -8.014  31.410  0.00  0.00    +0.032 C 
ATOM     12  C   UNL     1      13.919  -6.609  31.817  0.00  0.00    +0.012 C 
ATOM     13  C   UNL     1      13.038  -7.860  31.993  0.00  0.00    +0.022 C 
ATOM     20  C   UNL     1      13.866  -9.099  32.262  0.00  0.00    -0.073 C 
ATOM     21  C   UNL     1      15.185  -9.145  32.008  0.00  0.00    -0.022 C 
ATOM     26  C   UNL     1      13.151 -10.272  32.873  0.00  0.00    +0.039 C 
ENDROOT
BRANCH   8  17
ATOM     17  C   UNL     1      15.905  -5.568  30.689  0.00  0.00    -0.013 C 
ATOM     24  C   UNL     1      15.028  -4.354  30.977  0.00  0.00    +0.007 C 
ATOM     25  C   UNL     1      17.136  -5.572  31.591  0.00  0.00    +0.007 C 
ENDBRANCH   8  17
BRANCH   9  19
ATOM     19  C   UNL     1      16.907  -8.563  30.314  0.00  0.00    +0.112 C 
BRANCH  19   4
ATOM      1  O   UNL     1      14.942  -9.529  28.422  0.00  0.00    -0.276 OA
ATOM      4  N   UNL     1      16.578  -7.997  29.043  0.00  0.00    -0.315 N 
ATOM     23  C   UNL     1      15.613  -8.527  28.187  0.00  0.00    +0.214 C 
ATOM     36  H   UNL     1      17.035  -7.129  28.776  0.00  0.00    +0.149 HD
BRANCH  23  16
ATOM     16  C   UNL     1      15.476  -7.717  26.911  0.00  0.00    +0.103 C 
BRANCH  16   7
ATOM      7  C   UNL     1      16.197  -8.363  25.721  0.00  0.00    -0.011 C 
ATOM     10  C   UNL     1      15.182  -9.010  24.751  0.00  0.00    +0.008 C 
ATOM     11  C   UNL     1      17.096  -9.526  26.203  0.00  0.00    +0.008 C 
ATOM     14  C   UNL     1      15.258 -10.504  25.033  0.00  0.00    +0.001 C 
ATOM     15  C   UNL     1      16.731 -10.719  25.327  0.00  0.00    +0.001 C 
BRANCH   7  18
ATOM     18  C   UNL     1      17.025  -7.294  24.996  0.00  0.00    +0.127 C 
BRANCH  18  27
ATOM      3  O   UNL     1      16.990  -5.649  26.794  0.00  0.00    -0.251 OA
ATOM     27  C   UNL     1      16.837  -5.942  25.618  0.00  0.00    +0.305 C 
BRANCH  27   2
ATOM      2  O   UNL     1      16.459  -5.055  24.663  0.00  0.00    -0.481 OA
ATOM     38  H   UNL     1      16.711  -4.135  24.896  0.00  0.00    +0.295 HD
ENDBRANCH  27   2
ENDBRANCH  18  27
ENDBRANCH   7  18
ENDBRANCH  16   7
ENDBRANCH  23  16
ENDBRANCH  19   4
ENDBRANCH   9  19
BRANCH  13  22
ATOM     22  C   UNL     1      12.122  -8.065  30.780  0.00  0.00    +0.082 C 
BRANCH  22  28
ATOM      5  N   UNL     1      10.568  -9.646  31.939  0.00  0.00    -0.342 N 
ATOM      6  N   UNL     1       9.611  -7.912  30.929  0.00  0.00    -0.232 NA
ATOM     28  C   UNL     1      10.750  -8.511  31.199  0.00  0.00    +0.109 A 
ATOM     29  C   UNL     1       9.222  -9.789  32.162  0.00  0.00    +0.066 A 
ATOM     30  C   UNL     1       8.647  -8.695  31.521  0.00  0.00    +0.092 A 
ATOM     31  C   UNL     1       7.251  -8.536  31.556  0.00  0.00    -0.023 A 
ATOM     32  C   UNL     1       8.481 -10.752  32.847  0.00  0.00    +0.028 A 
ATOM     33  C   UNL     1       6.487  -9.491  32.238  0.00  0.00    +0.005 A 
ATOM     34  C   UNL     1       7.093 -10.578  32.872  0.00  0.00    +0.002 A 
ATOM     35  C   UNL     1       6.557  -7.390  30.895  0.00  0.00    +0.046 C 
ATOM     37  H   UNL     1      11.293 -10.270  32.266  0.00  0.00    +0.167 HD
ENDBRANCH  22  28
ENDBRANCH  13  22
TORSDOF 10
ENDMDL
MODEL 2
REMARK VINA RESULT:       0.2     14.460     19.710
REMARK  Name = 71693202
REMARK  14 active torsions:
REMARK  status: ('A' for Active; 'I' for Inactive)
REMARK    1  A    between atoms: O_2  and  C_27
REMARK    2  A    between atoms: N_4  and  C_19
REMARK    3  A    between atoms: C_7  and  C_16
REMARK    4  A    between atoms: C_7  and  C_18
REMARK    5  A    between atoms: C_8  and  C_17
REMARK    6  A    between atoms: C_9  and  C_19
REMARK    7  A    between atoms: C_13  and  C_22
REMARK    8  A    between atoms: C_16  and  C_23
REMARK    9  A    between atoms: C_17  and  C_24
REMARK   10  A    between atoms: C_17  and  C_25
REMARK   11  A    between atoms: C_18  and  C_27
REMARK   12  A    between atoms: C_20  and  C_26
REMARK   13  A    between atoms: C_22  and  C_28
REMARK   14  A    between atoms: C_31  and  C_35
REMARK                            x       y       z     vdW  Elec       q    Type
REMARK                         _______ _______ _______ _____ _____    ______ ____
ROOT
ATOM      8  C   UNL     1      -3.165  -1.917  24.377  0.00  0.00    +0.000 C 
ATOM      9  C   UNL     1      -3.658  -1.047  25.561  0.00  0.00    +0.032 C 
ATOM     12  C   UNL     1      -1.734  -2.413  24.634  0.00  0.00    +0.012 C 
ATOM     13  C   UNL     1      -0.742  -1.252  24.833  0.00  0.00    +0.022 C 
ATOM     20  C   UNL     1      -1.279  -0.210  25.791  0.00  0.00    -0.073 C 
ATOM     21  C   UNL     1      -2.582  -0.142  26.115  0.00  0.00    -0.022 C 
ATOM     26  C   UNL     1      -0.275   0.725  26.406  0.00  0.00    +0.039 C 
ENDROOT
BRANCH   8  17
ATOM     17  C   UNL     1      -4.092  -3.111  24.125  0.00  0.00    -0.013 C 
ATOM     24  C   UNL     1      -5.250  -2.703  23.220  0.00  0.00    +0.007 C 
ATOM     25  C   UNL     1      -3.311  -4.271  23.516  0.00  0.00    +0.007 C 
ENDBRANCH   8  17
BRANCH   9  19
ATOM     19  C   UNL     1      -4.875  -0.208  25.162  0.00  0.00    +0.112 C 
BRANCH  19   4
ATOM      1  O   UNL     1      -6.694   1.994  24.697  0.00  0.00    -0.276 OA
ATOM      4  N   UNL     1      -4.588   1.189  25.270  0.00  0.00    -0.315 N 
ATOM     23  C   UNL     1      -5.527   2.192  25.027  0.00  0.00    +0.214 C 
ATOM     36  H   UNL     1      -3.665   1.462  25.594  0.00  0.00    +0.149 HD
BRANCH  23  16
ATOM     16  C   UNL     1      -4.943   3.579  25.220  0.00  0.00    +0.103 C 
BRANCH  16   7
ATOM      7  C   UNL     1      -3.566   3.737  24.561  0.00  0.00    -0.011 C 
ATOM     10  C   UNL     1      -2.480   3.004  25.380  0.00  0.00    +0.008 C 
ATOM     11  C   UNL     1      -3.138   5.224  24.557  0.00  0.00    +0.008 C 
ATOM     14  C   UNL     1      -1.745   4.101  26.137  0.00  0.00    +0.001 C 
ATOM     15  C   UNL     1      -1.732   5.249  25.145  0.00  0.00    +0.001 C 
BRANCH   7  18
ATOM     18  C   UNL     1      -3.629   3.181  23.132  0.00  0.00    +0.127 C 
BRANCH  18  27
ATOM      3  O   UNL     1      -1.341   2.359  22.951  0.00  0.00    -0.251 OA
ATOM     27  C   UNL     1      -2.546   2.170  22.892  0.00  0.00    +0.305 C 
BRANCH  27   2
ATOM      2  O   UNL     1      -3.108   0.972  22.589  0.00  0.00    -0.481 OA
ATOM     38  H   UNL     1      -4.088   1.022  22.563  0.00  0.00    +0.295 HD
ENDBRANCH  27   2
ENDBRANCH  18  27
ENDBRANCH   7  18
ENDBRANCH  16   7
ENDBRANCH  23  16
ENDBRANCH  19   4
ENDBRANCH   9  19
BRANCH  13  22
ATOM     22  C   UNL     1      -0.358  -0.618  23.491  0.00  0.00    +0.082 C 
BRANCH  22  28
ATOM      5  N   UNL     1       1.624   0.823  22.989  0.00  0.00    -0.342 N 
ATOM      6  N   UNL     1       2.076  -1.239  23.685  0.00  0.00    -0.232 NA
ATOM     28  C   UNL     1       1.122  -0.380  23.400  0.00  0.00    +0.109 A 
ATOM     29  C   UNL     1       2.992   0.735  23.009  0.00  0.00    +0.066 A 
ATOM     30  C   UNL     1       3.250  -0.562  23.446  0.00  0.00    +0.092 A 
ATOM     31  C   UNL     1       4.582  -0.988  23.582  0.00  0.00    -0.023 A 
ATOM     32  C   UNL     1       3.997   1.650  22.692  0.00  0.00    +0.028 A 
ATOM     33  C   UNL     1       5.607  -0.086  23.268  0.00  0.00    +0.005 A 
ATOM     34  C   UNL     1       5.318   1.209  22.832  0.00  0.00    +0.002 A 
ATOM     35  C   UNL     1       4.942  -2.361  24.045  0.00  0.00    +0.046 C 
ATOM     37  H   UNL     1       1.085   1.635  22.718  0.00  0.00    +0.167 HD
ENDBRANCH  22  28
ENDBRANCH  13  22
TORSDOF 10
ENDMDL
MODEL 3
REMARK VINA RESULT:       0.3     14.669     19.840
REMARK  Name = 71693202
REMARK  14 active torsions:
REMARK  status: ('A' for Active; 'I' for Inactive)
REMARK    1  A    between atoms: O_2  and  C_27
REMARK    2  A    between atoms: N_4  and  C_19
REMARK    3  A    between atoms: C_7  and  C_16
REMARK    4  A    between atoms: C_7  and  C_18
REMARK    5  A    between atoms: C_8  and  C_17
REMARK    6  A    between atoms: C_9  and  C_19
REMARK    7  A    between atoms: C_13  and  C_22
REMARK    8  A    between atoms: C_16  and  C_23
REMARK    9  A    between atoms: C_17  and  C_24
REMARK   10  A    between atoms: C_17  and  C_25
REMARK   11  A    between atoms: C_18  and  C_27
REMARK   12  A    between atoms: C_20  and  C_26
REMARK   13  A    between atoms: C_22  and  C_28
REMARK   14  A    between atoms: C_31  and  C_35
REMARK                            x       y       z     vdW  Elec       q    Type
REMARK                         _______ _______ _______ _____ _____    ______ ____
ROOT
ATOM      8  C   UNL     1      -2.843  -1.630  24.077  0.00  0.00    +0.000 C 
ATOM      9  C   UNL     1      -3.541  -0.672  25.074  0.00  0.00    +0.032 C 
ATOM     12  C   UNL     1      -1.431  -1.981  24.569  0.00  0.00    +0.012 C 
ATOM     13  C   UNL     1      -0.548  -0.731  24.746  0.00  0.00    +0.022 C 
ATOM     20  C   UNL     1      -1.272   0.369  25.494  0.00  0.00    -0.073 C 
ATOM     21  C   UNL     1      -2.608   0.372  25.642  0.00  0.00    -0.022 C 
ATOM     26  C   UNL     1      -0.419   1.443  26.109  0.00  0.00    +0.039 C 
ENDROOT
BRANCH   8  17
ATOM     17  C   UNL     1      -3.651  -2.914  23.861  0.00  0.00    -0.013 C 
ATOM     24  C   UNL     1      -3.657  -3.758  25.133  0.00  0.00    +0.007 C 
ATOM     25  C   UNL     1      -5.074  -2.579  23.427  0.00  0.00    +0.007 C 
ENDBRANCH   8  17
BRANCH   9  19
ATOM     19  C   UNL     1      -4.745   0.019  24.426  0.00  0.00    +0.112 C 
BRANCH  19   4
ATOM      1  O   UNL     1      -3.146   1.605  22.610  0.00  0.00    -0.276 OA
ATOM      4  N   UNL     1      -4.582   1.439  24.432  0.00  0.00    -0.315 N 
ATOM     23  C   UNL     1      -3.788   2.130  23.517  0.00  0.00    +0.214 C 
ATOM     36  H   UNL     1      -5.117   1.978  25.108  0.00  0.00    +0.149 HD
BRANCH  23  16
ATOM     16  C   UNL     1      -3.804   3.628  23.763  0.00  0.00    +0.103 C 
BRANCH  16   7
ATOM      7  C   UNL     1      -2.988   4.031  24.999  0.00  0.00    -0.011 C 
ATOM     10  C   UNL     1      -2.724   5.554  25.006  0.00  0.00    +0.008 C 
ATOM     11  C   UNL     1      -1.587   3.376  24.957  0.00  0.00    +0.008 C 
ATOM     14  C   UNL     1      -1.278   5.709  24.556  0.00  0.00    +0.001 C 
ATOM     15  C   UNL     1      -0.595   4.510  25.187  0.00  0.00    +0.001 C 
BRANCH   7  18
ATOM     18  C   UNL     1      -3.752   3.613  26.262  0.00  0.00    +0.127 C 
BRANCH  18  27
ATOM      3  O   UNL     1      -5.791   4.805  25.659  0.00  0.00    -0.251 OA
ATOM     27  C   UNL     1      -5.230   3.812  26.098  0.00  0.00    +0.305 C 
BRANCH  27   2
ATOM      2  O   UNL     1      -5.883   2.699  26.517  0.00  0.00    -0.481 OA
ATOM     38  H   UNL     1      -5.438   2.280  27.285  0.00  0.00    +0.295 HD
ENDBRANCH  27   2
ENDBRANCH  18  27
ENDBRANCH   7  18
ENDBRANCH  16   7
ENDBRANCH  23  16
ENDBRANCH  19   4
ENDBRANCH   9  19
BRANCH  13  22
ATOM     22  C   UNL     1      -0.030  -0.226  23.394  0.00  0.00    +0.082 C 
BRANCH  22  28
ATOM      5  N   UNL     1       2.127   0.992  23.041  0.00  0.00    -0.342 N 
ATOM      6  N   UNL     1       2.305  -1.138  23.650  0.00  0.00    -0.232 NA
ATOM     28  C   UNL     1       1.471  -0.161  23.372  0.00  0.00    +0.109 A 
ATOM     29  C   UNL     1       3.473   0.742  23.108  0.00  0.00    +0.066 A 
ATOM     30  C   UNL     1       3.559  -0.594  23.490  0.00  0.00    +0.092 A 
ATOM     31  C   UNL     1       4.825  -1.180  23.655  0.00  0.00    -0.023 A 
ATOM     32  C   UNL     1       4.590   1.545  22.876  0.00  0.00    +0.028 A 
ATOM     33  C   UNL     1       5.961  -0.393  23.426  0.00  0.00    +0.005 A 
ATOM     34  C   UNL     1       5.843   0.946  23.044  0.00  0.00    +0.002 A 
ATOM     35  C   UNL     1       5.004  -2.606  24.062  0.00  0.00    +0.046 C 
ATOM     37  H   UNL     1       1.698   1.873  22.790  0.00  0.00    +0.167 HD
ENDBRANCH  22  28
ENDBRANCH  13  22
TORSDOF 10
ENDMDL
MODEL 4
REMARK VINA RESULT:       0.7     14.515     19.569
REMARK  Name = 71693202
REMARK  14 active torsions:
REMARK  status: ('A' for Active; 'I' for Inactive)
REMARK    1  A    between atoms: O_2  and  C_27
REMARK    2  A    between atoms: N_4  and  C_19
REMARK    3  A    between atoms: C_7  and  C_16
REMARK    4  A    between atoms: C_7  and  C_18
REMARK    5  A    between atoms: C_8  and  C_17
REMARK    6  A    between atoms: C_9  and  C_19
REMARK    7  A    between atoms: C_13  and  C_22
REMARK    8  A    between atoms: C_16  and  C_23
REMARK    9  A    between atoms: C_17  and  C_24
REMARK   10  A    between atoms: C_17  and  C_25
REMARK   11  A    between atoms: C_18  and  C_27
REMARK   12  A    between atoms: C_20  and  C_26
REMARK   13  A    between atoms: C_22  and  C_28
REMARK   14  A    between atoms: C_31  and  C_35
REMARK                            x       y       z     vdW  Elec       q    Type
REMARK                         _______ _______ _______ _____ _____    ______ ____
ROOT
ATOM      8  C   UNL     1      -1.883   3.394  24.743  0.00  0.00    +0.000 C 
ATOM      9  C   UNL     1      -3.222   3.602  23.992  0.00  0.00    +0.032 C 
ATOM     12  C   UNL     1      -0.717   3.301  23.748  0.00  0.00    +0.012 C 
ATOM     13  C   UNL     1      -0.899   2.146  22.745  0.00  0.00    +0.022 C 
ATOM     20  C   UNL     1      -2.295   2.124  22.157  0.00  0.00    -0.073 C 
ATOM     21  C   UNL     1      -3.317   2.792  22.720  0.00  0.00    -0.022 C 
ATOM     26  C   UNL     1      -2.479   1.355  20.879  0.00  0.00    +0.039 C 
ENDROOT
BRANCH   8  17
ATOM     17  C   UNL     1      -1.617   4.517  25.751  0.00  0.00    -0.013 C 
ATOM     24  C   UNL     1      -1.336   5.829  25.023  0.00  0.00    +0.007 C 
ATOM     25  C   UNL     1      -2.799   4.670  26.702  0.00  0.00    +0.007 C 
ENDBRANCH   8  17
BRANCH   9  19
ATOM     19  C   UNL     1      -4.418   3.279  24.893  0.00  0.00    +0.112 C 
BRANCH  19   4
ATOM      1  O   UNL     1      -6.331   1.126  24.612  0.00  0.00    -0.276 OA
ATOM      4  N   UNL     1      -4.314   1.955  25.422  0.00  0.00    -0.315 N 
ATOM     23  C   UNL     1      -5.286   0.971  25.240  0.00  0.00    +0.214 C 
ATOM     36  H   UNL     1      -3.459   1.702  25.909  0.00  0.00    +0.149 HD
BRANCH  23  16
ATOM     16  C   UNL     1      -4.907  -0.337  25.910  0.00  0.00    +0.103 C 
BRANCH  16   7
ATOM      7  C   UNL     1      -3.692  -1.007  25.254  0.00  0.00    -0.011 C 
ATOM     10  C   UNL     1      -3.896  -1.134  23.727  0.00  0.00    +0.008 C 
ATOM     11  C   UNL     1      -3.535  -2.458  25.765  0.00  0.00    +0.008 C 
ATOM     14  C   UNL     1      -4.261  -2.594  23.495  0.00  0.00    +0.001 C 
ATOM     15  C   UNL     1      -3.410  -3.323  24.517  0.00  0.00    +0.001 C 
BRANCH   7  18
ATOM     18  C   UNL     1      -2.438  -0.178  25.560  0.00  0.00    +0.127 C 
BRANCH  18  27
ATOM      3  O   UNL     1      -0.742  -1.906  25.275  0.00  0.00    -0.251 OA
ATOM     27  C   UNL     1      -1.288  -1.055  25.961  0.00  0.00    +0.305 C 
BRANCH  27   2
ATOM      2  O   UNL     1      -0.924  -0.765  27.236  0.00  0.00    -0.481 OA
ATOM     38  H   UNL     1      -0.090  -1.216  27.490  0.00  0.00    +0.295 HD
ENDBRANCH  27   2
ENDBRANCH  18  27
ENDBRANCH   7  18
ENDBRANCH  16   7
ENDBRANCH  23  16
ENDBRANCH  19   4
ENDBRANCH   9  19
BRANCH  13  22
ATOM     22  C   UNL     1      -0.553   0.798  23.387  0.00  0.00    +0.082 C 
BRANCH  22  28
ATOM      5  N   UNL     1       1.812   1.538  23.050  0.00  0.00    -0.342 N 
ATOM      6  N   UNL     1       1.538  -0.583  23.654  0.00  0.00    -0.232 NA
ATOM     28  C   UNL     1       0.928   0.547  23.374  0.00  0.00    +0.109 A 
ATOM     29  C   UNL     1       3.076   1.012  23.125  0.00  0.00    +0.066 A 
ATOM     30  C   UNL     1       2.878  -0.313  23.503  0.00  0.00    +0.092 A 
ATOM     31  C   UNL     1       3.993  -1.151  23.674  0.00  0.00    -0.023 A 
ATOM     32  C   UNL     1       4.338   1.565  22.901  0.00  0.00    +0.028 A 
ATOM     33  C   UNL     1       5.269  -0.618  23.454  0.00  0.00    +0.005 A 
ATOM     34  C   UNL     1       5.437   0.716  23.076  0.00  0.00    +0.002 A 
ATOM     35  C   UNL     1       3.866  -2.584  24.078  0.00  0.00    +0.046 C 
ATOM     37  H   UNL     1       1.579   2.490  22.800  0.00  0.00    +0.167 HD
ENDBRANCH  22  28
ENDBRANCH  13  22
TORSDOF 10
ENDMDL
MODEL 5
REMARK VINA RESULT:       0.7     14.495     19.716
REMARK  Name = 71693202
REMARK  14 active torsions:
REMARK  status: ('A' for Active; 'I' for Inactive)
REMARK    1  A    between atoms: O_2  and  C_27
REMARK    2  A    between atoms: N_4  and  C_19
REMARK    3  A    between atoms: C_7  and  C_16
REMARK    4  A    between atoms: C_7  and  C_18
REMARK    5  A    between atoms: C_8  and  C_17
REMARK    6  A    between atoms: C_9  and  C_19
REMARK    7  A    between atoms: C_13  and  C_22
REMARK    8  A    between atoms: C_16  and  C_23
REMARK    9  A    between atoms: C_17  and  C_24
REMARK   10  A    between atoms: C_17  and  C_25
REMARK   11  A    between atoms: C_18  and  C_27
REMARK   12  A    between atoms: C_20  and  C_26
REMARK   13  A    between atoms: C_22  and  C_28
REMARK   14  A    between atoms: C_31  and  C_35
REMARK                            x       y       z     vdW  Elec       q    Type
REMARK                         _______ _______ _______ _____ _____    ______ ____
ROOT
ATOM      8  C   UNL     1      -3.170  -2.022  24.336  0.00  0.00    +0.000 C 
ATOM      9  C   UNL     1      -3.695  -1.248  25.572  0.00  0.00    +0.032 C 
ATOM     12  C   UNL     1      -1.722  -2.480  24.564  0.00  0.00    +0.012 C 
ATOM     13  C   UNL     1      -0.774  -1.298  24.839  0.00  0.00    +0.022 C 
ATOM     20  C   UNL     1      -1.349  -0.340  25.861  0.00  0.00    -0.073 C 
ATOM     21  C   UNL     1      -2.654  -0.341  26.185  0.00  0.00    -0.022 C 
ATOM     26  C   UNL     1      -0.381   0.591  26.537  0.00  0.00    +0.039 C 
ENDROOT
BRANCH   8  17
ATOM     17  C   UNL     1      -4.052  -3.231  24.007  0.00  0.00    -0.013 C 
ATOM     24  C   UNL     1      -5.230  -2.808  23.133  0.00  0.00    +0.007 C 
ATOM     25  C   UNL     1      -3.231  -4.316  23.319  0.00  0.00    +0.007 C 
ENDBRANCH   8  17
BRANCH   9  19
ATOM     19  C   UNL     1      -4.943  -0.431  25.224  0.00  0.00    +0.112 C 
BRANCH  19   4
ATOM      1  O   UNL     1      -6.793   1.741  24.743  0.00  0.00    -0.276 OA
ATOM      4  N   UNL     1      -4.705   0.966  25.411  0.00  0.00    -0.315 N 
ATOM     23  C   UNL     1      -5.655   1.954  25.154  0.00  0.00    +0.214 C 
ATOM     36  H   UNL     1      -3.811   1.249  25.805  0.00  0.00    +0.149 HD
BRANCH  23  16
ATOM     16  C   UNL     1      -5.125   3.347  25.444  0.00  0.00    +0.103 C 
BRANCH  16   7
ATOM      7  C   UNL     1      -3.734   3.586  24.843  0.00  0.00    -0.011 C 
ATOM     10  C   UNL     1      -3.833   4.436  23.556  0.00  0.00    +0.008 C 
ATOM     11  C   UNL     1      -3.103   2.246  24.395  0.00  0.00    +0.008 C 
ATOM     14  C   UNL     1      -3.666   3.448  22.411  0.00  0.00    +0.001 C 
ATOM     15  C   UNL     1      -2.648   2.465  22.958  0.00  0.00    +0.001 C 
BRANCH   7  18
ATOM     18  C   UNL     1      -2.852   4.288  25.884  0.00  0.00    +0.127 C 
BRANCH  18  27
ATOM      3  O   UNL     1      -0.560   3.722  25.276  0.00  0.00    -0.251 OA
ATOM     27  C   UNL     1      -1.470   4.533  25.353  0.00  0.00    +0.305 C 
BRANCH  27   2
ATOM      2  O   UNL     1      -1.364   5.826  24.954  0.00  0.00    -0.481 OA
ATOM     38  H   UNL     1      -0.706   5.935  24.234  0.00  0.00    +0.295 HD
ENDBRANCH  27   2
ENDBRANCH  18  27
ENDBRANCH   7  18
ENDBRANCH  16   7
ENDBRANCH  23  16
ENDBRANCH  19   4
ENDBRANCH   9  19
BRANCH  13  22
ATOM     22  C   UNL     1      -0.414  -0.566  23.542  0.00  0.00    +0.082 C 
BRANCH  22  28
ATOM      5  N   UNL     1       1.573   0.858  23.007  0.00  0.00    -0.342 N 
ATOM      6  N   UNL     1       2.018  -1.202  23.713  0.00  0.00    -0.232 NA
ATOM     28  C   UNL     1       1.067  -0.339  23.433  0.00  0.00    +0.109 A 
ATOM     29  C   UNL     1       2.940   0.761  23.012  0.00  0.00    +0.066 A 
ATOM     30  C   UNL     1       3.194  -0.535  23.456  0.00  0.00    +0.092 A 
ATOM     31  C   UNL     1       4.524  -0.969  23.580  0.00  0.00    -0.023 A 
ATOM     32  C   UNL     1       3.947   1.666  22.677  0.00  0.00    +0.028 A 
ATOM     33  C   UNL     1       5.552  -0.077  23.249  0.00  0.00    +0.005 A 
ATOM     34  C   UNL     1       5.267   1.217  22.806  0.00  0.00    +0.002 A 
ATOM     35  C   UNL     1       4.881  -2.341  24.050  0.00  0.00    +0.046 C 
ATOM     37  H   UNL     1       1.036   1.671  22.736  0.00  0.00    +0.167 HD
ENDBRANCH  22  28
ENDBRANCH  13  22
TORSDOF 10
ENDMDL
MODEL 6
REMARK VINA RESULT:       1.1      1.542      2.283
REMARK  Name = 71693202
REMARK  14 active torsions:
REMARK  status: ('A' for Active; 'I' for Inactive)
REMARK    1  A    between atoms: O_2  and  C_27
REMARK    2  A    between atoms: N_4  and  C_19
REMARK    3  A    between atoms: C_7  and  C_16
REMARK    4  A    between atoms: C_7  and  C_18
REMARK    5  A    between atoms: C_8  and  C_17
REMARK    6  A    between atoms: C_9  and  C_19
REMARK    7  A    between atoms: C_13  and  C_22
REMARK    8  A    between atoms: C_16  and  C_23
REMARK    9  A    between atoms: C_17  and  C_24
REMARK   10  A    between atoms: C_17  and  C_25
REMARK   11  A    between atoms: C_18  and  C_27
REMARK   12  A    between atoms: C_20  and  C_26
REMARK   13  A    between atoms: C_22  and  C_28
REMARK   14  A    between atoms: C_31  and  C_35
REMARK                            x       y       z     vdW  Elec       q    Type
REMARK                         _______ _______ _______ _____ _____    ______ ____
ROOT
ATOM      8  C   UNL     1      15.199  -6.957  30.652  0.00  0.00    +0.000 C 
ATOM      9  C   UNL     1      15.762  -8.296  31.192  0.00  0.00    +0.032 C 
ATOM     12  C   UNL     1      14.184  -6.364  31.641  0.00  0.00    +0.012 C 
ATOM     13  C   UNL     1      13.004  -7.317  31.906  0.00  0.00    +0.022 C 
ATOM     20  C   UNL     1      13.473  -8.730  32.184  0.00  0.00    -0.073 C 
ATOM     21  C   UNL     1      14.712  -9.146  31.870  0.00  0.00    -0.022 C 
ATOM     26  C   UNL     1      12.498  -9.644  32.873  0.00  0.00    +0.039 C 
ENDROOT
BRANCH   8  17
ATOM     17  C   UNL     1      16.313  -5.941  30.381  0.00  0.00    -0.013 C 
ATOM     24  C   UNL     1      15.735  -4.532  30.281  0.00  0.00    +0.007 C 
ATOM     25  C   UNL     1      17.376  -6.013  31.472  0.00  0.00    +0.007 C 
ENDBRANCH   8  17
BRANCH   9  19
ATOM     19  C   UNL     1      16.430  -9.104  30.075  0.00  0.00    +0.112 C 
BRANCH  19   4
ATOM      1  O   UNL     1      17.248  -9.946  27.430  0.00  0.00    -0.276 OA
ATOM      4  N   UNL     1      16.746  -8.267  28.960  0.00  0.00    -0.315 N 
ATOM     23  C   UNL     1      17.135  -8.756  27.712  0.00  0.00    +0.214 C 
ATOM     36  H   UNL     1      16.628  -7.264  29.068  0.00  0.00    +0.149 HD
BRANCH  23  16
ATOM     16  C   UNL     1      17.405  -7.639  26.721  0.00  0.00    +0.103 C 
BRANCH  16   7
ATOM      7  C   UNL     1      16.146  -7.217  25.950  0.00  0.00    -0.011 C 
ATOM     10  C   UNL     1      16.450  -7.077  24.441  0.00  0.00    +0.008 C 
ATOM     11  C   UNL     1      15.684  -5.811  26.403  0.00  0.00    +0.008 C 
ATOM     14  C   UNL     1      16.559  -5.580  24.194  0.00  0.00    +0.001 C 
ATOM     15  C   UNL     1      15.506  -5.004  25.122  0.00  0.00    +0.001 C 
BRANCH   7  18
ATOM     18  C   UNL     1      15.044  -8.258  26.182  0.00  0.00    +0.127 C 
BRANCH  18  27
ATOM      3  O   UNL     1      15.842  -9.944  24.613  0.00  0.00    -0.251 OA
ATOM     27  C   UNL     1      14.952  -9.222  25.036  0.00  0.00    +0.305 C 
BRANCH  27   2
ATOM      2  O   UNL     1      13.701  -9.181  24.513  0.00  0.00    -0.481 OA
ATOM     38  H   UNL     1      13.013  -9.345  25.193  0.00  0.00    +0.295 HD
ENDBRANCH  27   2
ENDBRANCH  18  27
ENDBRANCH   7  18
ENDBRANCH  16   7
ENDBRANCH  23  16
ENDBRANCH  19   4
ENDBRANCH   9  19
BRANCH  13  22
ATOM     22  C   UNL     1      12.000  -7.290  30.747  0.00  0.00    +0.082 C 
BRANCH  22  28
ATOM      5  N   UNL     1      10.477  -9.264  30.948  0.00  0.00    -0.342 N 
ATOM      6  N   UNL     1       9.657  -7.330  31.673  0.00  0.00    -0.232 NA
ATOM     28  C   UNL     1      10.697  -7.928  31.135  0.00  0.00    +0.109 A 
ATOM     29  C   UNL     1       9.211  -9.547  31.394  0.00  0.00    +0.066 A 
ATOM     30  C   UNL     1       8.720  -8.323  31.841  0.00  0.00    +0.092 A 
ATOM     31  C   UNL     1       7.421  -8.259  32.372  0.00  0.00    -0.023 A 
ATOM     32  C   UNL     1       8.476 -10.732  31.444  0.00  0.00    +0.028 A 
ATOM     33  C   UNL     1       6.664  -9.435  32.431  0.00  0.00    +0.005 A 
ATOM     34  C   UNL     1       7.184 -10.649  31.975  0.00  0.00    +0.002 A 
ATOM     35  C   UNL     1       6.821  -6.986  32.873  0.00  0.00    +0.046 C 
ATOM     37  H   UNL     1      11.129  -9.928  30.553  0.00  0.00    +0.167 HD
ENDBRANCH  22  28
ENDBRANCH  13  22
TORSDOF 10
ENDMDL
MODEL 7
REMARK VINA RESULT:       1.9     14.449     19.821
REMARK  Name = 71693202
REMARK  14 active torsions:
REMARK  status: ('A' for Active; 'I' for Inactive)
REMARK    1  A    between atoms: O_2  and  C_27
REMARK    2  A    between atoms: N_4  and  C_19
REMARK    3  A    between atoms: C_7  and  C_16
REMARK    4  A    between atoms: C_7  and  C_18
REMARK    5  A    between atoms: C_8  and  C_17
REMARK    6  A    between atoms: C_9  and  C_19
REMARK    7  A    between atoms: C_13  and  C_22
REMARK    8  A    between atoms: C_16  and  C_23
REMARK    9  A    between atoms: C_17  and  C_24
REMARK   10  A    between atoms: C_17  and  C_25
REMARK   11  A    between atoms: C_18  and  C_27
REMARK   12  A    between atoms: C_20  and  C_26
REMARK   13  A    between atoms: C_22  and  C_28
REMARK   14  A    between atoms: C_31  and  C_35
REMARK                            x       y       z     vdW  Elec       q    Type
REMARK                         _______ _______ _______ _____ _____    ______ ____
ROOT
ATOM      8  C   UNL     1      -2.793  -1.787  24.153  0.00  0.00    +0.000 C 
ATOM      9  C   UNL     1      -3.480  -0.856  25.183  0.00  0.00    +0.032 C 
ATOM     12  C   UNL     1      -1.366  -2.131  24.607  0.00  0.00    +0.012 C 
ATOM     13  C   UNL     1      -0.494  -0.874  24.786  0.00  0.00    +0.022 C 
ATOM     20  C   UNL     1      -1.213   0.204  25.571  0.00  0.00    -0.073 C 
ATOM     21  C   UNL     1      -2.546   0.188  25.749  0.00  0.00    -0.022 C 
ATOM     26  C   UNL     1      -0.359   1.277  26.186  0.00  0.00    +0.039 C 
ENDROOT
BRANCH   8  17
ATOM     17  C   UNL     1      -3.592  -3.076  23.932  0.00  0.00    -0.013 C 
ATOM     24  C   UNL     1      -3.704  -3.862  25.235  0.00  0.00    +0.007 C 
ATOM     25  C   UNL     1      -4.974  -2.756  23.373  0.00  0.00    +0.007 C 
ENDBRANCH   8  17
BRANCH   9  19
ATOM     19  C   UNL     1      -4.706  -0.168  24.575  0.00  0.00    +0.112 C 
BRANCH  19   4
ATOM      1  O   UNL     1      -3.006   1.196  22.672  0.00  0.00    -0.276 OA
ATOM      4  N   UNL     1      -4.493   1.241  24.459  0.00  0.00    -0.315 N 
ATOM     23  C   UNL     1      -3.652   1.821  23.509  0.00  0.00    +0.214 C 
ATOM     36  H   UNL     1      -5.027   1.856  25.068  0.00  0.00    +0.149 HD
BRANCH  23  16
ATOM     16  C   UNL     1      -3.623   3.334  23.620  0.00  0.00    +0.103 C 
BRANCH  16   7
ATOM      7  C   UNL     1      -3.972   3.830  25.029  0.00  0.00    -0.011 C 
ATOM     10  C   UNL     1      -4.955   2.860  25.723  0.00  0.00    +0.008 C 
ATOM     11  C   UNL     1      -4.721   5.182  24.955  0.00  0.00    +0.008 C 
ATOM     14  C   UNL     1      -6.314   3.538  25.633  0.00  0.00    +0.001 C 
ATOM     15  C   UNL     1      -5.973   5.006  25.806  0.00  0.00    +0.001 C 
BRANCH   7  18
ATOM     18  C   UNL     1      -2.681   3.963  25.848  0.00  0.00    +0.127 C 
BRANCH  18  27
ATOM      3  O   UNL     1      -0.777   3.796  24.335  0.00  0.00    -0.251 OA
ATOM     27  C   UNL     1      -1.548   4.468  25.003  0.00  0.00    +0.305 C 
BRANCH  27   2
ATOM      2  O   UNL     1      -1.495   5.821  25.085  0.00  0.00    -0.481 OA
ATOM     38  H   UNL     1      -1.076   6.122  25.920  0.00  0.00    +0.295 HD
ENDBRANCH  27   2
ENDBRANCH  18  27
ENDBRANCH   7  18
ENDBRANCH  16   7
ENDBRANCH  23  16
ENDBRANCH  19   4
ENDBRANCH   9  19
BRANCH  13  22
ATOM     22  C   UNL     1      -0.012  -0.338  23.433  0.00  0.00    +0.082 C 
BRANCH  22  28
ATOM      5  N   UNL     1       2.096   0.953  23.050  0.00  0.00    -0.342 N 
ATOM      6  N   UNL     1       2.356  -1.168  23.658  0.00  0.00    -0.232 NA
ATOM     28  C   UNL     1       1.484  -0.221  23.391  0.00  0.00    +0.109 A 
ATOM     29  C   UNL     1       3.451   0.751  23.100  0.00  0.00    +0.066 A 
ATOM     30  C   UNL     1       3.587  -0.581  23.482  0.00  0.00    +0.092 A 
ATOM     31  C   UNL     1       4.876  -1.123  23.630  0.00  0.00    -0.023 A 
ATOM     32  C   UNL     1       4.536   1.592  22.852  0.00  0.00    +0.028 A 
ATOM     33  C   UNL     1       5.980  -0.297  23.386  0.00  0.00    +0.005 A 
ATOM     34  C   UNL     1       5.811   1.036  23.005  0.00  0.00    +0.002 A 
ATOM     35  C   UNL     1       5.109  -2.542  24.036  0.00  0.00    +0.046 C 
ATOM     37  H   UNL     1       1.633   1.819  22.805  0.00  0.00    +0.167 HD
ENDBRANCH  22  28
ENDBRANCH  13  22
TORSDOF 10
ENDMDL
MODEL 8
REMARK VINA RESULT:       2.3     14.113     18.427
REMARK  Name = 71693202
REMARK  14 active torsions:
REMARK  status: ('A' for Active; 'I' for Inactive)
REMARK    1  A    between atoms: O_2  and  C_27
REMARK    2  A    between atoms: N_4  and  C_19
REMARK    3  A    between atoms: C_7  and  C_16
REMARK    4  A    between atoms: C_7  and  C_18
REMARK    5  A    between atoms: C_8  and  C_17
REMARK    6  A    between atoms: C_9  and  C_19
REMARK    7  A    between atoms: C_13  and  C_22
REMARK    8  A    between atoms: C_16  and  C_23
REMARK    9  A    between atoms: C_17  and  C_24
REMARK   10  A    between atoms: C_17  and  C_25
REMARK   11  A    between atoms: C_18  and  C_27
REMARK   12  A    between atoms: C_20  and  C_26
REMARK   13  A    between atoms: C_22  and  C_28
REMARK   14  A    between atoms: C_31  and  C_35
REMARK                            x       y       z     vdW  Elec       q    Type
REMARK                         _______ _______ _______ _____ _____    ______ ____
ROOT
ATOM      8  C   UNL     1      -2.670   2.303  23.654  0.00  0.00    +0.000 C 
ATOM      9  C   UNL     1      -1.500   2.762  24.560  0.00  0.00    +0.032 C 
ATOM     12  C   UNL     1      -3.738   3.402  23.556  0.00  0.00    +0.012 C 
ATOM     13  C   UNL     1      -4.309   3.783  24.935  0.00  0.00    +0.022 C 
ATOM     20  C   UNL     1      -3.214   3.992  25.961  0.00  0.00    -0.073 C 
ATOM     21  C   UNL     1      -1.962   3.541  25.770  0.00  0.00    -0.022 C 
ATOM     26  C   UNL     1      -3.580   4.773  27.192  0.00  0.00    +0.039 C 
ENDROOT
BRANCH   8  17
ATOM     17  C   UNL     1      -2.186   1.924  22.250  0.00  0.00    -0.013 C 
ATOM     24  C   UNL     1      -2.483   0.455  21.965  0.00  0.00    +0.007 C 
ATOM     25  C   UNL     1      -2.837   2.821  21.203  0.00  0.00    +0.007 C 
ENDBRANCH   8  17
BRANCH   9  19
ATOM     19  C   UNL     1      -0.651   1.571  25.013  0.00  0.00    +0.112 C 
BRANCH  19   4
ATOM      1  O   UNL     1      -0.168  -1.154  24.167  0.00  0.00    -0.276 OA
ATOM      4  N   UNL     1       0.212   1.132  23.962  0.00  0.00    -0.315 N 
ATOM     23  C   UNL     1       0.390  -0.208  23.616  0.00  0.00    +0.214 C 
ATOM     36  H   UNL     1       0.679   1.839  23.401  0.00  0.00    +0.149 HD
BRANCH  23  16
ATOM     16  C   UNL     1       1.362  -0.376  22.462  0.00  0.00    +0.103 C 
BRANCH  16   7
ATOM      7  C   UNL     1       2.822  -0.168  22.885  0.00  0.00    -0.011 C 
ATOM     10  C   UNL     1       2.985   1.165  23.650  0.00  0.00    +0.008 C 
ATOM     11  C   UNL     1       3.730  -0.034  21.639  0.00  0.00    +0.008 C 
ATOM     14  C   UNL     1       3.608   2.126  22.648  0.00  0.00    +0.001 C 
ATOM     15  C   UNL     1       4.547   1.233  21.860  0.00  0.00    +0.001 C 
BRANCH   7  18
ATOM     18  C   UNL     1       3.263  -1.348  23.761  0.00  0.00    +0.127 C 
BRANCH  18  27
ATOM      3  O   UNL     1       5.358  -0.355  24.513  0.00  0.00    -0.251 OA
ATOM     27  C   UNL     1       4.734  -1.296  24.047  0.00  0.00    +0.305 C 
BRANCH  27   2
ATOM      2  O   UNL     1       5.301  -2.481  23.704  0.00  0.00    -0.481 OA
ATOM     38  H   UNL     1       5.765  -2.898  24.462  0.00  0.00    +0.295 HD
ENDBRANCH  27   2
ENDBRANCH  18  27
ENDBRANCH   7  18
ENDBRANCH  16   7
ENDBRANCH  23  16
ENDBRANCH  19   4
ENDBRANCH   9  19
BRANCH  13  22
ATOM     22  C   UNL     1      -5.323   2.740  25.420  0.00  0.00    +0.082 C 
BRANCH  22  28
ATOM      5  N   UNL     1      -5.281   0.506  24.295  0.00  0.00    -0.342 N 
ATOM      6  N   UNL     1      -3.850   0.772  25.975  0.00  0.00    -0.232 NA
ATOM     28  C   UNL     1      -4.793   1.344  25.259  0.00  0.00    +0.109 A 
ATOM     29  C   UNL     1      -4.609  -0.684  24.395  0.00  0.00    +0.066 A 
ATOM     30  C   UNL     1      -3.722  -0.493  25.452  0.00  0.00    +0.092 A 
ATOM     31  C   UNL     1      -2.864  -1.542  25.825  0.00  0.00    -0.023 A 
ATOM     32  C   UNL     1      -4.697  -1.876  23.675  0.00  0.00    +0.028 A 
ATOM     33  C   UNL     1      -2.936  -2.748  25.117  0.00  0.00    +0.005 A 
ATOM     34  C   UNL     1      -3.836  -2.910  24.061  0.00  0.00    +0.002 A 
ATOM     35  C   UNL     1      -1.884  -1.418  26.946  0.00  0.00    +0.046 C 
ATOM     37  H   UNL     1      -6.007   0.724  23.626  0.00  0.00    +0.167 HD
ENDBRANCH  22  28
ENDBRANCH  13  22
TORSDOF 10
ENDMDL
MODEL 9
REMARK VINA RESULT:       2.4     14.165     18.382
REMARK  Name = 71693202
REMARK  14 active torsions:
REMARK  status: ('A' for Active; 'I' for Inactive)
REMARK    1  A    between atoms: O_2  and  C_27
REMARK    2  A    between atoms: N_4  and  C_19
REMARK    3  A    between atoms: C_7  and  C_16
REMARK    4  A    between atoms: C_7  and  C_18
REMARK    5  A    between atoms: C_8  and  C_17
REMARK    6  A    between atoms: C_9  and  C_19
REMARK    7  A    between atoms: C_13  and  C_22
REMARK    8  A    between atoms: C_16  and  C_23
REMARK    9  A    between atoms: C_17  and  C_24
REMARK   10  A    between atoms: C_17  and  C_25
REMARK   11  A    between atoms: C_18  and  C_27
REMARK   12  A    between atoms: C_20  and  C_26
REMARK   13  A    between atoms: C_22  and  C_28
REMARK   14  A    between atoms: C_31  and  C_35
REMARK                            x       y       z     vdW  Elec       q    Type
REMARK                         _______ _______ _______ _____ _____    ______ ____
ROOT
ATOM      8  C   UNL     1      -2.482   2.389  23.845  0.00  0.00    +0.000 C 
ATOM      9  C   UNL     1      -1.409   3.059  24.739  0.00  0.00    +0.032 C 
ATOM     12  C   UNL     1      -3.675   3.334  23.636  0.00  0.00    +0.012 C 
ATOM     13  C   UNL     1      -4.334   3.742  24.967  0.00  0.00    +0.022 C 
ATOM     20  C   UNL     1      -3.308   4.164  25.998  0.00  0.00    -0.073 C 
ATOM     21  C   UNL     1      -2.004   3.862  25.873  0.00  0.00    -0.022 C 
ATOM     26  C   UNL     1      -3.809   4.983  27.155  0.00  0.00    +0.039 C 
ENDROOT
BRANCH   8  17
ATOM     17  C   UNL     1      -1.909   1.969  22.487  0.00  0.00    -0.013 C 
ATOM     24  C   UNL     1      -1.758   0.453  22.420  0.00  0.00    +0.007 C 
ATOM     25  C   UNL     1      -2.798   2.475  21.355  0.00  0.00    +0.007 C 
ENDBRANCH   8  17
BRANCH   9  19
ATOM     19  C   UNL     1      -0.434   2.022  25.304  0.00  0.00    +0.112 C 
BRANCH  19   4
ATOM      1  O   UNL     1       0.946  -0.147  23.976  0.00  0.00    -0.276 OA
ATOM      4  N   UNL     1       0.823   2.083  24.626  0.00  0.00    -0.315 N 
ATOM     23  C   UNL     1       1.423   0.985  24.009  0.00  0.00    +0.214 C 
ATOM     36  H   UNL     1       1.277   2.989  24.543  0.00  0.00    +0.149 HD
BRANCH  23  16
ATOM     16  C   UNL     1       2.750   1.345  23.367  0.00  0.00    +0.103 C 
BRANCH  16   7
ATOM      7  C   UNL     1       3.643   0.120  23.130  0.00  0.00    -0.011 C 
ATOM     10  C   UNL     1       4.205  -0.414  24.467  0.00  0.00    +0.008 C 
ATOM     11  C   UNL     1       4.886   0.512  22.295  0.00  0.00    +0.008 C 
ATOM     14  C   UNL     1       5.647   0.069  24.514  0.00  0.00    +0.001 C 
ATOM     15  C   UNL     1       6.085  -0.028  23.065  0.00  0.00    +0.001 C 
BRANCH   7  18
ATOM     18  C   UNL     1       2.825  -0.966  22.419  0.00  0.00    +0.127 C 
BRANCH  18  27
ATOM      3  O   UNL     1       0.986  -0.692  20.843  0.00  0.00    -0.251 OA
ATOM     27  C   UNL     1       2.116  -0.417  21.217  0.00  0.00    +0.305 C 
BRANCH  27   2
ATOM      2  O   UNL     1       2.930   0.460  20.576  0.00  0.00    -0.481 OA
ATOM     38  H   UNL     1       2.920   1.346  20.999  0.00  0.00    +0.295 HD
ENDBRANCH  27   2
ENDBRANCH  18  27
ENDBRANCH   7  18
ENDBRANCH  16   7
ENDBRANCH  23  16
ENDBRANCH  19   4
ENDBRANCH   9  19
BRANCH  13  22
ATOM     22  C   UNL     1      -5.226   2.619  25.509  0.00  0.00    +0.082 C 
BRANCH  22  28
ATOM      5  N   UNL     1      -5.202   0.360  24.433  0.00  0.00    -0.342 N 
ATOM      6  N   UNL     1      -3.502   0.804  25.794  0.00  0.00    -0.232 NA
ATOM     28  C   UNL     1      -4.614   1.268  25.269  0.00  0.00    +0.109 A 
ATOM     29  C   UNL     1      -4.419  -0.765  24.418  0.00  0.00    +0.066 A 
ATOM     30  C   UNL     1      -3.364  -0.463  25.275  0.00  0.00    +0.092 A 
ATOM     31  C   UNL     1      -2.359  -1.422  25.489  0.00  0.00    -0.023 A 
ATOM     32  C   UNL     1      -4.538  -1.983  23.749  0.00  0.00    +0.028 A 
ATOM     33  C   UNL     1      -2.458  -2.653  24.828  0.00  0.00    +0.005 A 
ATOM     34  C   UNL     1      -3.529  -2.926  23.973  0.00  0.00    +0.002 A 
ATOM     35  C   UNL     1      -1.195  -1.177  26.392  0.00  0.00    +0.046 C 
ATOM     37  H   UNL     1      -6.062   0.492  23.917  0.00  0.00    +0.167 HD
ENDBRANCH  22  28
ENDBRANCH  13  22
TORSDOF 10
ENDMDL
MODEL 10
REMARK VINA RESULT:       2.6     14.736     18.920
REMARK  Name = 71693202
REMARK  14 active torsions:
REMARK  status: ('A' for Active; 'I' for Inactive)
REMARK    1  A    between atoms: O_2  and  C_27
REMARK    2  A    between atoms: N_4  and  C_19
REMARK    3  A    between atoms: C_7  and  C_16
REMARK    4  A    between atoms: C_7  and  C_18
REMARK    5  A    between atoms: C_8  and  C_17
REMARK    6  A    between atoms: C_9  and  C_19
REMARK    7  A    between atoms: C_13  and  C_22
REMARK    8  A    between atoms: C_16  and  C_23
REMARK    9  A    between atoms: C_17  and  C_24
REMARK   10  A    between atoms: C_17  and  C_25
REMARK   11  A    between atoms: C_18  and  C_27
REMARK   12  A    between atoms: C_20  and  C_26
REMARK   13  A    between atoms: C_22  and  C_28
REMARK   14  A    between atoms: C_31  and  C_35
REMARK                            x       y       z     vdW  Elec       q    Type
REMARK                         _______ _______ _______ _____ _____    ______ ____
ROOT
ATOM      8  C   UNL     1      -3.009   2.491  23.814  0.00  0.00    +0.000 C 
ATOM      9  C   UNL     1      -2.603   3.936  24.196  0.00  0.00    +0.032 C 
ATOM     12  C   UNL     1      -4.497   2.432  23.438  0.00  0.00    +0.012 C 
ATOM     13  C   UNL     1      -5.407   2.907  24.587  0.00  0.00    +0.022 C 
ATOM     20  C   UNL     1      -4.913   4.203  25.198  0.00  0.00    -0.073 C 
ATOM     21  C   UNL     1      -3.662   4.653  25.001  0.00  0.00    -0.022 C 
ATOM     26  C   UNL     1      -5.907   4.993  26.003  0.00  0.00    +0.039 C 
ENDROOT
BRANCH   8  17
ATOM     17  C   UNL     1      -2.161   1.949  22.659  0.00  0.00    -0.013 C 
ATOM     24  C   UNL     1      -2.054   0.429  22.745  0.00  0.00    +0.007 C 
ATOM     25  C   UNL     1      -2.753   2.374  21.319  0.00  0.00    +0.007 C 
ENDBRANCH   8  17
BRANCH   9  19
ATOM     19  C   UNL     1      -1.278   3.954  24.964  0.00  0.00    +0.112 C 
BRANCH  19   4
ATOM      1  O   UNL     1       0.500   1.711  25.391  0.00  0.00    -0.276 OA
ATOM      4  N   UNL     1      -0.198   3.534  24.127  0.00  0.00    -0.315 N 
ATOM     23  C   UNL     1       0.615   2.436  24.406  0.00  0.00    +0.214 C 
ATOM     36  H   UNL     1      -0.052   4.032  23.253  0.00  0.00    +0.149 HD
BRANCH  23  16
ATOM     16  C   UNL     1       1.677   2.227  23.342  0.00  0.00    +0.103 C 
BRANCH  16   7
ATOM      7  C   UNL     1       2.178   0.778  23.285  0.00  0.00    -0.011 C 
ATOM     10  C   UNL     1       2.478   0.359  21.828  0.00  0.00    +0.008 C 
ATOM     11  C   UNL     1       1.074  -0.193  23.767  0.00  0.00    +0.008 C 
ATOM     14  C   UNL     1       1.298  -0.506  21.411  0.00  0.00    +0.001 C 
ATOM     15  C   UNL     1       0.963  -1.260  22.684  0.00  0.00    +0.001 C 
BRANCH   7  18
ATOM     18  C   UNL     1       3.438   0.649  24.151  0.00  0.00    +0.127 C 
BRANCH  18  27
ATOM      3  O   UNL     1       5.364   0.129  22.750  0.00  0.00    -0.251 OA
ATOM     27  C   UNL     1       4.464  -0.227  23.496  0.00  0.00    +0.305 C 
BRANCH  27   2
ATOM      2  O   UNL     1       4.251  -1.518  23.858  0.00  0.00    -0.481 OA
ATOM     38  H   UNL     1       3.540  -1.598  24.530  0.00  0.00    +0.295 HD
ENDBRANCH  27   2
ENDBRANCH  18  27
ENDBRANCH   7  18
ENDBRANCH  16   7
ENDBRANCH  23  16
ENDBRANCH  19   4
ENDBRANCH   9  19
BRANCH  13  22
ATOM     22  C   UNL     1      -5.560   1.820  25.657  0.00  0.00    +0.082 C 
BRANCH  22  28
ATOM      5  N   UNL     1      -5.194  -0.358  24.482  0.00  0.00    -0.342 N 
ATOM      6  N   UNL     1      -3.530   0.332  25.784  0.00  0.00    -0.232 NA
ATOM     28  C   UNL     1      -4.732   0.610  25.330  0.00  0.00    +0.109 A 
ATOM     29  C   UNL     1      -4.226  -1.325  24.383  0.00  0.00    +0.066 A 
ATOM     30  C   UNL     1      -3.198  -0.871  25.205  0.00  0.00    +0.092 A 
ATOM     31  C   UNL     1      -2.030  -1.642  25.331  0.00  0.00    -0.023 A 
ATOM     32  C   UNL     1      -4.163  -2.520  23.666  0.00  0.00    +0.028 A 
ATOM     33  C   UNL     1      -1.945  -2.846  24.621  0.00  0.00    +0.005 A 
ATOM     34  C   UNL     1      -2.993  -3.276  23.804  0.00  0.00    +0.002 A 
ATOM     35  C   UNL     1      -0.882  -1.226  26.191  0.00  0.00    +0.046 C 
ATOM     37  H   UNL     1      -6.089  -0.363  24.011  0.00  0.00    +0.167 HD
ENDBRANCH  22  28
ENDBRANCH  13  22
TORSDOF 10
ENDMDL
