MODEL 1
REMARK VINA RESULT:      -7.0      0.000      0.000
REMARK  Name = 40781515
REMARK  7 active torsions:
REMARK  status: ('A' for Active; 'I' for Inactive)
REMARK    1  A    between atoms: O_2  and  C_11
REMARK    2  A    between atoms: O_3  and  C_12
REMARK    3  A    between atoms: N_6  and  C_15
REMARK    4  A    between atoms: C_8  and  C_15
REMARK    5  A    between atoms: C_9  and  C_17
REMARK    6  A    between atoms: C_10  and  C_16
REMARK    7  A    between atoms: C_16  and  C_18
REMARK                            x       y       z     vdW  Elec       q    Type
REMARK                         _______ _______ _______ _____ _____    ______ ____
ROOT
ATOM      1  O   UNL     1       0.429   1.865  23.825  0.00  0.00    -0.366 OA
ATOM      8  C   UNL     1       0.211   0.632  24.533  0.00  0.00    +0.167 C 
ATOM     10  C   UNL     1      -0.025   2.965  24.646  0.00  0.00    +0.159 C 
ATOM     11  C   UNL     1      -0.796   0.958  25.624  0.00  0.00    +0.176 C 
ATOM     12  C   UNL     1      -0.391   2.368  26.000  0.00  0.00    +0.175 C 
ENDROOT
BRANCH  11   2
ATOM      2  O   UNL     1      -0.724   0.048  26.700  0.00  0.00    -0.387 OA
ATOM     24  H   UNL     1      -0.849   0.556  27.520  0.00  0.00    +0.210 HD
ENDBRANCH  11   2
BRANCH  12   3
ATOM      3  O   UNL     1       0.786   2.346  26.807  0.00  0.00    -0.387 OA
ATOM     25  H   UNL     1       0.941   3.254  27.118  0.00  0.00    +0.210 HD
ENDBRANCH  12   3
BRANCH   8  15
ATOM     15  C   UNL     1      -0.272  -0.436  23.567  0.00  0.00    +0.138 C 
BRANCH  15   6
ATOM      4  O   UNL     1      -1.050  -2.732  25.172  0.00  0.00    -0.276 OA
ATOM      6  N   UNL     1      -1.600  -0.865  23.890  0.00  0.00    -0.313 N 
ATOM     17  C   UNL     1      -1.877  -1.981  24.669  0.00  0.00    +0.216 C 
ATOM     23  H   UNL     1      -2.375  -0.313  23.535  0.00  0.00    +0.149 HD
BRANCH  17   9
ATOM      9  C   UNL     1      -3.331  -2.241  24.879  0.00  0.00    +0.075 C 
ATOM     13  C   UNL     1      -4.327  -1.613  23.948  0.00  0.00    +0.013 C 
ATOM     14  C   UNL     1      -4.072  -3.090  23.888  0.00  0.00    +0.013 C 
ENDBRANCH  17   9
ENDBRANCH  15   6
ENDBRANCH   8  15
BRANCH  10  16
ATOM     16  C   UNL     1      -1.208   3.614  23.941  0.00  0.00    +0.130 C 
BRANCH  16  18
ATOM      5  O   UNL     1      -1.969   5.069  25.667  0.00  0.00    -0.276 OA
ATOM      7  N   UNL     1      -3.402   3.384  24.998  0.00  0.00    -0.301 N 
ATOM     18  C   UNL     1      -2.219   4.099  24.948  0.00  0.00    +0.218 C 
ATOM     19  C   UNL     1      -4.476   3.722  25.920  0.00  0.00    +0.108 C 
ATOM     20  C   UNL     1      -3.761   2.235  24.174  0.00  0.00    +0.108 C 
ATOM     21  C   UNL     1      -5.671   2.923  25.422  0.00  0.00    +0.020 C 
ATOM     22  C   UNL     1      -5.021   1.680  24.825  0.00  0.00    +0.020 C 
ENDBRANCH  16  18
ENDBRANCH  10  16
TORSDOF 7
ENDMDL
MODEL 2
REMARK VINA RESULT:      -6.3      2.503      4.360
REMARK  Name = 40781515
REMARK  7 active torsions:
REMARK  status: ('A' for Active; 'I' for Inactive)
REMARK    1  A    between atoms: O_2  and  C_11
REMARK    2  A    between atoms: O_3  and  C_12
REMARK    3  A    between atoms: N_6  and  C_15
REMARK    4  A    between atoms: C_8  and  C_15
REMARK    5  A    between atoms: C_9  and  C_17
REMARK    6  A    between atoms: C_10  and  C_16
REMARK    7  A    between atoms: C_16  and  C_18
REMARK                            x       y       z     vdW  Elec       q    Type
REMARK                         _______ _______ _______ _____ _____    ______ ____
ROOT
ATOM      1  O   UNL     1       0.481   1.397  24.409  0.00  0.00    -0.366 OA
ATOM      8  C   UNL     1       0.509   0.016  24.006  0.00  0.00    +0.167 C 
ATOM     10  C   UNL     1      -0.773   1.668  25.074  0.00  0.00    +0.159 C 
ATOM     11  C   UNL     1      -0.938  -0.449  24.039  0.00  0.00    +0.176 C 
ATOM     12  C   UNL     1      -1.479   0.324  25.224  0.00  0.00    +0.175 C 
ENDROOT
BRANCH  11   2
ATOM      2  O   UNL     1      -1.040  -1.848  24.190  0.00  0.00    -0.387 OA
ATOM     24  H   UNL     1      -1.799  -2.024  24.773  0.00  0.00    +0.210 HD
ENDBRANCH  11   2
BRANCH  12   3
ATOM      3  O   UNL     1      -1.043  -0.272  26.445  0.00  0.00    -0.387 OA
ATOM     25  H   UNL     1      -1.288   0.332  27.167  0.00  0.00    +0.210 HD
ENDBRANCH  12   3
BRANCH   8  15
ATOM     15  C   UNL     1       1.148  -0.104  22.634  0.00  0.00    +0.138 C 
BRANCH  15   6
ATOM      4  O   UNL     1       3.308   1.822  22.915  0.00  0.00    -0.276 OA
ATOM      6  N   UNL     1       2.551  -0.375  22.738  0.00  0.00    -0.313 N 
ATOM     17  C   UNL     1       3.516   0.616  22.871  0.00  0.00    +0.216 C 
ATOM     23  H   UNL     1       2.848  -1.346  22.722  0.00  0.00    +0.149 HD
BRANCH  17   9
ATOM      9  C   UNL     1       4.915   0.105  22.963  0.00  0.00    +0.075 C 
ATOM     13  C   UNL     1       5.741   0.455  24.166  0.00  0.00    +0.013 C 
ATOM     14  C   UNL     1       5.242  -0.948  23.982  0.00  0.00    +0.013 C 
ENDBRANCH  17   9
ENDBRANCH  15   6
ENDBRANCH   8  15
BRANCH  10  16
ATOM     16  C   UNL     1      -1.551   2.658  24.218  0.00  0.00    +0.130 C 
BRANCH  16  18
ATOM      5  O   UNL     1      -2.080   4.480  25.657  0.00  0.00    -0.276 OA
ATOM      7  N   UNL     1      -3.786   3.005  25.150  0.00  0.00    -0.301 N 
ATOM     18  C   UNL     1      -2.485   3.473  25.074  0.00  0.00    +0.218 C 
ATOM     19  C   UNL     1      -4.807   3.676  25.940  0.00  0.00    +0.108 C 
ATOM     20  C   UNL     1      -4.328   1.827  24.483  0.00  0.00    +0.108 C 
ATOM     21  C   UNL     1      -6.114   3.043  25.487  0.00  0.00    +0.020 C 
ATOM     22  C   UNL     1      -5.695   1.624  25.123  0.00  0.00    +0.020 C 
ENDBRANCH  16  18
ENDBRANCH  10  16
TORSDOF 7
ENDMDL
MODEL 3
REMARK VINA RESULT:      -6.2      2.774      4.662
REMARK  Name = 40781515
REMARK  7 active torsions:
REMARK  status: ('A' for Active; 'I' for Inactive)
REMARK    1  A    between atoms: O_2  and  C_11
REMARK    2  A    between atoms: O_3  and  C_12
REMARK    3  A    between atoms: N_6  and  C_15
REMARK    4  A    between atoms: C_8  and  C_15
REMARK    5  A    between atoms: C_9  and  C_17
REMARK    6  A    between atoms: C_10  and  C_16
REMARK    7  A    between atoms: C_16  and  C_18
REMARK                            x       y       z     vdW  Elec       q    Type
REMARK                         _______ _______ _______ _____ _____    ______ ____
ROOT
ATOM      1  O   UNL     1      -0.015   1.642  23.485  0.00  0.00    -0.366 OA
ATOM      8  C   UNL     1       0.640   0.404  23.814  0.00  0.00    +0.167 C 
ATOM     10  C   UNL     1      -1.257   1.727  24.220  0.00  0.00    +0.159 C 
ATOM     11  C   UNL     1      -0.436  -0.478  24.425  0.00  0.00    +0.176 C 
ATOM     12  C   UNL     1      -1.274   0.537  25.173  0.00  0.00    +0.175 C 
ENDROOT
BRANCH  11   2
ATOM      2  O   UNL     1       0.110  -1.478  25.259  0.00  0.00    -0.387 OA
ATOM     24  H   UNL     1       0.901  -1.829  24.814  0.00  0.00    +0.210 HD
ENDBRANCH  11   2
BRANCH  12   3
ATOM      3  O   UNL     1      -0.617   0.927  26.379  0.00  0.00    -0.387 OA
ATOM     25  H   UNL     1      -1.308   1.093  27.045  0.00  0.00    +0.210 HD
ENDBRANCH  12   3
BRANCH   8  15
ATOM     15  C   UNL     1       1.269  -0.190  22.565  0.00  0.00    +0.138 C 
BRANCH  15   6
ATOM      4  O   UNL     1       3.362   1.805  22.868  0.00  0.00    -0.276 OA
ATOM      6  N   UNL     1       2.671  -0.417  22.749  0.00  0.00    -0.313 N 
ATOM     17  C   UNL     1       3.602   0.604  22.886  0.00  0.00    +0.216 C 
ATOM     23  H   UNL     1       2.993  -1.380  22.789  0.00  0.00    +0.149 HD
BRANCH  17   9
ATOM      9  C   UNL     1       5.008   0.137  23.069  0.00  0.00    +0.075 C 
ATOM     13  C   UNL     1       5.737   0.493  24.331  0.00  0.00    +0.013 C 
ATOM     14  C   UNL     1       5.297  -0.922  24.093  0.00  0.00    +0.013 C 
ENDBRANCH  17   9
ENDBRANCH  15   6
ENDBRANCH   8  15
BRANCH  10  16
ATOM     16  C   UNL     1      -2.397   1.698  23.211  0.00  0.00    +0.130 C 
BRANCH  16  18
ATOM      5  O   UNL     1      -3.887  -0.113  23.628  0.00  0.00    -0.276 OA
ATOM      7  N   UNL     1      -4.406   1.923  24.589  0.00  0.00    -0.301 N 
ATOM     18  C   UNL     1      -3.625   1.075  23.823  0.00  0.00    +0.218 C 
ATOM     19  C   UNL     1      -5.626   1.476  25.243  0.00  0.00    +0.108 C 
ATOM     20  C   UNL     1      -4.150   3.333  24.862  0.00  0.00    +0.108 C 
ATOM     21  C   UNL     1      -5.970   2.597  26.213  0.00  0.00    +0.020 C 
ATOM     22  C   UNL     1      -5.437   3.835  25.502  0.00  0.00    +0.020 C 
ENDBRANCH  16  18
ENDBRANCH  10  16
TORSDOF 7
ENDMDL
MODEL 4
REMARK VINA RESULT:      -6.1      1.294      4.953
REMARK  Name = 40781515
REMARK  7 active torsions:
REMARK  status: ('A' for Active; 'I' for Inactive)
REMARK    1  A    between atoms: O_2  and  C_11
REMARK    2  A    between atoms: O_3  and  C_12
REMARK    3  A    between atoms: N_6  and  C_15
REMARK    4  A    between atoms: C_8  and  C_15
REMARK    5  A    between atoms: C_9  and  C_17
REMARK    6  A    between atoms: C_10  and  C_16
REMARK    7  A    between atoms: C_16  and  C_18
REMARK                            x       y       z     vdW  Elec       q    Type
REMARK                         _______ _______ _______ _____ _____    ______ ____
ROOT
ATOM      1  O   UNL     1      -0.116   2.381  25.294  0.00  0.00    -0.366 OA
ATOM      8  C   UNL     1      -0.785   3.087  24.235  0.00  0.00    +0.167 C 
ATOM     10  C   UNL     1      -0.028   0.981  24.945  0.00  0.00    +0.159 C 
ATOM     11  C   UNL     1      -1.506   2.022  23.425  0.00  0.00    +0.176 C 
ATOM     12  C   UNL     1      -0.534   0.864  23.511  0.00  0.00    +0.175 C 
ENDROOT
BRANCH  11   2
ATOM      2  O   UNL     1      -1.759   2.444  22.102  0.00  0.00    -0.387 OA
ATOM     24  H   UNL     1      -2.223   1.719  21.649  0.00  0.00    +0.210 HD
ENDBRANCH  11   2
BRANCH  12   3
ATOM      3  O   UNL     1       0.570   1.078  22.633  0.00  0.00    -0.387 OA
ATOM     25  H   UNL     1       1.381   1.032  23.169  0.00  0.00    +0.210 HD
ENDBRANCH  12   3
BRANCH   8  15
ATOM     15  C   UNL     1      -1.718   4.130  24.824  0.00  0.00    +0.138 C 
BRANCH  15   6
ATOM      4  O   UNL     1      -3.727   4.170  26.926  0.00  0.00    -0.276 OA
ATOM      6  N   UNL     1      -3.086   3.713  24.733  0.00  0.00    -0.313 N 
ATOM     17  C   UNL     1      -3.978   3.769  25.796  0.00  0.00    +0.216 C 
ATOM     23  H   UNL     1      -3.416   3.367  23.837  0.00  0.00    +0.149 HD
BRANCH  17   9
ATOM      9  C   UNL     1      -5.352   3.284  25.474  0.00  0.00    +0.075 C 
ATOM     13  C   UNL     1      -5.513   2.075  24.600  0.00  0.00    +0.013 C 
ATOM     14  C   UNL     1      -5.826   1.989  26.065  0.00  0.00    +0.013 C 
ENDBRANCH  17   9
ENDBRANCH  15   6
ENDBRANCH   8  15
BRANCH  10  16
ATOM     16  C   UNL     1      -0.872   0.199  25.942  0.00  0.00    +0.130 C 
BRANCH  16  18
ATOM      5  O   UNL     1      -0.068  -2.021  25.625  0.00  0.00    -0.276 OA
ATOM      7  N   UNL     1      -2.237  -1.579  24.962  0.00  0.00    -0.301 N 
ATOM     18  C   UNL     1      -1.010  -1.236  25.501  0.00  0.00    +0.218 C 
ATOM     19  C   UNL     1      -2.527  -2.923  24.485  0.00  0.00    +0.108 C 
ATOM     20  C   UNL     1      -3.391  -0.703  24.793  0.00  0.00    +0.108 C 
ATOM     21  C   UNL     1      -4.036  -2.941  24.294  0.00  0.00    +0.020 C 
ATOM     22  C   UNL     1      -4.347  -1.499  23.915  0.00  0.00    +0.020 C 
ENDBRANCH  16  18
ENDBRANCH  10  16
TORSDOF 7
ENDMDL
MODEL 5
REMARK VINA RESULT:      -5.7      2.018      4.638
REMARK  Name = 40781515
REMARK  7 active torsions:
REMARK  status: ('A' for Active; 'I' for Inactive)
REMARK    1  A    between atoms: O_2  and  C_11
REMARK    2  A    between atoms: O_3  and  C_12
REMARK    3  A    between atoms: N_6  and  C_15
REMARK    4  A    between atoms: C_8  and  C_15
REMARK    5  A    between atoms: C_9  and  C_17
REMARK    6  A    between atoms: C_10  and  C_16
REMARK    7  A    between atoms: C_16  and  C_18
REMARK                            x       y       z     vdW  Elec       q    Type
REMARK                         _______ _______ _______ _____ _____    ______ ____
ROOT
ATOM      1  O   UNL     1      -3.031  -0.318  25.917  0.00  0.00    -0.366 OA
ATOM      8  C   UNL     1      -1.835  -1.020  25.537  0.00  0.00    +0.167 C 
ATOM     10  C   UNL     1      -4.123  -0.762  25.080  0.00  0.00    +0.159 C 
ATOM     11  C   UNL     1      -2.112  -1.581  24.152  0.00  0.00    +0.176 C 
ATOM     12  C   UNL     1      -3.584  -1.923  24.251  0.00  0.00    +0.175 C 
ENDROOT
BRANCH  11   2
ATOM      2  O   UNL     1      -1.297  -2.696  23.860  0.00  0.00    -0.387 OA
ATOM     24  H   UNL     1      -0.413  -2.360  23.632  0.00  0.00    +0.210 HD
ENDBRANCH  11   2
BRANCH  12   3
ATOM      3  O   UNL     1      -3.764  -3.124  25.000  0.00  0.00    -0.387 OA
ATOM     25  H   UNL     1      -4.374  -2.921  25.731  0.00  0.00    +0.210 HD
ENDBRANCH  12   3
BRANCH   8  15
ATOM     15  C   UNL     1      -0.650  -0.071  25.575  0.00  0.00    +0.138 C 
BRANCH  15   6
ATOM      4  O   UNL     1       0.968   1.856  24.117  0.00  0.00    -0.276 OA
ATOM      6  N   UNL     1       0.258  -0.331  24.498  0.00  0.00    -0.313 N 
ATOM     17  C   UNL     1       0.993   0.659  23.858  0.00  0.00    +0.216 C 
ATOM     23  H   UNL     1       0.372  -1.294  24.197  0.00  0.00    +0.149 HD
BRANCH  17   9
ATOM      9  C   UNL     1       1.877   0.160  22.764  0.00  0.00    +0.075 C 
ATOM     13  C   UNL     1       3.219   0.800  22.561  0.00  0.00    +0.013 C 
ATOM     14  C   UNL     1       3.128  -0.589  23.121  0.00  0.00    +0.013 C 
ENDBRANCH  17   9
ENDBRANCH  15   6
ENDBRANCH   8  15
BRANCH  10  16
ATOM     16  C   UNL     1      -4.571   0.420  24.231  0.00  0.00    +0.130 C 
BRANCH  16  18
ATOM      5  O   UNL     1      -5.846   1.738  25.752  0.00  0.00    -0.276 OA
ATOM      7  N   UNL     1      -3.796   2.575  25.092  0.00  0.00    -0.301 N 
ATOM     18  C   UNL     1      -4.806   1.630  25.099  0.00  0.00    +0.218 C 
ATOM     19  C   UNL     1      -3.874   3.801  25.872  0.00  0.00    +0.108 C 
ATOM     20  C   UNL     1      -2.543   2.506  24.348  0.00  0.00    +0.108 C 
ATOM     21  C   UNL     1      -2.462   4.366  25.835  0.00  0.00    +0.020 C 
ATOM     22  C   UNL     1      -1.946   3.901  24.479  0.00  0.00    +0.020 C 
ENDBRANCH  16  18
ENDBRANCH  10  16
TORSDOF 7
ENDMDL
MODEL 6
REMARK VINA RESULT:      -5.6      2.715      4.910
REMARK  Name = 40781515
REMARK  7 active torsions:
REMARK  status: ('A' for Active; 'I' for Inactive)
REMARK    1  A    between atoms: O_2  and  C_11
REMARK    2  A    between atoms: O_3  and  C_12
REMARK    3  A    between atoms: N_6  and  C_15
REMARK    4  A    between atoms: C_8  and  C_15
REMARK    5  A    between atoms: C_9  and  C_17
REMARK    6  A    between atoms: C_10  and  C_16
REMARK    7  A    between atoms: C_16  and  C_18
REMARK                            x       y       z     vdW  Elec       q    Type
REMARK                         _______ _______ _______ _____ _____    ______ ____
ROOT
ATOM      1  O   UNL     1      -1.033   2.433  23.139  0.00  0.00    -0.366 OA
ATOM      8  C   UNL     1      -0.033   2.001  24.078  0.00  0.00    +0.167 C 
ATOM     10  C   UNL     1      -2.235   2.785  23.861  0.00  0.00    +0.159 C 
ATOM     11  C   UNL     1      -0.786   1.668  25.355  0.00  0.00    +0.176 C 
ATOM     12  C   UNL     1      -1.882   2.713  25.343  0.00  0.00    +0.175 C 
ENDROOT
BRANCH  11   2
ATOM      2  O   UNL     1       0.044   1.740  26.494  0.00  0.00    -0.387 OA
ATOM     24  H   UNL     1       0.212   2.682  26.673  0.00  0.00    +0.210 HD
ENDBRANCH  11   2
BRANCH  12   3
ATOM      3  O   UNL     1      -1.360   3.982  25.737  0.00  0.00    -0.387 OA
ATOM     25  H   UNL     1      -0.707   3.821  26.439  0.00  0.00    +0.210 HD
ENDBRANCH  12   3
BRANCH   8  15
ATOM     15  C   UNL     1       0.732   0.820  23.505  0.00  0.00    +0.138 C 
BRANCH  15   6
ATOM      4  O   UNL     1       2.761  -0.055  21.616  0.00  0.00    -0.276 OA
ATOM      6  N   UNL     1       2.146   1.031  23.584  0.00  0.00    -0.313 N 
ATOM     17  C   UNL     1       3.045   0.574  22.629  0.00  0.00    +0.216 C 
ATOM     23  H   UNL     1       2.504   1.551  24.380  0.00  0.00    +0.149 HD
BRANCH  17   9
ATOM      9  C   UNL     1       4.471   0.908  22.913  0.00  0.00    +0.075 C 
ATOM     13  C   UNL     1       5.070   0.495  24.226  0.00  0.00    +0.013 C 
ATOM     14  C   UNL     1       5.485  -0.199  22.961  0.00  0.00    +0.013 C 
ENDBRANCH  17   9
ENDBRANCH  15   6
ENDBRANCH   8  15
BRANCH  10  16
ATOM     16  C   UNL     1      -3.325   1.801  23.458  0.00  0.00    +0.130 C 
BRANCH  16  18
ATOM      5  O   UNL     1      -4.566   1.593  25.481  0.00  0.00    -0.276 OA
ATOM      7  N   UNL     1      -3.384  -0.262  24.772  0.00  0.00    -0.301 N 
ATOM     18  C   UNL     1      -3.823   1.046  24.664  0.00  0.00    +0.218 C 
ATOM     19  C   UNL     1      -3.771  -1.121  25.881  0.00  0.00    +0.108 C 
ATOM     20  C   UNL     1      -2.511  -0.967  23.840  0.00  0.00    +0.108 C 
ATOM     21  C   UNL     1      -3.354  -2.517  25.442  0.00  0.00    +0.020 C 
ATOM     22  C   UNL     1      -2.132  -2.248  24.572  0.00  0.00    +0.020 C 
ENDBRANCH  16  18
ENDBRANCH  10  16
TORSDOF 7
ENDMDL
MODEL 7
REMARK VINA RESULT:      -5.4      1.684      4.511
REMARK  Name = 40781515
REMARK  7 active torsions:
REMARK  status: ('A' for Active; 'I' for Inactive)
REMARK    1  A    between atoms: O_2  and  C_11
REMARK    2  A    between atoms: O_3  and  C_12
REMARK    3  A    between atoms: N_6  and  C_15
REMARK    4  A    between atoms: C_8  and  C_15
REMARK    5  A    between atoms: C_9  and  C_17
REMARK    6  A    between atoms: C_10  and  C_16
REMARK    7  A    between atoms: C_16  and  C_18
REMARK                            x       y       z     vdW  Elec       q    Type
REMARK                         _______ _______ _______ _____ _____    ______ ____
ROOT
ATOM      1  O   UNL     1      -2.669  -0.325  25.430  0.00  0.00    -0.366 OA
ATOM      8  C   UNL     1      -1.512  -1.174  25.330  0.00  0.00    +0.167 C 
ATOM     10  C   UNL     1      -3.787  -0.975  24.784  0.00  0.00    +0.159 C 
ATOM     11  C   UNL     1      -1.825  -2.164  24.220  0.00  0.00    +0.176 C 
ATOM     12  C   UNL     1      -3.313  -2.375  24.412  0.00  0.00    +0.175 C 
ENDROOT
BRANCH  11   2
ATOM      2  O   UNL     1      -1.071  -3.351  24.341  0.00  0.00    -0.387 OA
ATOM     24  H   UNL     1      -1.537  -4.044  23.842  0.00  0.00    +0.210 HD
ENDBRANCH  11   2
BRANCH  12   3
ATOM      3  O   UNL     1      -3.551  -3.234  25.527  0.00  0.00    -0.387 OA
ATOM     25  H   UNL     1      -2.761  -3.792  25.637  0.00  0.00    +0.210 HD
ENDBRANCH  12   3
BRANCH   8  15
ATOM     15  C   UNL     1      -0.280  -0.331  25.054  0.00  0.00    +0.138 C 
BRANCH  15   6
ATOM      4  O   UNL     1       0.700   2.151  23.900  0.00  0.00    -0.276 OA
ATOM      6  N   UNL     1      -0.431   0.994  25.577  0.00  0.00    -0.313 N 
ATOM     17  C   UNL     1       0.074   2.128  24.953  0.00  0.00    +0.216 C 
ATOM     23  H   UNL     1      -0.943   1.105  26.447  0.00  0.00    +0.149 HD
BRANCH  17   9
ATOM      9  C   UNL     1      -0.202   3.404  25.674  0.00  0.00    +0.075 C 
ATOM     13  C   UNL     1      -0.762   4.569  24.910  0.00  0.00    +0.013 C 
ATOM     14  C   UNL     1      -1.626   3.828  25.888  0.00  0.00    +0.013 C 
ENDBRANCH  17   9
ENDBRANCH  15   6
ENDBRANCH   8  15
BRANCH  10  16
ATOM     16  C   UNL     1      -4.177  -0.136  23.574  0.00  0.00    +0.130 C 
BRANCH  16  18
ATOM      5  O   UNL     1      -2.710   1.708  23.223  0.00  0.00    -0.276 OA
ATOM      7  N   UNL     1      -4.556   2.068  24.566  0.00  0.00    -0.301 N 
ATOM     18  C   UNL     1      -3.738   1.293  23.762  0.00  0.00    +0.218 C 
ATOM     19  C   UNL     1      -4.267   3.466  24.849  0.00  0.00    +0.108 C 
ATOM     20  C   UNL     1      -5.785   1.641  25.226  0.00  0.00    +0.108 C 
ATOM     21  C   UNL     1      -5.550   4.000  25.470  0.00  0.00    +0.020 C 
ATOM     22  C   UNL     1      -6.115   2.778  26.184  0.00  0.00    +0.020 C 
ENDBRANCH  16  18
ENDBRANCH  10  16
TORSDOF 7
ENDMDL
MODEL 8
REMARK VINA RESULT:      -5.3      2.427      4.429
REMARK  Name = 40781515
REMARK  7 active torsions:
REMARK  status: ('A' for Active; 'I' for Inactive)
REMARK    1  A    between atoms: O_2  and  C_11
REMARK    2  A    between atoms: O_3  and  C_12
REMARK    3  A    between atoms: N_6  and  C_15
REMARK    4  A    between atoms: C_8  and  C_15
REMARK    5  A    between atoms: C_9  and  C_17
REMARK    6  A    between atoms: C_10  and  C_16
REMARK    7  A    between atoms: C_16  and  C_18
REMARK                            x       y       z     vdW  Elec       q    Type
REMARK                         _______ _______ _______ _____ _____    ______ ____
ROOT
ATOM      1  O   UNL     1      -3.799   1.691  25.479  0.00  0.00    -0.366 OA
ATOM      8  C   UNL     1      -4.966   0.908  25.175  0.00  0.00    +0.167 C 
ATOM     10  C   UNL     1      -4.180   3.081  25.589  0.00  0.00    +0.159 C 
ATOM     11  C   UNL     1      -5.999   1.896  24.659  0.00  0.00    +0.176 C 
ATOM     12  C   UNL     1      -5.702   3.117  25.505  0.00  0.00    +0.175 C 
ENDROOT
BRANCH  11   2
ATOM      2  O   UNL     1      -7.316   1.415  24.815  0.00  0.00    -0.387 OA
ATOM     24  H   UNL     1      -7.919   2.093  24.463  0.00  0.00    +0.210 HD
ENDBRANCH  11   2
BRANCH  12   3
ATOM      3  O   UNL     1      -6.223   2.944  26.823  0.00  0.00    -0.387 OA
ATOM     25  H   UNL     1      -7.193   2.977  26.758  0.00  0.00    +0.210 HD
ENDBRANCH  12   3
BRANCH   8  15
ATOM     15  C   UNL     1      -4.611  -0.172  24.169  0.00  0.00    +0.138 C 
BRANCH  15   6
ATOM      4  O   UNL     1      -3.797  -2.950  24.444  0.00  0.00    -0.276 OA
ATOM      6  N   UNL     1      -3.289  -0.676  24.394  0.00  0.00    -0.313 N 
ATOM     17  C   UNL     1      -2.993  -2.028  24.513  0.00  0.00    +0.216 C 
ATOM     23  H   UNL     1      -2.531  -0.003  24.461  0.00  0.00    +0.149 HD
BRANCH  17   9
ATOM      9  C   UNL     1      -1.549  -2.325  24.744  0.00  0.00    +0.075 C 
ATOM     13  C   UNL     1      -0.513  -1.419  24.146  0.00  0.00    +0.013 C 
ATOM     14  C   UNL     1      -0.749  -1.414  25.629  0.00  0.00    +0.013 C 
ENDBRANCH  17   9
ENDBRANCH  15   6
ENDBRANCH   8  15
BRANCH  10  16
ATOM     16  C   UNL     1      -3.502   3.841  24.457  0.00  0.00    +0.130 C 
BRANCH  16  18
ATOM      5  O   UNL     1      -3.002   2.471  22.574  0.00  0.00    -0.276 OA
ATOM      7  N   UNL     1      -1.395   2.620  24.228  0.00  0.00    -0.301 N 
ATOM     18  C   UNL     1      -2.620   2.917  23.657  0.00  0.00    +0.218 C 
ATOM     19  C   UNL     1      -0.432   1.738  23.585  0.00  0.00    +0.108 C 
ATOM     20  C   UNL     1      -0.883   3.117  25.500  0.00  0.00    +0.108 C 
ATOM     21  C   UNL     1       0.857   1.950  24.364  0.00  0.00    +0.020 C 
ATOM     22  C   UNL     1       0.356   2.272  25.767  0.00  0.00    +0.020 C 
ENDBRANCH  16  18
ENDBRANCH  10  16
TORSDOF 7
ENDMDL
MODEL 9
REMARK VINA RESULT:      -5.2      1.519      2.247
REMARK  Name = 40781515
REMARK  7 active torsions:
REMARK  status: ('A' for Active; 'I' for Inactive)
REMARK    1  A    between atoms: O_2  and  C_11
REMARK    2  A    between atoms: O_3  and  C_12
REMARK    3  A    between atoms: N_6  and  C_15
REMARK    4  A    between atoms: C_8  and  C_15
REMARK    5  A    between atoms: C_9  and  C_17
REMARK    6  A    between atoms: C_10  and  C_16
REMARK    7  A    between atoms: C_16  and  C_18
REMARK                            x       y       z     vdW  Elec       q    Type
REMARK                         _______ _______ _______ _____ _____    ______ ____
ROOT
ATOM      1  O   UNL     1      -1.225   0.408  24.067  0.00  0.00    -0.366 OA
ATOM      8  C   UNL     1      -0.593   0.512  25.354  0.00  0.00    +0.167 C 
ATOM     10  C   UNL     1      -0.881   1.570  23.279  0.00  0.00    +0.159 C 
ATOM     11  C   UNL     1      -0.214   1.976  25.508  0.00  0.00    +0.176 C 
ATOM     12  C   UNL     1       0.154   2.346  24.086  0.00  0.00    +0.175 C 
ENDROOT
BRANCH  11   2
ATOM      2  O   UNL     1       0.843   2.157  26.424  0.00  0.00    -0.387 OA
ATOM     24  H   UNL     1       0.838   1.396  27.030  0.00  0.00    +0.210 HD
ENDBRANCH  11   2
BRANCH  12   3
ATOM      3  O   UNL     1       1.445   1.832  23.760  0.00  0.00    -0.387 OA
ATOM     25  H   UNL     1       2.103   2.464  24.099  0.00  0.00    +0.210 HD
ENDBRANCH  12   3
BRANCH   8  15
ATOM     15  C   UNL     1      -1.542   0.020  26.433  0.00  0.00    +0.138 C 
BRANCH  15   6
ATOM      4  O   UNL     1      -1.253  -2.642  25.300  0.00  0.00    -0.276 OA
ATOM      6  N   UNL     1      -2.571  -0.809  25.878  0.00  0.00    -0.313 N 
ATOM     17  C   UNL     1      -2.338  -2.075  25.357  0.00  0.00    +0.216 C 
ATOM     23  H   UNL     1      -3.520  -0.449  25.878  0.00  0.00    +0.149 HD
BRANCH  17   9
ATOM      9  C   UNL     1      -3.556  -2.761  24.835  0.00  0.00    +0.075 C 
ATOM     13  C   UNL     1      -4.466  -2.019  23.899  0.00  0.00    +0.013 C 
ATOM     14  C   UNL     1      -3.613  -3.141  23.384  0.00  0.00    +0.013 C 
ENDBRANCH  17   9
ENDBRANCH  15   6
ENDBRANCH   8  15
BRANCH  10  16
ATOM     16  C   UNL     1      -2.160   2.360  23.032  0.00  0.00    +0.130 C 
BRANCH  16  18
ATOM      5  O   UNL     1      -3.554   0.429  23.057  0.00  0.00    -0.276 OA
ATOM      7  N   UNL     1      -4.199   2.213  24.376  0.00  0.00    -0.301 N 
ATOM     18  C   UNL     1      -3.361   1.569  23.483  0.00  0.00    +0.218 C 
ATOM     19  C   UNL     1      -5.403   1.587  24.901  0.00  0.00    +0.108 C 
ATOM     20  C   UNL     1      -4.026   3.556  24.920  0.00  0.00    +0.108 C 
ATOM     21  C   UNL     1      -5.823   2.481  26.058  0.00  0.00    +0.020 C 
ATOM     22  C   UNL     1      -5.349   3.859  25.611  0.00  0.00    +0.020 C 
ENDBRANCH  16  18
ENDBRANCH  10  16
TORSDOF 7
ENDMDL
MODEL 10
REMARK VINA RESULT:      -5.2      1.807      4.635
REMARK  Name = 40781515
REMARK  7 active torsions:
REMARK  status: ('A' for Active; 'I' for Inactive)
REMARK    1  A    between atoms: O_2  and  C_11
REMARK    2  A    between atoms: O_3  and  C_12
REMARK    3  A    between atoms: N_6  and  C_15
REMARK    4  A    between atoms: C_8  and  C_15
REMARK    5  A    between atoms: C_9  and  C_17
REMARK    6  A    between atoms: C_10  and  C_16
REMARK    7  A    between atoms: C_16  and  C_18
REMARK                            x       y       z     vdW  Elec       q    Type
REMARK                         _______ _______ _______ _____ _____    ______ ____
ROOT
ATOM      1  O   UNL     1      -2.569  -0.591  25.707  0.00  0.00    -0.366 OA
ATOM      8  C   UNL     1      -1.507  -1.408  25.184  0.00  0.00    +0.167 C 
ATOM     10  C   UNL     1      -3.833  -1.090  25.214  0.00  0.00    +0.159 C 
ATOM     11  C   UNL     1      -2.106  -2.150  24.000  0.00  0.00    +0.176 C 
ATOM     12  C   UNL     1      -3.524  -2.388  24.476  0.00  0.00    +0.175 C 
ENDROOT
BRANCH  11   2
ATOM      2  O   UNL     1      -1.405  -3.340  23.712  0.00  0.00    -0.387 OA
ATOM     24  H   UNL     1      -0.656  -3.395  24.330  0.00  0.00    +0.210 HD
ENDBRANCH  11   2
BRANCH  12   3
ATOM      3  O   UNL     1      -3.555  -3.455  25.425  0.00  0.00    -0.387 OA
ATOM     25  H   UNL     1      -2.796  -3.333  26.022  0.00  0.00    +0.210 HD
ENDBRANCH  12   3
BRANCH   8  15
ATOM     15  C   UNL     1      -0.324  -0.533  24.810  0.00  0.00    +0.138 C 
BRANCH  15   6
ATOM      4  O   UNL     1       0.872   1.956  23.900  0.00  0.00    -0.276 OA
ATOM      6  N   UNL     1      -0.418   0.757  25.426  0.00  0.00    -0.313 N 
ATOM     17  C   UNL     1       0.190   1.897  24.916  0.00  0.00    +0.216 C 
ATOM     23  H   UNL     1      -0.969   0.837  26.276  0.00  0.00    +0.149 HD
BRANCH  17   9
ATOM      9  C   UNL     1      -0.043   3.132  25.721  0.00  0.00    +0.075 C 
ATOM     13  C   UNL     1      -0.706   4.312  25.071  0.00  0.00    +0.013 C 
ATOM     14  C   UNL     1      -1.448   3.504  26.096  0.00  0.00    +0.013 C 
ENDBRANCH  17   9
ENDBRANCH  15   6
ENDBRANCH   8  15
BRANCH  10  16
ATOM     16  C   UNL     1      -4.436  -0.021  24.312  0.00  0.00    +0.130 C 
BRANCH  16  18
ATOM      5  O   UNL     1      -5.738   0.857  26.104  0.00  0.00    -0.276 OA
ATOM      7  N   UNL     1      -4.666   2.378  24.733  0.00  0.00    -0.301 N 
ATOM     18  C   UNL     1      -5.010   1.100  25.140  0.00  0.00    +0.218 C 
ATOM     19  C   UNL     1      -5.144   3.567  25.423  0.00  0.00    +0.108 C 
ATOM     20  C   UNL     1      -3.808   2.733  23.608  0.00  0.00    +0.108 C 
ATOM     21  C   UNL     1      -4.286   4.696  24.871  0.00  0.00    +0.020 C 
ATOM     22  C   UNL     1      -3.995   4.235  23.448  0.00  0.00    +0.020 C 
ENDBRANCH  16  18
ENDBRANCH  10  16
TORSDOF 7
ENDMDL
