MODEL 1
REMARK VINA RESULT:      -5.3      0.000      0.000
REMARK  Name = 26743438
REMARK  7 active torsions:
REMARK  status: ('A' for Active; 'I' for Inactive)
REMARK    1  A    between atoms: S_1  and  C_20
REMARK    2  A    between atoms: S_1  and  C_23
REMARK    3  A    between atoms: O_3  and  C_12
REMARK    4  A    between atoms: N_7  and  C_14
REMARK    5  A    between atoms: C_10  and  C_15
REMARK    6  A    between atoms: C_14  and  C_16
REMARK    7  A    between atoms: C_17  and  C_20
REMARK                            x       y       z     vdW  Elec       q    Type
REMARK                         _______ _______ _______ _____ _____    ______ ____
ROOT
ATOM      4  O   UNL     1      -2.081   1.940  25.559  0.00  0.00    -0.336 OA
ATOM      8  N   UNL     1      -1.641   2.228  23.381  0.00  0.00    -0.193 NA
ATOM      9  N   UNL     1      -0.710   1.704  25.405  0.00  0.00    -0.060 NA
ATOM     15  C   UNL     1      -2.552   2.242  24.321  0.00  0.00    +0.245 A 
ATOM     17  C   UNL     1      -0.526   1.892  24.094  0.00  0.00    +0.193 A 
ENDROOT
BRANCH  15  10
ATOM      7  N   UNL     1      -4.866   1.577  24.959  0.00  0.00    -0.285 NA
ATOM     10  C   UNL     1      -4.032   2.546  24.217  0.00  0.00    +0.149 C 
ATOM     11  C   UNL     1      -4.401   3.918  24.810  0.00  0.00    +0.061 C 
ATOM     12  C   UNL     1      -5.480   3.624  25.844  0.00  0.00    +0.130 C 
ATOM     13  C   UNL     1      -6.062   2.301  25.383  0.00  0.00    +0.116 C 
BRANCH  12   3
ATOM      3  O   UNL     1      -6.454   4.650  25.859  0.00  0.00    -0.390 OA
ATOM     30  H   UNL     1      -6.000   5.481  26.080  0.00  0.00    +0.210 HD
ENDBRANCH  12   3
BRANCH   7  14
ATOM     14  C   UNL     1      -5.191   0.387  24.185  0.00  0.00    +0.120 C 
BRANCH  14  16
ATOM     16  C   UNL     1      -4.344  -0.791  24.586  0.00  0.00    -0.033 A 
ATOM     18  C   UNL     1      -4.264  -1.909  23.754  0.00  0.00    +0.005 A 
ATOM     19  C   UNL     1      -3.638  -0.766  25.789  0.00  0.00    +0.005 A 
ATOM     21  C   UNL     1      -3.479  -3.000  24.126  0.00  0.00    +0.000 A 
ATOM     22  C   UNL     1      -2.852  -1.857  26.160  0.00  0.00    +0.000 A 
ATOM     24  C   UNL     1      -2.774  -2.973  25.329  0.00  0.00    +0.000 A 
ENDBRANCH  14  16
ENDBRANCH   7  14
ENDBRANCH  15  10
BRANCH  17  20
ATOM     20  C   UNL     1       0.791   1.749  23.465  0.00  0.00    +0.251 C 
BRANCH  20   1
ATOM      1  S   UNL     1       1.082   0.033  23.140  0.00  0.00    +0.004 S 
ATOM      5  O   UNL     1       0.701  -0.223  21.763  0.00  0.00    -0.169 OA
ATOM      6  O   UNL     1       0.504  -0.745  24.219  0.00  0.00    -0.169 OA
BRANCH   1  23
ATOM      2  F   UNL     1       6.939  -0.505  23.555  0.00  0.00    -0.205 F 
ATOM     23  C   UNL     1       2.837  -0.130  23.264  0.00  0.00    +0.089 A 
ATOM     25  C   UNL     1       3.398  -1.329  23.701  0.00  0.00    +0.030 A 
ATOM     26  C   UNL     1       3.661   0.944  22.925  0.00  0.00    +0.030 A 
ATOM     27  C   UNL     1       4.783  -1.457  23.800  0.00  0.00    +0.040 A 
ATOM     28  C   UNL     1       5.047   0.816  23.023  0.00  0.00    +0.040 A 
ATOM     29  C   UNL     1       5.608  -0.383  23.460  0.00  0.00    +0.124 A 
ENDBRANCH   1  23
ENDBRANCH  20   1
ENDBRANCH  17  20
TORSDOF 7
ENDMDL
MODEL 2
REMARK VINA RESULT:      -3.3      3.205      6.270
REMARK  Name = 26743438
REMARK  7 active torsions:
REMARK  status: ('A' for Active; 'I' for Inactive)
REMARK    1  A    between atoms: S_1  and  C_20
REMARK    2  A    between atoms: S_1  and  C_23
REMARK    3  A    between atoms: O_3  and  C_12
REMARK    4  A    between atoms: N_7  and  C_14
REMARK    5  A    between atoms: C_10  and  C_15
REMARK    6  A    between atoms: C_14  and  C_16
REMARK    7  A    between atoms: C_17  and  C_20
REMARK                            x       y       z     vdW  Elec       q    Type
REMARK                         _______ _______ _______ _____ _____    ______ ____
ROOT
ATOM      4  O   UNL     1      -0.662   4.093  25.069  0.00  0.00    -0.336 OA
ATOM      8  N   UNL     1      -2.040   2.755  26.220  0.00  0.00    -0.193 NA
ATOM      9  N   UNL     1      -1.765   4.881  25.421  0.00  0.00    -0.060 NA
ATOM     15  C   UNL     1      -0.905   2.857  25.577  0.00  0.00    +0.245 A 
ATOM     17  C   UNL     1      -2.533   4.022  26.098  0.00  0.00    +0.193 A 
ENDROOT
BRANCH  15  10
ATOM      7  N   UNL     1      -0.403   0.549  24.790  0.00  0.00    -0.285 NA
ATOM     10  C   UNL     1       0.156   1.805  25.331  0.00  0.00    +0.149 C 
ATOM     11  C   UNL     1       1.204   2.248  24.294  0.00  0.00    +0.061 C 
ATOM     12  C   UNL     1       1.195   1.157  23.231  0.00  0.00    +0.130 C 
ATOM     13  C   UNL     1       0.647  -0.051  23.969  0.00  0.00    +0.116 C 
BRANCH  12   3
ATOM      3  O   UNL     1       2.501   0.923  22.740  0.00  0.00    -0.390 OA
ATOM     30  H   UNL     1       2.716   1.647  22.128  0.00  0.00    +0.210 HD
ENDBRANCH  12   3
BRANCH   7  14
ATOM     14  C   UNL     1      -0.878  -0.361  25.823  0.00  0.00    +0.120 C 
BRANCH  14  16
ATOM     16  C   UNL     1      -1.916  -1.315  25.297  0.00  0.00    -0.033 A 
ATOM     18  C   UNL     1      -3.255  -1.157  25.656  0.00  0.00    +0.005 A 
ATOM     19  C   UNL     1      -1.540  -2.357  24.450  0.00  0.00    +0.005 A 
ATOM     21  C   UNL     1      -4.217  -2.042  25.168  0.00  0.00    +0.000 A 
ATOM     22  C   UNL     1      -2.502  -3.241  23.961  0.00  0.00    +0.000 A 
ATOM     24  C   UNL     1      -3.839  -3.084  24.320  0.00  0.00    +0.000 A 
ENDBRANCH  14  16
ENDBRANCH   7  14
ENDBRANCH  15  10
BRANCH  17  20
ATOM     20  C   UNL     1      -3.823   4.419  26.673  0.00  0.00    +0.251 C 
BRANCH  20   1
ATOM      1  S   UNL     1      -5.120   3.635  25.755  0.00  0.00    +0.004 S 
ATOM      5  O   UNL     1      -6.036   4.673  25.320  0.00  0.00    -0.169 OA
ATOM      6  O   UNL     1      -5.604   2.501  26.519  0.00  0.00    -0.169 OA
BRANCH   1  23
ATOM      2  F   UNL     1      -2.382   1.490  20.996  0.00  0.00    -0.205 F 
ATOM     23  C   UNL     1      -4.300   2.991  24.330  0.00  0.00    +0.089 A 
ATOM     25  C   UNL     1      -3.991   1.634  24.255  0.00  0.00    +0.030 A 
ATOM     26  C   UNL     1      -3.961   3.842  23.277  0.00  0.00    +0.030 A 
ATOM     27  C   UNL     1      -3.343   1.126  23.130  0.00  0.00    +0.040 A 
ATOM     28  C   UNL     1      -3.313   3.334  22.151  0.00  0.00    +0.040 A 
ATOM     29  C   UNL     1      -3.004   1.977  22.077  0.00  0.00    +0.124 A 
ENDBRANCH   1  23
ENDBRANCH  20   1
ENDBRANCH  17  20
TORSDOF 7
ENDMDL
MODEL 3
REMARK VINA RESULT:      -2.7      3.255      6.509
REMARK  Name = 26743438
REMARK  7 active torsions:
REMARK  status: ('A' for Active; 'I' for Inactive)
REMARK    1  A    between atoms: S_1  and  C_20
REMARK    2  A    between atoms: S_1  and  C_23
REMARK    3  A    between atoms: O_3  and  C_12
REMARK    4  A    between atoms: N_7  and  C_14
REMARK    5  A    between atoms: C_10  and  C_15
REMARK    6  A    between atoms: C_14  and  C_16
REMARK    7  A    between atoms: C_17  and  C_20
REMARK                            x       y       z     vdW  Elec       q    Type
REMARK                         _______ _______ _______ _____ _____    ______ ____
ROOT
ATOM      4  O   UNL     1      -0.189   3.960  24.658  0.00  0.00    -0.336 OA
ATOM      8  N   UNL     1      -1.640   2.741  25.853  0.00  0.00    -0.193 NA
ATOM      9  N   UNL     1      -1.223   4.832  25.022  0.00  0.00    -0.060 NA
ATOM     15  C   UNL     1      -0.513   2.751  25.186  0.00  0.00    +0.245 A 
ATOM     17  C   UNL     1      -2.039   4.040  25.724  0.00  0.00    +0.193 A 
ENDROOT
BRANCH  15  10
ATOM      7  N   UNL     1      -0.215   0.356  24.575  0.00  0.00    -0.285 NA
ATOM     10  C   UNL     1       0.461   1.620  24.932  0.00  0.00    +0.149 C 
ATOM     11  C   UNL     1       1.411   1.906  23.754  0.00  0.00    +0.061 C 
ATOM     12  C   UNL     1       1.231   0.726  22.807  0.00  0.00    +0.130 C 
ATOM     13  C   UNL     1       0.708  -0.376  23.710  0.00  0.00    +0.116 C 
BRANCH  12   3
ATOM      3  O   UNL     1       2.463   0.372  22.207  0.00  0.00    -0.390 OA
ATOM     30  H   UNL     1       2.661   1.042  21.532  0.00  0.00    +0.210 HD
ENDBRANCH  12   3
BRANCH   7  14
ATOM     14  C   UNL     1      -0.618  -0.428  25.734  0.00  0.00    +0.120 C 
BRANCH  14  16
ATOM     16  C   UNL     1      -1.621  -1.490  25.372  0.00  0.00    -0.033 A 
ATOM     18  C   UNL     1      -2.806  -1.609  26.100  0.00  0.00    +0.005 A 
ATOM     19  C   UNL     1      -1.368  -2.355  24.308  0.00  0.00    +0.005 A 
ATOM     21  C   UNL     1      -3.735  -2.593  25.764  0.00  0.00    +0.000 A 
ATOM     22  C   UNL     1      -2.298  -3.339  23.971  0.00  0.00    +0.000 A 
ATOM     24  C   UNL     1      -3.480  -3.458  24.699  0.00  0.00    +0.000 A 
ENDBRANCH  14  16
ENDBRANCH   7  14
ENDBRANCH  15  10
BRANCH  17  20
ATOM     20  C   UNL     1      -3.284   4.538  26.320  0.00  0.00    +0.251 C 
BRANCH  20   1
ATOM      1  S   UNL     1      -4.584   4.389  25.127  0.00  0.00    +0.004 S 
ATOM      5  O   UNL     1      -4.308   5.331  24.058  0.00  0.00    -0.169 OA
ATOM      6  O   UNL     1      -5.855   4.420  25.825  0.00  0.00    -0.169 OA
BRANCH   1  23
ATOM      2  F   UNL     1      -3.919  -1.064  22.986  0.00  0.00    -0.205 F 
ATOM     23  C   UNL     1      -4.384   2.756  24.485  0.00  0.00    +0.089 A 
ATOM     25  C   UNL     1      -3.529   2.529  23.407  0.00  0.00    +0.030 A 
ATOM     26  C   UNL     1      -5.082   1.691  25.057  0.00  0.00    +0.030 A 
ATOM     27  C   UNL     1      -3.371   1.239  22.900  0.00  0.00    +0.040 A 
ATOM     28  C   UNL     1      -4.924   0.401  24.551  0.00  0.00    +0.040 A 
ATOM     29  C   UNL     1      -4.069   0.175  23.472  0.00  0.00    +0.124 A 
ENDBRANCH   1  23
ENDBRANCH  20   1
ENDBRANCH  17  20
TORSDOF 7
ENDMDL
MODEL 4
REMARK VINA RESULT:      -2.5      3.632      7.187
REMARK  Name = 26743438
REMARK  7 active torsions:
REMARK  status: ('A' for Active; 'I' for Inactive)
REMARK    1  A    between atoms: S_1  and  C_20
REMARK    2  A    between atoms: S_1  and  C_23
REMARK    3  A    between atoms: O_3  and  C_12
REMARK    4  A    between atoms: N_7  and  C_14
REMARK    5  A    between atoms: C_10  and  C_15
REMARK    6  A    between atoms: C_14  and  C_16
REMARK    7  A    between atoms: C_17  and  C_20
REMARK                            x       y       z     vdW  Elec       q    Type
REMARK                         _______ _______ _______ _____ _____    ______ ____
ROOT
ATOM      4  O   UNL     1      -0.200   2.023  26.188  0.00  0.00    -0.336 OA
ATOM      8  N   UNL     1      -0.600   2.797  24.124  0.00  0.00    -0.193 NA
ATOM      9  N   UNL     1      -1.106   3.080  26.338  0.00  0.00    -0.060 NA
ATOM     15  C   UNL     1       0.045   1.925  24.855  0.00  0.00    +0.245 A 
ATOM     17  C   UNL     1      -1.294   3.485  25.078  0.00  0.00    +0.193 A 
ENDROOT
BRANCH  15  10
ATOM      7  N   UNL     1       0.333  -0.276  23.726  0.00  0.00    -0.285 NA
ATOM     10  C   UNL     1       1.008   0.838  24.424  0.00  0.00    +0.149 C 
ATOM     11  C   UNL     1       2.068   1.342  23.429  0.00  0.00    +0.061 C 
ATOM     12  C   UNL     1       1.944   0.423  22.220  0.00  0.00    +0.130 C 
ATOM     13  C   UNL     1       1.311  -0.831  22.792  0.00  0.00    +0.116 C 
BRANCH  12   3
ATOM      3  O   UNL     1       3.215   0.160  21.657  0.00  0.00    -0.390 OA
ATOM     30  H   UNL     1       3.287   0.682  20.841  0.00  0.00    +0.210 HD
ENDBRANCH  12   3
BRANCH   7  14
ATOM     14  C   UNL     1      -0.196  -1.287  24.631  0.00  0.00    +0.120 C 
BRANCH  14  16
ATOM     16  C   UNL     1      -1.670  -1.506  24.428  0.00  0.00    -0.033 A 
ATOM     18  C   UNL     1      -2.207  -2.790  24.534  0.00  0.00    +0.005 A 
ATOM     19  C   UNL     1      -2.502  -0.425  24.133  0.00  0.00    +0.005 A 
ATOM     21  C   UNL     1      -3.574  -2.992  24.344  0.00  0.00    +0.000 A 
ATOM     22  C   UNL     1      -3.870  -0.628  23.945  0.00  0.00    +0.000 A 
ATOM     24  C   UNL     1      -4.405  -1.911  24.050  0.00  0.00    +0.000 A 
ENDBRANCH  14  16
ENDBRANCH   7  14
ENDBRANCH  15  10
BRANCH  17  20
ATOM     20  C   UNL     1      -2.191   4.597  24.744  0.00  0.00    +0.251 C 
BRANCH  20   1
ATOM      1  S   UNL     1      -3.463   3.997  23.668  0.00  0.00    +0.004 S 
ATOM      5  O   UNL     1      -2.866   3.003  22.796  0.00  0.00    -0.169 OA
ATOM      6  O   UNL     1      -4.169   5.135  23.111  0.00  0.00    -0.169 OA
BRANCH   1  23
ATOM      2  F   UNL     1      -7.203   1.239  27.296  0.00  0.00    -0.205 F 
ATOM     23  C   UNL     1      -4.583   3.172  24.756  0.00  0.00    +0.089 A 
ATOM     25  C   UNL     1      -4.684   3.570  26.088  0.00  0.00    +0.030 A 
ATOM     26  C   UNL     1      -5.368   2.120  24.281  0.00  0.00    +0.030 A 
ATOM     27  C   UNL     1      -5.568   2.918  26.947  0.00  0.00    +0.040 A 
ATOM     28  C   UNL     1      -6.253   1.468  25.140  0.00  0.00    +0.040 A 
ATOM     29  C   UNL     1      -6.353   1.867  26.472  0.00  0.00    +0.124 A 
ENDBRANCH   1  23
ENDBRANCH  20   1
ENDBRANCH  17  20
TORSDOF 7
ENDMDL
MODEL 5
REMARK VINA RESULT:      -2.0      3.536      7.731
REMARK  Name = 26743438
REMARK  7 active torsions:
REMARK  status: ('A' for Active; 'I' for Inactive)
REMARK    1  A    between atoms: S_1  and  C_20
REMARK    2  A    between atoms: S_1  and  C_23
REMARK    3  A    between atoms: O_3  and  C_12
REMARK    4  A    between atoms: N_7  and  C_14
REMARK    5  A    between atoms: C_10  and  C_15
REMARK    6  A    between atoms: C_14  and  C_16
REMARK    7  A    between atoms: C_17  and  C_20
REMARK                            x       y       z     vdW  Elec       q    Type
REMARK                         _______ _______ _______ _____ _____    ______ ____
ROOT
ATOM      4  O   UNL     1       0.564  -1.507  24.611  0.00  0.00    -0.336 OA
ATOM      8  N   UNL     1      -1.122  -0.143  24.050  0.00  0.00    -0.193 NA
ATOM      9  N   UNL     1      -0.553  -1.955  25.326  0.00  0.00    -0.060 NA
ATOM     15  C   UNL     1       0.142  -0.438  23.886  0.00  0.00    +0.245 A 
ATOM     17  C   UNL     1      -1.507  -1.101  24.943  0.00  0.00    +0.193 A 
ENDROOT
BRANCH  15  10
ATOM      7  N   UNL     1       1.671   1.505  23.587  0.00  0.00    -0.285 NA
ATOM     10  C   UNL     1       1.179   0.236  23.012  0.00  0.00    +0.149 C 
ATOM     11  C   UNL     1       2.442  -0.622  22.816  0.00  0.00    +0.061 C 
ATOM     12  C   UNL     1       3.596   0.264  23.266  0.00  0.00    +0.130 C 
ATOM     13  C   UNL     1       3.044   1.669  23.114  0.00  0.00    +0.116 C 
BRANCH  12   3
ATOM      3  O   UNL     1       4.735   0.057  22.452  0.00  0.00    -0.390 OA
ATOM     30  H   UNL     1       5.226   0.895  22.419  0.00  0.00    +0.210 HD
ENDBRANCH  12   3
BRANCH   7  14
ATOM     14  C   UNL     1       0.835   2.650  23.251  0.00  0.00    +0.120 C 
BRANCH  14  16
ATOM     16  C   UNL     1      -0.057   3.048  24.396  0.00  0.00    -0.033 A 
ATOM     18  C   UNL     1      -0.082   2.281  25.561  0.00  0.00    +0.005 A 
ATOM     19  C   UNL     1      -0.860   4.184  24.292  0.00  0.00    +0.005 A 
ATOM     21  C   UNL     1      -0.909   2.650  26.622  0.00  0.00    +0.000 A 
ATOM     22  C   UNL     1      -1.687   4.554  25.353  0.00  0.00    +0.000 A 
ATOM     24  C   UNL     1      -1.712   3.787  26.517  0.00  0.00    +0.000 A 
ENDBRANCH  14  16
ENDBRANCH   7  14
ENDBRANCH  15  10
BRANCH  17  20
ATOM     20  C   UNL     1      -2.881  -1.191  25.449  0.00  0.00    +0.251 C 
BRANCH  20   1
ATOM      1  S   UNL     1      -3.997  -0.737  24.151  0.00  0.00    +0.004 S 
ATOM      5  O   UNL     1      -5.126  -1.646  24.206  0.00  0.00    -0.169 OA
ATOM      6  O   UNL     1      -3.237  -0.581  22.925  0.00  0.00    -0.169 OA
BRANCH   1  23
ATOM      2  F   UNL     1      -5.878   4.627  25.715  0.00  0.00    -0.205 F 
ATOM     23  C   UNL     1      -4.561   0.870  24.620  0.00  0.00    +0.089 A 
ATOM     25  C   UNL     1      -5.502   1.009  25.639  0.00  0.00    +0.030 A 
ATOM     26  C   UNL     1      -4.064   2.000  23.970  0.00  0.00    +0.030 A 
ATOM     27  C   UNL     1      -5.947   2.278  26.010  0.00  0.00    +0.040 A 
ATOM     28  C   UNL     1      -4.509   3.270  24.341  0.00  0.00    +0.040 A 
ATOM     29  C   UNL     1      -5.450   3.408  25.360  0.00  0.00    +0.124 A 
ENDBRANCH   1  23
ENDBRANCH  20   1
ENDBRANCH  17  20
TORSDOF 7
ENDMDL
MODEL 6
REMARK VINA RESULT:      -1.4      2.992      6.339
REMARK  Name = 26743438
REMARK  7 active torsions:
REMARK  status: ('A' for Active; 'I' for Inactive)
REMARK    1  A    between atoms: S_1  and  C_20
REMARK    2  A    between atoms: S_1  and  C_23
REMARK    3  A    between atoms: O_3  and  C_12
REMARK    4  A    between atoms: N_7  and  C_14
REMARK    5  A    between atoms: C_10  and  C_15
REMARK    6  A    between atoms: C_14  and  C_16
REMARK    7  A    between atoms: C_17  and  C_20
REMARK                            x       y       z     vdW  Elec       q    Type
REMARK                         _______ _______ _______ _____ _____    ______ ____
ROOT
ATOM      4  O   UNL     1      -1.978   1.413  22.908  0.00  0.00    -0.336 OA
ATOM      8  N   UNL     1      -2.700   1.027  24.993  0.00  0.00    -0.193 NA
ATOM      9  N   UNL     1      -3.361   1.634  22.888  0.00  0.00    -0.060 NA
ATOM     15  C   UNL     1      -1.672   1.059  24.183  0.00  0.00    +0.245 A 
ATOM     17  C   UNL     1      -3.714   1.386  24.153  0.00  0.00    +0.193 A 
ENDROOT
BRANCH  15  10
ATOM      7  N   UNL     1       0.227  -0.527  23.907  0.00  0.00    -0.285 NA
ATOM     10  C   UNL     1      -0.215   0.765  24.471  0.00  0.00    +0.149 C 
ATOM     11  C   UNL     1       0.736   1.808  23.856  0.00  0.00    +0.061 C 
ATOM     12  C   UNL     1       1.704   1.004  22.998  0.00  0.00    +0.130 C 
ATOM     13  C   UNL     1       1.650  -0.384  23.610  0.00  0.00    +0.116 C 
BRANCH  12   3
ATOM      3  O   UNL     1       3.005   1.555  23.059  0.00  0.00    -0.390 OA
ATOM     30  H   UNL     1       3.431   1.210  23.862  0.00  0.00    +0.210 HD
ENDBRANCH  12   3
BRANCH   7  14
ATOM     14  C   UNL     1      -0.038  -1.659  24.786  0.00  0.00    +0.120 C 
BRANCH  14  16
ATOM     16  C   UNL     1      -1.499  -2.020  24.809  0.00  0.00    -0.033 A 
ATOM     18  C   UNL     1      -2.071  -2.685  23.724  0.00  0.00    +0.005 A 
ATOM     19  C   UNL     1      -2.282  -1.691  25.916  0.00  0.00    +0.005 A 
ATOM     21  C   UNL     1      -3.425  -3.020  23.746  0.00  0.00    +0.000 A 
ATOM     22  C   UNL     1      -3.636  -2.026  25.938  0.00  0.00    +0.000 A 
ATOM     24  C   UNL     1      -4.207  -2.690  24.853  0.00  0.00    +0.000 A 
ENDBRANCH  14  16
ENDBRANCH   7  14
ENDBRANCH  15  10
BRANCH  17  20
ATOM     20  C   UNL     1      -5.105   1.497  24.608  0.00  0.00    +0.251 C 
BRANCH  20   1
ATOM      1  S   UNL     1      -5.267   2.964  25.587  0.00  0.00    +0.004 S 
ATOM      5  O   UNL     1      -5.373   2.554  26.975  0.00  0.00    -0.169 OA
ATOM      6  O   UNL     1      -6.286   3.806  24.990  0.00  0.00    -0.169 OA
BRANCH   1  23
ATOM      2  F   UNL     1      -0.103   5.718  24.874  0.00  0.00    -0.205 F 
ATOM     23  C   UNL     1      -3.720   3.788  25.374  0.00  0.00    +0.089 A 
ATOM     25  C   UNL     1      -2.698   3.608  26.307  0.00  0.00    +0.030 A 
ATOM     26  C   UNL     1      -3.519   4.620  24.272  0.00  0.00    +0.030 A 
ATOM     27  C   UNL     1      -1.477   4.259  26.139  0.00  0.00    +0.040 A 
ATOM     28  C   UNL     1      -2.297   5.272  24.104  0.00  0.00    +0.040 A 
ATOM     29  C   UNL     1      -1.276   5.092  25.036  0.00  0.00    +0.124 A 
ENDBRANCH   1  23
ENDBRANCH  20   1
ENDBRANCH  17  20
TORSDOF 7
ENDMDL
