MODEL 1
REMARK VINA RESULT:       3.3      0.000      0.000
REMARK  Name = 26743424
REMARK  11 active torsions:
REMARK  status: ('A' for Active; 'I' for Inactive)
REMARK    1  A    between atoms: O_5  and  C_30
REMARK    2  A    between atoms: N_7  and  C_12
REMARK    3  A    between atoms: N_8  and  C_21
REMARK    4  A    between atoms: C_10  and  C_13
REMARK    5  A    between atoms: C_16  and  C_18
REMARK    6  A    between atoms: C_17  and  C_20
REMARK    7  A    between atoms: C_19  and  C_22
REMARK    8  A    between atoms: C_22  and  C_23
REMARK    9  A    between atoms: C_23  and  C_26
REMARK   10  A    between atoms: C_26  and  C_30
REMARK   11  A    between atoms: C_29  and  C_31
REMARK                            x       y       z     vdW  Elec       q    Type
REMARK                         _______ _______ _______ _____ _____    ______ ____
ROOT
ATOM      8  N   UNL     1       0.868  -0.541  23.951  0.00  0.00    -0.236 N 
ATOM      9  N   UNL     1       0.236  -1.717  23.810  0.00  0.00    -0.171 NA
ATOM     13  C   UNL     1      -1.213  -0.050  24.393  0.00  0.00    +0.003 A 
ATOM     16  C   UNL     1       0.045   0.490  24.300  0.00  0.00    +0.046 A 
ATOM     17  C   UNL     1      -1.036  -1.412  24.081  0.00  0.00    +0.064 A 
ATOM     18  C   UNL     1       0.522   1.872  24.512  0.00  0.00    +0.066 C 
ATOM     20  C   UNL     1      -2.062  -2.469  24.030  0.00  0.00    +0.068 C 
ENDROOT
BRANCH   8  21
ATOM     21  C   UNL     1       2.246  -0.466  23.740  0.00  0.00    +0.066 A 
ATOM     24  C   UNL     1       3.066  -1.536  24.098  0.00  0.00    +0.028 A 
ATOM     25  C   UNL     1       2.803   0.682  23.176  0.00  0.00    +0.028 A 
ATOM     27  C   UNL     1       4.443  -1.458  23.890  0.00  0.00    +0.014 A 
ATOM     28  C   UNL     1       4.180   0.759  22.968  0.00  0.00    +0.014 A 
ATOM     29  C   UNL     1       5.000  -0.310  23.326  0.00  0.00    +0.055 A 
BRANCH  29  31
ATOM      1  F   UNL     1       6.858  -0.587  21.844  0.00  0.00    -0.166 F 
ATOM      2  F   UNL     1       7.177  -1.038  23.948  0.00  0.00    -0.166 F 
ATOM      3  F   UNL     1       6.984   1.026  23.289  0.00  0.00    -0.166 F 
ATOM     31  C   UNL     1       6.473  -0.228  23.104  0.00  0.00    +0.417 C 
ENDBRANCH  29  31
ENDBRANCH   8  21
BRANCH  13  10
ATOM     10  C   UNL     1      -2.499   0.659  24.752  0.00  0.00    +0.047 C 
ATOM     11  C   UNL     1      -3.426   0.889  23.541  0.00  0.00    +0.039 C 
ATOM     12  C   UNL     1      -4.857   0.759  24.077  0.00  0.00    +0.097 C 
ATOM     14  C   UNL     1      -3.388  -0.095  25.699  0.00  0.00    -0.021 C 
ATOM     15  C   UNL     1      -4.672  -0.033  25.330  0.00  0.00    -0.009 C 
BRANCH  12   7
ATOM      4  O   UNL     1      -6.216   1.430  26.511  0.00  0.00    -0.276 OA
ATOM      7  N   UNL     1      -5.445   2.031  24.406  0.00  0.00    -0.309 N 
ATOM     19  C   UNL     1      -6.084   2.260  25.616  0.00  0.00    +0.213 C 
ATOM     32  H   UNL     1      -5.426   2.774  23.713  0.00  0.00    +0.149 HD
BRANCH  19  22
ATOM     22  C   UNL     1      -6.639   3.673  25.698  0.00  0.00    +0.096 C 
BRANCH  22  23
ATOM     23  C   UNL     1      -5.564   4.757  25.676  0.00  0.00    +0.020 C 
BRANCH  23  26
ATOM     26  C   UNL     1      -4.228   4.264  26.236  0.00  0.00    +0.121 C 
BRANCH  26  30
ATOM      6  O   UNL     1      -1.943   4.636  25.483  0.00  0.00    -0.251 OA
ATOM     30  C   UNL     1      -3.113   4.387  25.224  0.00  0.00    +0.305 C 
BRANCH  30   5
ATOM      5  O   UNL     1      -3.564   4.182  23.959  0.00  0.00    -0.481 OA
ATOM     33  H   UNL     1      -3.164   4.810  23.321  0.00  0.00    +0.295 HD
ENDBRANCH  30   5
ENDBRANCH  26  30
ENDBRANCH  23  26
ENDBRANCH  22  23
ENDBRANCH  19  22
ENDBRANCH  12   7
ENDBRANCH  13  10
TORSDOF 9
ENDMDL
MODEL 2
REMARK VINA RESULT:       3.5      1.223      2.283
REMARK  Name = 26743424
REMARK  11 active torsions:
REMARK  status: ('A' for Active; 'I' for Inactive)
REMARK    1  A    between atoms: O_5  and  C_30
REMARK    2  A    between atoms: N_7  and  C_12
REMARK    3  A    between atoms: N_8  and  C_21
REMARK    4  A    between atoms: C_10  and  C_13
REMARK    5  A    between atoms: C_16  and  C_18
REMARK    6  A    between atoms: C_17  and  C_20
REMARK    7  A    between atoms: C_19  and  C_22
REMARK    8  A    between atoms: C_22  and  C_23
REMARK    9  A    between atoms: C_23  and  C_26
REMARK   10  A    between atoms: C_26  and  C_30
REMARK   11  A    between atoms: C_29  and  C_31
REMARK                            x       y       z     vdW  Elec       q    Type
REMARK                         _______ _______ _______ _____ _____    ______ ____
ROOT
ATOM      8  N   UNL     1       1.174  -0.264  23.661  0.00  0.00    -0.236 N 
ATOM      9  N   UNL     1       0.497  -1.415  23.814  0.00  0.00    -0.171 NA
ATOM     13  C   UNL     1      -0.911   0.382  23.724  0.00  0.00    +0.003 A 
ATOM     16  C   UNL     1       0.377   0.841  23.602  0.00  0.00    +0.046 A 
ATOM     17  C   UNL     1      -0.776  -1.014  23.852  0.00  0.00    +0.064 A 
ATOM     18  C   UNL     1       0.903   2.212  23.438  0.00  0.00    +0.066 C 
ATOM     20  C   UNL     1      -1.846  -2.014  24.016  0.00  0.00    +0.068 C 
ENDROOT
BRANCH   8  21
ATOM     21  C   UNL     1       2.567  -0.287  23.578  0.00  0.00    +0.066 A 
ATOM     24  C   UNL     1       3.275  -1.408  24.012  0.00  0.00    +0.028 A 
ATOM     25  C   UNL     1       3.252   0.814  23.064  0.00  0.00    +0.028 A 
ATOM     27  C   UNL     1       4.667  -1.427  23.932  0.00  0.00    +0.014 A 
ATOM     28  C   UNL     1       4.644   0.795  22.984  0.00  0.00    +0.014 A 
ATOM     29  C   UNL     1       5.352  -0.325  23.418  0.00  0.00    +0.055 A 
BRANCH  29  31
ATOM      1  F   UNL     1       7.315  -0.919  22.187  0.00  0.00    -0.166 F 
ATOM      2  F   UNL     1       7.415  -1.045  24.356  0.00  0.00    -0.166 F 
ATOM      3  F   UNL     1       7.409   0.895  23.373  0.00  0.00    -0.166 F 
ATOM     31  C   UNL     1       6.841  -0.347  23.333  0.00  0.00    +0.417 C 
ENDBRANCH  29  31
ENDBRANCH   8  21
BRANCH  13  10
ATOM     10  C   UNL     1      -2.185   1.194  23.724  0.00  0.00    +0.047 C 
ATOM     11  C   UNL     1      -2.051   2.540  24.465  0.00  0.00    +0.039 C 
ATOM     12  C   UNL     1      -2.942   3.529  23.703  0.00  0.00    +0.097 C 
ATOM     14  C   UNL     1      -2.656   1.621  22.363  0.00  0.00    -0.021 C 
ATOM     15  C   UNL     1      -3.072   2.892  22.359  0.00  0.00    -0.009 C 
BRANCH  12   7
ATOM      4  O   UNL     1      -3.527   4.208  26.427  0.00  0.00    -0.276 OA
ATOM      7  N   UNL     1      -4.249   3.664  24.289  0.00  0.00    -0.309 N 
ATOM     19  C   UNL     1      -4.432   3.997  25.624  0.00  0.00    +0.213 C 
ATOM     32  H   UNL     1      -5.066   3.468  23.716  0.00  0.00    +0.149 HD
BRANCH  19  22
ATOM     22  C   UNL     1      -5.905   4.045  25.993  0.00  0.00    +0.096 C 
BRANCH  22  23
ATOM     23  C   UNL     1      -6.634   2.719  25.784  0.00  0.00    +0.020 C 
BRANCH  23  26
ATOM     26  C   UNL     1      -5.912   1.547  26.451  0.00  0.00    +0.121 C 
BRANCH  26  30
ATOM      6  O   UNL     1      -4.398  -0.210  25.709  0.00  0.00    -0.251 OA
ATOM     30  C   UNL     1      -5.195   0.679  25.443  0.00  0.00    +0.305 C 
BRANCH  30   5
ATOM      5  O   UNL     1      -5.547   1.001  24.170  0.00  0.00    -0.481 OA
ATOM     33  H   UNL     1      -5.327   1.932  23.955  0.00  0.00    +0.295 HD
ENDBRANCH  30   5
ENDBRANCH  26  30
ENDBRANCH  23  26
ENDBRANCH  22  23
ENDBRANCH  19  22
ENDBRANCH  12   7
ENDBRANCH  13  10
TORSDOF 9
ENDMDL
MODEL 3
REMARK VINA RESULT:       6.6      1.442      2.299
REMARK  Name = 26743424
REMARK  11 active torsions:
REMARK  status: ('A' for Active; 'I' for Inactive)
REMARK    1  A    between atoms: O_5  and  C_30
REMARK    2  A    between atoms: N_7  and  C_12
REMARK    3  A    between atoms: N_8  and  C_21
REMARK    4  A    between atoms: C_10  and  C_13
REMARK    5  A    between atoms: C_16  and  C_18
REMARK    6  A    between atoms: C_17  and  C_20
REMARK    7  A    between atoms: C_19  and  C_22
REMARK    8  A    between atoms: C_22  and  C_23
REMARK    9  A    between atoms: C_23  and  C_26
REMARK   10  A    between atoms: C_26  and  C_30
REMARK   11  A    between atoms: C_29  and  C_31
REMARK                            x       y       z     vdW  Elec       q    Type
REMARK                         _______ _______ _______ _____ _____    ______ ____
ROOT
ATOM      8  N   UNL     1       1.382   1.006  23.910  0.00  0.00    -0.236 N 
ATOM      9  N   UNL     1       1.121   2.323  23.874  0.00  0.00    -0.171 NA
ATOM     13  C   UNL     1      -0.741   1.112  24.408  0.00  0.00    +0.003 A 
ATOM     16  C   UNL     1       0.300   0.237  24.226  0.00  0.00    +0.046 A 
ATOM     17  C   UNL     1      -0.179   2.382  24.179  0.00  0.00    +0.064 A 
ATOM     18  C   UNL     1       0.353  -1.237  24.321  0.00  0.00    +0.066 C 
ATOM     20  C   UNL     1      -0.849   3.693  24.240  0.00  0.00    +0.068 C 
ENDROOT
BRANCH   8  21
ATOM     21  C   UNL     1       2.673   0.549  23.637  0.00  0.00    +0.066 A 
ATOM     24  C   UNL     1       3.026  -0.767  23.937  0.00  0.00    +0.028 A 
ATOM     25  C   UNL     1       3.611   1.411  23.069  0.00  0.00    +0.028 A 
ATOM     27  C   UNL     1       4.317  -1.220  23.668  0.00  0.00    +0.014 A 
ATOM     28  C   UNL     1       4.902   0.957  22.800  0.00  0.00    +0.014 A 
ATOM     29  C   UNL     1       5.255  -0.358  23.100  0.00  0.00    +0.055 A 
BRANCH  29  31
ATOM      1  F   UNL     1       6.998  -0.721  21.502  0.00  0.00    -0.166 F 
ATOM      2  F   UNL     1       6.801  -2.166  23.115  0.00  0.00    -0.166 F 
ATOM      3  F   UNL     1       7.604  -0.184  23.514  0.00  0.00    -0.166 F 
ATOM     31  C   UNL     1       6.636  -0.844  22.813  0.00  0.00    +0.417 C 
ENDBRANCH  29  31
ENDBRANCH   8  21
BRANCH  13  10
ATOM     10  C   UNL     1      -2.171   0.784  24.773  0.00  0.00    +0.047 C 
ATOM     11  C   UNL     1      -3.063   0.502  23.546  0.00  0.00    +0.039 C 
ATOM     12  C   UNL     1      -4.059  -0.577  23.991  0.00  0.00    +0.097 C 
ATOM     14  C   UNL     1      -2.339  -0.466  25.588  0.00  0.00    -0.021 C 
ATOM     15  C   UNL     1      -3.372  -1.201  25.161  0.00  0.00    -0.009 C 
BRANCH  12   7
ATOM      4  O   UNL     1      -4.885   2.161  23.777  0.00  0.00    -0.276 OA
ATOM      7  N   UNL     1      -5.317  -0.027  24.422  0.00  0.00    -0.309 N 
ATOM     19  C   UNL     1      -5.627   1.318  24.275  0.00  0.00    +0.213 C 
ATOM     32  H   UNL     1      -5.986  -0.636  24.886  0.00  0.00    +0.149 HD
BRANCH  19  22
ATOM     22  C   UNL     1      -7.002   1.642  24.836  0.00  0.00    +0.096 C 
BRANCH  22  23
ATOM     23  C   UNL     1      -6.977   2.102  26.292  0.00  0.00    +0.020 C 
BRANCH  23  26
ATOM     26  C   UNL     1      -5.612   2.657  26.705  0.00  0.00    +0.121 C 
BRANCH  26  30
ATOM      6  O   UNL     1      -6.106   4.813  25.688  0.00  0.00    -0.251 OA
ATOM     30  C   UNL     1      -5.293   3.952  25.995  0.00  0.00    +0.305 C 
BRANCH  30   5
ATOM      5  O   UNL     1      -3.964   4.060  25.732  0.00  0.00    -0.481 OA
ATOM     33  H   UNL     1      -3.435   3.419  26.251  0.00  0.00    +0.295 HD
ENDBRANCH  30   5
ENDBRANCH  26  30
ENDBRANCH  23  26
ENDBRANCH  22  23
ENDBRANCH  19  22
ENDBRANCH  12   7
ENDBRANCH  13  10
TORSDOF 9
ENDMDL
