MODEL 1
REMARK VINA RESULT:       3.8      0.000      0.000
REMARK  Name = 40780375
REMARK  11 active torsions:
REMARK  status: ('A' for Active; 'I' for Inactive)
REMARK    1  A    between atoms: N_1  and  C_7
REMARK    2  A    between atoms: N_1  and  C_13
REMARK    3  A    between atoms: N_2  and  C_16
REMARK    4  A    between atoms: C_5  and  C_8
REMARK    5  A    between atoms: C_11  and  C_14
REMARK    6  A    between atoms: C_12  and  C_15
REMARK    7  A    between atoms: C_13  and  C_17
REMARK    8  A    between atoms: C_20  and  C_21
REMARK    9  A    between atoms: C_21  and  C_26
REMARK   10  A    between atoms: C_21  and  C_27
REMARK   11  A    between atoms: C_28  and  C_31
REMARK                            x       y       z     vdW  Elec       q    Type
REMARK                         _______ _______ _______ _____ _____    ______ ____
ROOT
ATOM      5  C   UNL     1      -2.792   0.360  24.846  0.00  0.00    +0.047 C 
ATOM      6  C   UNL     1      -3.833   0.362  23.711  0.00  0.00    +0.035 C 
ATOM      7  C   UNL     1      -5.202   0.160  24.384  0.00  0.00    +0.078 C 
ATOM      9  C   UNL     1      -3.514  -0.373  25.939  0.00  0.00    -0.021 C 
ATOM     10  C   UNL     1      -4.824  -0.472  25.687  0.00  0.00    -0.012 C 
ENDROOT
BRANCH   5   8
ATOM      2  N   UNL     1       0.626  -0.584  23.923  0.00  0.00    -0.236 N 
ATOM      3  N   UNL     1       0.080  -1.807  23.814  0.00  0.00    -0.171 NA
ATOM      8  C   UNL     1      -1.470  -0.251  24.443  0.00  0.00    +0.003 A 
ATOM     11  C   UNL     1      -0.260   0.384  24.297  0.00  0.00    +0.046 A 
ATOM     12  C   UNL     1      -1.200  -1.598  24.133  0.00  0.00    +0.064 A 
ATOM     14  C   UNL     1       0.115   1.800  24.481  0.00  0.00    +0.066 C 
ATOM     15  C   UNL     1      -2.142  -2.731  24.128  0.00  0.00    +0.068 C 
BRANCH   2  16
ATOM     16  C   UNL     1       1.984  -0.406  23.660  0.00  0.00    +0.066 A 
ATOM     18  C   UNL     1       2.897  -1.406  23.996  0.00  0.00    +0.028 A 
ATOM     19  C   UNL     1       2.430   0.774  23.065  0.00  0.00    +0.028 A 
ATOM     20  C   UNL     1       4.701  -0.046  23.141  0.00  0.00    -0.045 A 
ATOM     22  C   UNL     1       4.255  -1.225  23.736  0.00  0.00    +0.006 A 
ATOM     23  C   UNL     1       3.789   0.955  22.805  0.00  0.00    +0.006 A 
BRANCH  20  21
ATOM     21  C   UNL     1       6.154   0.146  22.865  0.00  0.00    +0.013 C 
ATOM     26  C   UNL     1       6.893  -1.187  22.644  0.00  0.00    +0.012 C 
ATOM     27  C   UNL     1       6.860   0.959  23.968  0.00  0.00    +0.012 C 
ENDBRANCH  20  21
ENDBRANCH   2  16
ENDBRANCH   5   8
BRANCH   7   1
ATOM      1  N   UNL     1      -5.902   1.423  24.587  0.00  0.00    -0.306 NA
ATOM     32  H   UNL     1      -5.956   1.622  25.587  0.00  0.00    +0.123 HD
BRANCH   1  13
ATOM     13  C   UNL     1      -5.207   2.518  23.924  0.00  0.00    +0.117 C 
BRANCH  13  17
ATOM     17  C   UNL     1      -4.289   3.252  24.866  0.00  0.00    -0.032 A 
ATOM     24  C   UNL     1      -3.091   3.790  24.394  0.00  0.00    +0.023 A 
ATOM     25  C   UNL     1      -4.638   3.396  26.208  0.00  0.00    +0.005 A 
ATOM     28  C   UNL     1      -2.243   4.472  25.266  0.00  0.00    +0.052 A 
ATOM     29  C   UNL     1      -3.789   4.079  27.080  0.00  0.00    +0.002 A 
ATOM     30  C   UNL     1      -2.591   4.617  26.609  0.00  0.00    +0.019 A 
BRANCH  28  31
ATOM      4  N   UNL     1      -0.017   5.469  24.394  0.00  0.00    -0.191 NA
ATOM     31  C   UNL     1      -1.014   5.022  24.785  0.00  0.00    +0.099 C 
ENDBRANCH  28  31
ENDBRANCH  13  17
ENDBRANCH   1  13
ENDBRANCH   7   1
TORSDOF 7
ENDMDL
MODEL 2
REMARK VINA RESULT:       4.5      1.434      3.968
REMARK  Name = 40780375
REMARK  11 active torsions:
REMARK  status: ('A' for Active; 'I' for Inactive)
REMARK    1  A    between atoms: N_1  and  C_7
REMARK    2  A    between atoms: N_1  and  C_13
REMARK    3  A    between atoms: N_2  and  C_16
REMARK    4  A    between atoms: C_5  and  C_8
REMARK    5  A    between atoms: C_11  and  C_14
REMARK    6  A    between atoms: C_12  and  C_15
REMARK    7  A    between atoms: C_13  and  C_17
REMARK    8  A    between atoms: C_20  and  C_21
REMARK    9  A    between atoms: C_21  and  C_26
REMARK   10  A    between atoms: C_21  and  C_27
REMARK   11  A    between atoms: C_28  and  C_31
REMARK                            x       y       z     vdW  Elec       q    Type
REMARK                         _______ _______ _______ _____ _____    ______ ____
ROOT
ATOM      5  C   UNL     1      -2.653   1.844  23.772  0.00  0.00    +0.047 C 
ATOM      6  C   UNL     1      -3.353   2.270  25.077  0.00  0.00    +0.035 C 
ATOM      7  C   UNL     1      -4.685   2.916  24.658  0.00  0.00    +0.078 C 
ATOM      9  C   UNL     1      -3.306   2.735  22.756  0.00  0.00    -0.021 C 
ATOM     10  C   UNL     1      -4.414   3.309  23.239  0.00  0.00    -0.012 C 
ENDROOT
BRANCH   5   8
ATOM      2  N   UNL     1       1.001   1.585  23.710  0.00  0.00    -0.236 N 
ATOM      3  N   UNL     1       0.931   2.829  24.214  0.00  0.00    -0.171 NA
ATOM      8  C   UNL     1      -1.148   1.959  23.837  0.00  0.00    +0.003 A 
ATOM     11  C   UNL     1      -0.216   1.020  23.466  0.00  0.00    +0.046 A 
ATOM     12  C   UNL     1      -0.384   3.052  24.290  0.00  0.00    +0.064 A 
ATOM     14  C   UNL     1      -0.383  -0.338  22.911  0.00  0.00    +0.066 C 
ATOM     15  C   UNL     1      -0.871   4.343  24.807  0.00  0.00    +0.068 C 
BRANCH   2  16
ATOM     16  C   UNL     1       2.247   0.999  23.486  0.00  0.00    +0.066 A 
ATOM     18  C   UNL     1       2.423  -0.368  23.704  0.00  0.00    +0.028 A 
ATOM     19  C   UNL     1       3.316   1.779  23.048  0.00  0.00    +0.028 A 
ATOM     20  C   UNL     1       4.739  -0.172  23.045  0.00  0.00    -0.045 A 
ATOM     22  C   UNL     1       3.670  -0.953  23.484  0.00  0.00    +0.006 A 
ATOM     23  C   UNL     1       4.563   1.194  22.828  0.00  0.00    +0.006 A 
BRANCH  20  21
ATOM     21  C   UNL     1       6.073  -0.800  22.811  0.00  0.00    +0.013 C 
ATOM     26  C   UNL     1       6.180  -2.204  23.434  0.00  0.00    +0.012 C 
ATOM     27  C   UNL     1       7.233   0.084  23.308  0.00  0.00    +0.012 C 
ENDBRANCH  20  21
ENDBRANCH   2  16
ENDBRANCH   5   8
BRANCH   7   1
ATOM      1  N   UNL     1      -5.799   1.981  24.749  0.00  0.00    -0.306 NA
ATOM     32  H   UNL     1      -5.939   1.534  23.842  0.00  0.00    +0.123 HD
BRANCH   1  13
ATOM     13  C   UNL     1      -5.537   0.952  25.746  0.00  0.00    +0.117 C 
BRANCH  13  17
ATOM     17  C   UNL     1      -4.716  -0.178  25.185  0.00  0.00    -0.032 A 
ATOM     24  C   UNL     1      -3.435  -0.424  25.681  0.00  0.00    +0.023 A 
ATOM     25  C   UNL     1      -5.237  -0.981  24.171  0.00  0.00    +0.005 A 
ATOM     28  C   UNL     1      -2.677  -1.474  25.164  0.00  0.00    +0.052 A 
ATOM     29  C   UNL     1      -4.477  -2.031  23.653  0.00  0.00    +0.002 A 
ATOM     30  C   UNL     1      -3.197  -2.277  24.149  0.00  0.00    +0.019 A 
BRANCH  28  31
ATOM      4  N   UNL     1      -0.298  -1.928  26.081  0.00  0.00    -0.191 NA
ATOM     31  C   UNL     1      -1.364  -1.725  25.669  0.00  0.00    +0.099 C 
ENDBRANCH  28  31
ENDBRANCH  13  17
ENDBRANCH   1  13
ENDBRANCH   7   1
TORSDOF 7
ENDMDL
MODEL 3
REMARK VINA RESULT:       6.0      1.563      4.164
REMARK  Name = 40780375
REMARK  11 active torsions:
REMARK  status: ('A' for Active; 'I' for Inactive)
REMARK    1  A    between atoms: N_1  and  C_7
REMARK    2  A    between atoms: N_1  and  C_13
REMARK    3  A    between atoms: N_2  and  C_16
REMARK    4  A    between atoms: C_5  and  C_8
REMARK    5  A    between atoms: C_11  and  C_14
REMARK    6  A    between atoms: C_12  and  C_15
REMARK    7  A    between atoms: C_13  and  C_17
REMARK    8  A    between atoms: C_20  and  C_21
REMARK    9  A    between atoms: C_21  and  C_26
REMARK   10  A    between atoms: C_21  and  C_27
REMARK   11  A    between atoms: C_28  and  C_31
REMARK                            x       y       z     vdW  Elec       q    Type
REMARK                         _______ _______ _______ _____ _____    ______ ____
ROOT
ATOM      5  C   UNL     1      -2.873   2.289  24.432  0.00  0.00    +0.047 C 
ATOM      6  C   UNL     1      -3.335   2.946  25.747  0.00  0.00    +0.035 C 
ATOM      7  C   UNL     1      -4.706   3.579  25.452  0.00  0.00    +0.078 C 
ATOM      9  C   UNL     1      -3.671   3.038  23.405  0.00  0.00    -0.021 C 
ATOM     10  C   UNL     1      -4.670   3.731  23.963  0.00  0.00    -0.012 C 
ENDROOT
BRANCH   5   8
ATOM      2  N   UNL     1       0.720   1.847  23.871  0.00  0.00    -0.236 N 
ATOM      3  N   UNL     1       0.742   3.179  24.049  0.00  0.00    -0.171 NA
ATOM      8  C   UNL     1      -1.377   2.344  24.232  0.00  0.00    +0.003 A 
ATOM     11  C   UNL     1      -0.525   1.298  23.969  0.00  0.00    +0.046 A 
ATOM     12  C   UNL     1      -0.541   3.477  24.270  0.00  0.00    +0.064 A 
ATOM     14  C   UNL     1      -0.790  -0.145  23.806  0.00  0.00    +0.066 C 
ATOM     15  C   UNL     1      -0.928   4.877  24.515  0.00  0.00    +0.068 C 
BRANCH   2  16
ATOM     16  C   UNL     1       1.908   1.164  23.611  0.00  0.00    +0.066 A 
ATOM     18  C   UNL     1       1.972  -0.218  23.793  0.00  0.00    +0.028 A 
ATOM     19  C   UNL     1       3.033   1.863  23.172  0.00  0.00    +0.028 A 
ATOM     20  C   UNL     1       4.286  -0.201  23.098  0.00  0.00    -0.045 A 
ATOM     22  C   UNL     1       3.162  -0.900  23.536  0.00  0.00    +0.006 A 
ATOM     23  C   UNL     1       4.223   1.180  22.916  0.00  0.00    +0.006 A 
BRANCH  20  21
ATOM     21  C   UNL     1       5.558  -0.932  22.825  0.00  0.00    +0.013 C 
ATOM     26  C   UNL     1       5.643  -2.270  23.584  0.00  0.00    +0.012 C 
ATOM     27  C   UNL     1       6.804  -0.078  23.131  0.00  0.00    +0.012 C 
ENDBRANCH  20  21
ENDBRANCH   2  16
ENDBRANCH   5   8
BRANCH   7   1
ATOM      1  N   UNL     1      -5.807   2.722  25.874  0.00  0.00    -0.306 NA
ATOM     32  H   UNL     1      -6.655   3.281  25.965  0.00  0.00    +0.123 HD
BRANCH   1  13
ATOM     13  C   UNL     1      -6.043   1.660  24.905  0.00  0.00    +0.117 C 
BRANCH  13  17
ATOM     17  C   UNL     1      -5.155   0.469  25.149  0.00  0.00    -0.032 A 
ATOM     24  C   UNL     1      -5.073  -0.548  24.196  0.00  0.00    +0.023 A 
ATOM     25  C   UNL     1      -4.412   0.383  26.326  0.00  0.00    +0.005 A 
ATOM     28  C   UNL     1      -4.247  -1.649  24.421  0.00  0.00    +0.052 A 
ATOM     29  C   UNL     1      -3.586  -0.719  26.551  0.00  0.00    +0.002 A 
ATOM     30  C   UNL     1      -3.504  -1.735  25.598  0.00  0.00    +0.019 A 
BRANCH  28  31
ATOM      4  N   UNL     1      -4.095  -3.538  22.656  0.00  0.00    -0.191 NA
ATOM     31  C   UNL     1      -4.164  -2.692  23.447  0.00  0.00    +0.099 C 
ENDBRANCH  28  31
ENDBRANCH  13  17
ENDBRANCH   1  13
ENDBRANCH   7   1
TORSDOF 7
ENDMDL
