MODEL 1
REMARK VINA RESULT:       0.5      0.000      0.000
REMARK  Name = 7142872
REMARK  4 active torsions:
REMARK  status: ('A' for Active; 'I' for Inactive)
REMARK    1  A    between atoms: S_1  and  N_7
REMARK    2  A    between atoms: S_1  and  C_23
REMARK    3  A    between atoms: N_9  and  C_21
REMARK    4  A    between atoms: C_27  and  C_28
REMARK                            x       y       z     vdW  Elec       q    Type
REMARK                         _______ _______ _______ _____ _____    ______ ____
ROOT
ATOM      5  O   UNL     1       0.345   2.452  26.187  0.00  0.00    -0.266 OA
ATOM      7  N   UNL     1      -4.524   2.152  25.170  0.00  0.00    -0.175 NA
ATOM      8  N   UNL     1      -1.523   3.125  24.955  0.00  0.00    -0.310 N 
ATOM     12  C   UNL     1      -3.543   4.285  26.020  0.00  0.00    +0.025 C 
ATOM     13  C   UNL     1      -3.537   3.818  23.609  0.00  0.00    +0.052 C 
ATOM     14  C   UNL     1      -3.722   4.920  24.648  0.00  0.00    +0.017 C 
ATOM     15  C   UNL     1      -4.590   3.182  26.247  0.00  0.00    +0.114 C 
ATOM     16  C   UNL     1      -4.621   2.741  23.801  0.00  0.00    +0.119 C 
ATOM     17  C   UNL     1      -2.106   3.763  26.144  0.00  0.00    +0.130 C 
ATOM     18  C   UNL     1      -2.154   3.200  23.710  0.00  0.00    +0.026 A 
ATOM     19  C   UNL     1      -1.550   2.709  22.615  0.00  0.00    +0.024 A 
ATOM     20  C   UNL     1      -0.256   2.527  25.115  0.00  0.00    +0.273 A 
ATOM     21  C   UNL     1       0.373   1.971  23.875  0.00  0.00    +0.099 A 
ATOM     22  C   UNL     1      -0.262   2.081  22.704  0.00  0.00    +0.030 A 
ENDROOT
BRANCH  21   9
ATOM      6  O   UNL     1       1.425   0.035  22.120  0.00  0.00    -0.268 OA
ATOM      9  N   UNL     1       1.593   1.374  23.990  0.00  0.00    -0.276 N 
ATOM     27  C   UNL     1       2.075   0.416  23.095  0.00  0.00    +0.268 C 
ATOM     32  H   UNL     1       2.256   1.799  24.633  0.00  0.00    +0.155 HD
BRANCH  27  28
ATOM     10  N   UNL     1       4.416   0.812  23.282  0.00  0.00    -0.247 NA
ATOM     11  N   UNL     1       4.866  -1.873  23.958  0.00  0.00    -0.259 NA
ATOM     28  C   UNL     1       3.428  -0.087  23.373  0.00  0.00    +0.144 A 
ATOM     29  C   UNL     1       3.631  -1.399  23.700  0.00  0.00    +0.143 A 
ATOM     30  C   UNL     1       5.652   0.339  23.539  0.00  0.00    +0.131 A 
ATOM     31  C   UNL     1       5.872  -0.980  23.871  0.00  0.00    +0.130 A 
ENDBRANCH  27  28
ENDBRANCH  21   9
BRANCH   7   1
ATOM      1  S   UNL     1      -5.456   0.743  25.436  0.00  0.00    +0.067 S 
ATOM      3  O   UNL     1      -6.524   0.690  24.461  0.00  0.00    -0.152 OA
ATOM      4  O   UNL     1      -5.733   0.621  26.852  0.00  0.00    -0.152 OA
BRANCH   1  23
ATOM      2  S   UNL     1      -2.715  -0.247  25.662  0.00  0.00    -0.077 S 
ATOM     23  C   UNL     1      -4.274  -0.497  25.007  0.00  0.00    +0.143 A 
ATOM     24  C   UNL     1      -4.346  -1.634  24.243  0.00  0.00    +0.036 A 
ATOM     25  C   UNL     1      -3.097  -2.319  24.194  0.00  0.00    +0.010 A 
ATOM     26  C   UNL     1      -2.124  -1.673  24.922  0.00  0.00    +0.047 A 
ENDBRANCH   1  23
ENDBRANCH   7   1
TORSDOF 4
ENDMDL
