MODEL 1
REMARK VINA RESULT:      -0.1      0.000      0.000
REMARK  Name = 45784368
REMARK  13 active torsions:
REMARK  status: ('A' for Active; 'I' for Inactive)
REMARK    1  A    between atoms: O_1  and  C_10
REMARK    2  A    between atoms: O_4  and  C_29
REMARK    3  A    between atoms: O_4  and  C_37
REMARK    4  A    between atoms: N_5  and  C_14
REMARK    5  A    between atoms: N_6  and  C_24
REMARK    6  A    between atoms: C_7  and  C_17
REMARK    7  A    between atoms: C_9  and  C_19
REMARK    8  A    between atoms: C_13  and  C_18
REMARK    9  A    between atoms: C_18  and  C_20
REMARK   10  A    between atoms: C_18  and  C_21
REMARK   11  A    between atoms: C_22  and  C_23
REMARK   12  A    between atoms: C_23  and  C_25
REMARK   13  A    between atoms: C_24  and  C_26
REMARK                            x       y       z     vdW  Elec       q    Type
REMARK                         _______ _______ _______ _____ _____    ______ ____
ROOT
ATOM      7  C   UNL     1      -2.260  -0.844  25.225  0.00  0.00    -0.027 C 
ATOM      8  C   UNL     1      -2.425   0.268  24.136  0.00  0.00    +0.028 C 
ATOM      9  C   UNL     1      -1.028   0.850  23.716  0.00  0.00    +0.012 C 
ATOM     10  C   UNL     1      -3.486   1.321  24.564  0.00  0.00    +0.122 C 
ATOM     11  C   UNL     1      -3.639  -1.473  25.533  0.00  0.00    +0.007 C 
ATOM     12  C   UNL     1      -1.347  -1.962  24.669  0.00  0.00    +0.009 C 
ATOM     13  C   UNL     1      -4.833   0.678  24.972  0.00  0.00    +0.029 C 
ATOM     14  C   UNL     1      -0.093  -0.293  23.230  0.00  0.00    +0.076 C 
ATOM     15  C   UNL     1      -4.671  -0.450  25.990  0.00  0.00    +0.007 C 
ATOM     16  C   UNL     1       0.015  -1.453  24.220  0.00  0.00    +0.023 C 
ATOM     17  C   UNL     1      -1.655  -0.301  26.544  0.00  0.00    +0.011 C 
ATOM     19  C   UNL     1      -1.114   1.931  22.625  0.00  0.00    +0.010 C 
ENDROOT
BRANCH  14   5
ATOM      3  O   UNL     1       1.397  -0.681  20.798  0.00  0.00    -0.275 OA
ATOM      5  N   UNL     1       1.242   0.190  22.944  0.00  0.00    -0.312 N 
ATOM     22  C   UNL     1       1.878  -0.049  21.736  0.00  0.00    +0.218 C 
ATOM     38  H   UNL     1       1.739   0.669  23.690  0.00  0.00    +0.149 HD
BRANCH  22  23
ATOM     23  C   UNL     1       3.259   0.575  21.705  0.00  0.00    +0.130 C 
BRANCH  23  25
ATOM     25  C   UNL     1       4.174   0.055  22.782  0.00  0.00    -0.039 A 
ATOM     27  C   UNL     1       4.083  -1.275  23.193  0.00  0.00    +0.004 A 
ATOM     28  C   UNL     1       5.114   0.904  23.368  0.00  0.00    +0.004 A 
ATOM     31  C   UNL     1       4.930  -1.756  24.190  0.00  0.00    +0.000 A 
ATOM     32  C   UNL     1       5.961   0.423  24.365  0.00  0.00    +0.000 A 
ATOM     33  C   UNL     1       5.870  -0.907  24.776  0.00  0.00    +0.000 A 
ENDBRANCH  23  25
ENDBRANCH  22  23
ENDBRANCH  14   5
BRANCH  10   1
ATOM      1  O   UNL     1      -3.766   2.190  23.465  0.00  0.00    -0.391 OA
ATOM     39  H   UNL     1      -3.518   3.095  23.725  0.00  0.00    +0.210 HD
ENDBRANCH  10   1
BRANCH  13  18
ATOM     18  C   UNL     1      -5.820   1.719  25.512  0.00  0.00    +0.077 C 
ATOM     20  C   UNL     1      -7.006   1.860  24.564  0.00  0.00    +0.017 C 
BRANCH  18  21
ATOM      2  O   UNL     1      -5.450   4.083  25.138  0.00  0.00    -0.276 OA
ATOM      6  N   UNL     1      -4.056   2.963  26.614  0.00  0.00    -0.311 N 
ATOM     21  C   UNL     1      -5.110   3.053  25.717  0.00  0.00    +0.216 C 
ATOM     40  H   UNL     1      -3.872   2.086  27.093  0.00  0.00    +0.149 HD
BRANCH   6  24
ATOM     24  C   UNL     1      -3.232   4.094  26.968  0.00  0.00    +0.143 C 
BRANCH  24  26
ATOM     26  C   UNL     1      -2.182   4.371  25.931  0.00  0.00    +0.011 A 
ATOM     29  C   UNL     1      -1.019   3.604  25.870  0.00  0.00    +0.125 A 
ATOM     30  C   UNL     1      -2.380   5.411  25.022  0.00  0.00    +0.009 A 
ATOM     34  C   UNL     1      -0.055   3.875  24.899  0.00  0.00    +0.046 A 
ATOM     35  C   UNL     1      -1.416   5.683  24.052  0.00  0.00    +0.001 A 
ATOM     36  C   UNL     1      -0.253   4.915  23.991  0.00  0.00    +0.004 A 
BRANCH  29   4
ATOM      4  O   UNL     1      -0.810   2.585  26.750  0.00  0.00    -0.495 OA
ATOM     37  C   UNL     1       0.529   2.379  27.194  0.00  0.00    +0.277 C 
ENDBRANCH  29   4
ENDBRANCH  24  26
ENDBRANCH   6  24
ENDBRANCH  18  21
ENDBRANCH  13  18
TORSDOF 9
ENDMDL
MODEL 2
REMARK VINA RESULT:       0.8      0.817      1.718
REMARK  Name = 45784368
REMARK  13 active torsions:
REMARK  status: ('A' for Active; 'I' for Inactive)
REMARK    1  A    between atoms: O_1  and  C_10
REMARK    2  A    between atoms: O_4  and  C_29
REMARK    3  A    between atoms: O_4  and  C_37
REMARK    4  A    between atoms: N_5  and  C_14
REMARK    5  A    between atoms: N_6  and  C_24
REMARK    6  A    between atoms: C_7  and  C_17
REMARK    7  A    between atoms: C_9  and  C_19
REMARK    8  A    between atoms: C_13  and  C_18
REMARK    9  A    between atoms: C_18  and  C_20
REMARK   10  A    between atoms: C_18  and  C_21
REMARK   11  A    between atoms: C_22  and  C_23
REMARK   12  A    between atoms: C_23  and  C_25
REMARK   13  A    between atoms: C_24  and  C_26
REMARK                            x       y       z     vdW  Elec       q    Type
REMARK                         _______ _______ _______ _____ _____    ______ ____
ROOT
ATOM      7  C   UNL     1      -2.398  -0.837  25.207  0.00  0.00    -0.027 C 
ATOM      8  C   UNL     1      -2.575   0.267  24.111  0.00  0.00    +0.028 C 
ATOM      9  C   UNL     1      -1.186   0.880  23.707  0.00  0.00    +0.012 C 
ATOM     10  C   UNL     1      -3.666   1.296  24.520  0.00  0.00    +0.122 C 
ATOM     11  C   UNL     1      -3.766  -1.497  25.501  0.00  0.00    +0.007 C 
ATOM     12  C   UNL     1      -1.451  -1.935  24.669  0.00  0.00    +0.009 C 
ATOM     13  C   UNL     1      -5.002   0.623  24.913  0.00  0.00    +0.029 C 
ATOM     14  C   UNL     1      -0.218  -0.243  23.238  0.00  0.00    +0.076 C 
ATOM     15  C   UNL     1      -4.827  -0.496  25.939  0.00  0.00    +0.007 C 
ATOM     16  C   UNL     1      -0.096  -1.395  24.235  0.00  0.00    +0.023 C 
ATOM     17  C   UNL     1      -1.824  -0.273  26.532  0.00  0.00    +0.011 C 
ATOM     19  C   UNL     1      -1.284   1.953  22.610  0.00  0.00    +0.010 C 
ENDROOT
BRANCH  14   5
ATOM      3  O   UNL     1       1.373  -0.730  20.890  0.00  0.00    -0.275 OA
ATOM      5  N   UNL     1       1.109   0.271  22.968  0.00  0.00    -0.312 N 
ATOM     22  C   UNL     1       1.796  -0.022  21.801  0.00  0.00    +0.218 C 
ATOM     38  H   UNL     1       1.561   0.814  23.697  0.00  0.00    +0.149 HD
BRANCH  22  23
ATOM     23  C   UNL     1       3.155   0.651  21.776  0.00  0.00    +0.130 C 
BRANCH  23  25
ATOM     25  C   UNL     1       4.113   0.099  22.799  0.00  0.00    -0.039 A 
ATOM     27  C   UNL     1       5.113   0.913  23.329  0.00  0.00    +0.004 A 
ATOM     28  C   UNL     1       3.998  -1.227  23.218  0.00  0.00    +0.004 A 
ATOM     31  C   UNL     1       6.000   0.402  24.277  0.00  0.00    +0.000 A 
ATOM     32  C   UNL     1       4.884  -1.739  24.165  0.00  0.00    +0.000 A 
ATOM     33  C   UNL     1       5.885  -0.924  24.695  0.00  0.00    +0.000 A 
ENDBRANCH  23  25
ENDBRANCH  22  23
ENDBRANCH  14   5
BRANCH  10   1
ATOM      1  O   UNL     1      -3.951   2.153  23.414  0.00  0.00    -0.391 OA
ATOM     39  H   UNL     1      -4.713   1.785  22.933  0.00  0.00    +0.210 HD
ENDBRANCH  10   1
BRANCH  13  18
ATOM     18  C   UNL     1      -6.022   1.643  25.435  0.00  0.00    +0.077 C 
ATOM     20  C   UNL     1      -7.158   1.811  24.432  0.00  0.00    +0.017 C 
BRANCH  18  21
ATOM      2  O   UNL     1      -5.789   4.052  25.355  0.00  0.00    -0.276 OA
ATOM      6  N   UNL     1      -4.143   2.814  26.421  0.00  0.00    -0.311 N 
ATOM     21  C   UNL     1      -5.329   2.972  25.719  0.00  0.00    +0.216 C 
ATOM     40  H   UNL     1      -3.858   1.891  26.734  0.00  0.00    +0.149 HD
BRANCH   6  24
ATOM     24  C   UNL     1      -3.308   3.928  26.805  0.00  0.00    +0.143 C 
BRANCH  24  26
ATOM     26  C   UNL     1      -1.962   3.876  26.141  0.00  0.00    +0.011 A 
ATOM     29  C   UNL     1      -1.620   4.792  25.148  0.00  0.00    +0.125 A 
ATOM     30  C   UNL     1      -1.048   2.896  26.530  0.00  0.00    +0.009 A 
ATOM     34  C   UNL     1      -0.365   4.731  24.543  0.00  0.00    +0.046 A 
ATOM     35  C   UNL     1       0.207   2.833  25.925  0.00  0.00    +0.001 A 
ATOM     36  C   UNL     1       0.548   3.751  24.931  0.00  0.00    +0.004 A 
BRANCH  29   4
ATOM      4  O   UNL     1      -2.501   5.756  24.756  0.00  0.00    -0.495 OA
ATOM     37  C   UNL     1      -3.352   5.445  23.655  0.00  0.00    +0.277 C 
ENDBRANCH  29   4
ENDBRANCH  24  26
ENDBRANCH   6  24
ENDBRANCH  18  21
ENDBRANCH  13  18
TORSDOF 9
ENDMDL
