MODEL 1
REMARK VINA RESULT:      -4.2      0.000      0.000
REMARK  Name = 26744592
REMARK  6 active torsions:
REMARK  status: ('A' for Active; 'I' for Inactive)
REMARK    1  A    between atoms: O_3  and  C_11
REMARK    2  A    between atoms: N_5  and  C_13
REMARK    3  A    between atoms: C_9  and  C_14
REMARK    4  A    between atoms: C_13  and  C_15
REMARK    5  A    between atoms: C_16  and  C_19
REMARK    6  A    between atoms: C_19  and  C_21
REMARK                            x       y       z     vdW  Elec       q    Type
REMARK                         _______ _______ _______ _____ _____    ______ ____
ROOT
ATOM      5  N   UNL     1       0.567  -0.333  23.645  0.00  0.00    -0.285 NA
ATOM      9  C   UNL     1       1.303   0.805  24.229  0.00  0.00    +0.149 C 
ATOM     10  C   UNL     1       2.237   1.290  23.105  0.00  0.00    +0.061 C 
ATOM     11  C   UNL     1       1.988   0.334  21.946  0.00  0.00    +0.130 C 
ATOM     12  C   UNL     1       1.439  -0.908  22.622  0.00  0.00    +0.116 C 
ENDROOT
BRANCH   9  14
ATOM      4  O   UNL     1       0.665   2.407  25.963  0.00  0.00    -0.336 OA
ATOM      6  N   UNL     1      -0.665   2.431  24.161  0.00  0.00    -0.194 NA
ATOM      7  N   UNL     1      -0.310   3.382  26.211  0.00  0.00    -0.061 NA
ATOM     14  C   UNL     1       0.382   1.897  24.736  0.00  0.00    +0.245 A 
ATOM     16  C   UNL     1      -1.056   3.337  25.104  0.00  0.00    +0.176 A 
BRANCH  16  19
ATOM     19  C   UNL     1      -2.223   4.206  24.917  0.00  0.00    +0.116 C 
BRANCH  19  21
ATOM      1 CL   UNL     1      -2.977   2.480  22.458  0.00  0.00    -0.083 Cl
ATOM      2  F   UNL     1      -7.226   1.575  25.044  0.00  0.00    -0.205 F 
ATOM     21  C   UNL     1      -3.566   3.484  24.921  0.00  0.00    -0.021 A 
ATOM     23  C   UNL     1      -3.975   2.690  23.849  0.00  0.00    +0.047 A 
ATOM     24  C   UNL     1      -4.394   3.633  26.034  0.00  0.00    +0.008 A 
ATOM     25  C   UNL     1      -5.210   2.044  23.891  0.00  0.00    +0.058 A 
ATOM     26  C   UNL     1      -5.629   2.988  26.076  0.00  0.00    +0.039 A 
ATOM     27  C   UNL     1      -6.038   2.194  25.004  0.00  0.00    +0.125 A 
ENDBRANCH  19  21
ENDBRANCH  16  19
ENDBRANCH   9  14
BRANCH  11   3
ATOM      3  O   UNL     1       3.189   0.064  21.250  0.00  0.00    -0.390 OA
ATOM     28  H   UNL     1       3.792  -0.382  21.869  0.00  0.00    +0.210 HD
ENDBRANCH  11   3
BRANCH   5  13
ATOM     13  C   UNL     1       0.157  -1.321  24.635  0.00  0.00    +0.122 C 
BRANCH  13  15
ATOM      8  N   UNL     1      -3.353  -2.684  24.246  0.00  0.00    -0.263 NA
ATOM     15  C   UNL     1      -1.342  -1.432  24.728  0.00  0.00    -0.015 A 
ATOM     17  C   UNL     1      -2.097  -0.443  25.348  0.00  0.00    +0.008 A 
ATOM     18  C   UNL     1      -2.012  -2.523  24.197  0.00  0.00    +0.115 A 
ATOM     20  C   UNL     1      -3.480  -0.573  25.417  0.00  0.00    +0.020 A 
ATOM     22  C   UNL     1      -4.055  -1.702  24.856  0.00  0.00    +0.111 A 
ENDBRANCH  13  15
ENDBRANCH   5  13
TORSDOF 6
ENDMDL
MODEL 2
REMARK VINA RESULT:      -2.5      3.661      6.809
REMARK  Name = 26744592
REMARK  6 active torsions:
REMARK  status: ('A' for Active; 'I' for Inactive)
REMARK    1  A    between atoms: O_3  and  C_11
REMARK    2  A    between atoms: N_5  and  C_13
REMARK    3  A    between atoms: C_9  and  C_14
REMARK    4  A    between atoms: C_13  and  C_15
REMARK    5  A    between atoms: C_16  and  C_19
REMARK    6  A    between atoms: C_19  and  C_21
REMARK                            x       y       z     vdW  Elec       q    Type
REMARK                         _______ _______ _______ _____ _____    ______ ____
ROOT
ATOM      5  N   UNL     1      -3.473   2.128  25.085  0.00  0.00    -0.285 NA
ATOM      9  C   UNL     1      -2.471   2.879  24.303  0.00  0.00    +0.149 C 
ATOM     10  C   UNL     1      -2.250   4.182  25.093  0.00  0.00    +0.061 C 
ATOM     11  C   UNL     1      -3.206   4.093  26.276  0.00  0.00    +0.130 C 
ATOM     12  C   UNL     1      -4.270   3.123  25.799  0.00  0.00    +0.116 C 
ENDROOT
BRANCH   9  14
ATOM      4  O   UNL     1      -0.124   2.467  24.851  0.00  0.00    -0.336 OA
ATOM      6  N   UNL     1      -0.949   1.103  23.278  0.00  0.00    -0.194 NA
ATOM      7  N   UNL     1       0.927   1.616  24.484  0.00  0.00    -0.061 NA
ATOM     14  C   UNL     1      -1.190   2.097  24.094  0.00  0.00    +0.245 A 
ATOM     16  C   UNL     1       0.362   0.842  23.553  0.00  0.00    +0.176 A 
BRANCH  16  19
ATOM     19  C   UNL     1       1.108  -0.222  22.870  0.00  0.00    +0.116 C 
BRANCH  19  21
ATOM      1 CL   UNL     1       2.485  -2.424  24.558  0.00  0.00    -0.083 Cl
ATOM      2  F   UNL     1       6.720   0.113  23.468  0.00  0.00    -0.205 F 
ATOM     21  C   UNL     1       2.621  -0.158  23.049  0.00  0.00    -0.021 A 
ATOM     23  C   UNL     1       3.311  -1.114  23.797  0.00  0.00    +0.047 A 
ATOM     24  C   UNL     1       3.316   0.888  22.444  0.00  0.00    +0.008 A 
ATOM     25  C   UNL     1       4.695  -1.022  23.938  0.00  0.00    +0.058 A 
ATOM     26  C   UNL     1       4.700   0.980  22.585  0.00  0.00    +0.039 A 
ATOM     27  C   UNL     1       5.390   0.025  23.332  0.00  0.00    +0.125 A 
ENDBRANCH  19  21
ENDBRANCH  16  19
ENDBRANCH   9  14
BRANCH  11   3
ATOM      3  O   UNL     1      -3.750   5.362  26.579  0.00  0.00    -0.390 OA
ATOM     28  H   UNL     1      -4.709   5.313  26.424  0.00  0.00    +0.210 HD
ENDBRANCH  11   3
BRANCH   5  13
ATOM     13  C   UNL     1      -4.298   1.248  24.267  0.00  0.00    +0.122 C 
BRANCH  13  15
ATOM      8  N   UNL     1      -3.217  -1.898  26.073  0.00  0.00    -0.263 NA
ATOM     15  C   UNL     1      -4.013  -0.204  24.543  0.00  0.00    -0.015 A 
ATOM     17  C   UNL     1      -4.257  -1.178  23.580  0.00  0.00    +0.008 A 
ATOM     18  C   UNL     1      -3.497  -0.612  25.762  0.00  0.00    +0.115 A 
ATOM     20  C   UNL     1      -3.982  -2.511  23.864  0.00  0.00    +0.020 A 
ATOM     22  C   UNL     1      -3.468  -2.817  25.113  0.00  0.00    +0.111 A 
ENDBRANCH  13  15
ENDBRANCH   5  13
TORSDOF 6
ENDMDL
MODEL 3
REMARK VINA RESULT:      -1.1      1.672      3.647
REMARK  Name = 26744592
REMARK  6 active torsions:
REMARK  status: ('A' for Active; 'I' for Inactive)
REMARK    1  A    between atoms: O_3  and  C_11
REMARK    2  A    between atoms: N_5  and  C_13
REMARK    3  A    between atoms: C_9  and  C_14
REMARK    4  A    between atoms: C_13  and  C_15
REMARK    5  A    between atoms: C_16  and  C_19
REMARK    6  A    between atoms: C_19  and  C_21
REMARK                            x       y       z     vdW  Elec       q    Type
REMARK                         _______ _______ _______ _____ _____    ______ ____
ROOT
ATOM      5  N   UNL     1       1.425   1.478  23.737  0.00  0.00    -0.285 NA
ATOM      9  C   UNL     1       0.754   0.419  22.957  0.00  0.00    +0.149 C 
ATOM     10  C   UNL     1       1.816  -0.683  22.792  0.00  0.00    +0.061 C 
ATOM     11  C   UNL     1       3.064  -0.132  23.471  0.00  0.00    +0.130 C 
ATOM     12  C   UNL     1       2.852   1.370  23.439  0.00  0.00    +0.116 C 
ENDROOT
BRANCH   9  14
ATOM      4  O   UNL     1      -0.354  -1.033  24.582  0.00  0.00    -0.336 OA
ATOM      6  N   UNL     1      -1.754   0.265  23.412  0.00  0.00    -0.194 NA
ATOM      7  N   UNL     1      -1.642  -1.335  25.043  0.00  0.00    -0.061 NA
ATOM     14  C   UNL     1      -0.511  -0.083  23.624  0.00  0.00    +0.245 A 
ATOM     16  C   UNL     1      -2.412  -0.530  24.305  0.00  0.00    +0.176 A 
BRANCH  16  19
ATOM     19  C   UNL     1      -3.872  -0.505  24.448  0.00  0.00    +0.116 C 
BRANCH  19  21
ATOM      1 CL   UNL     1      -3.119   1.881  22.621  0.00  0.00    -0.083 Cl
ATOM      2  F   UNL     1      -6.109   4.530  25.719  0.00  0.00    -0.205 F 
ATOM     21  C   UNL     1      -4.460   0.866  24.765  0.00  0.00    -0.021 A 
ATOM     23  C   UNL     1      -4.165   1.988  23.989  0.00  0.00    +0.047 A 
ATOM     24  C   UNL     1      -5.311   0.983  25.864  0.00  0.00    +0.008 A 
ATOM     25  C   UNL     1      -4.723   3.225  24.311  0.00  0.00    +0.058 A 
ATOM     26  C   UNL     1      -5.869   2.220  26.186  0.00  0.00    +0.039 A 
ATOM     27  C   UNL     1      -5.574   3.341  25.409  0.00  0.00    +0.125 A 
ENDBRANCH  19  21
ENDBRANCH  16  19
ENDBRANCH   9  14
BRANCH  11   3
ATOM      3  O   UNL     1       4.229  -0.512  22.766  0.00  0.00    -0.390 OA
ATOM     28  H   UNL     1       4.943   0.092  23.033  0.00  0.00    +0.210 HD
ENDBRANCH  11   3
BRANCH   5  13
ATOM     13  C   UNL     1       0.907   2.811  23.459  0.00  0.00    +0.122 C 
BRANCH  13  15
ATOM      8  N   UNL     1      -1.310   2.771  26.528  0.00  0.00    -0.263 NA
ATOM     15  C   UNL     1      -0.120   3.237  24.475  0.00  0.00    -0.015 A 
ATOM     17  C   UNL     1      -0.816   4.432  24.334  0.00  0.00    +0.008 A 
ATOM     18  C   UNL     1      -0.401   2.449  25.580  0.00  0.00    +0.115 A 
ATOM     20  C   UNL     1      -1.759   4.797  25.289  0.00  0.00    +0.020 A 
ATOM     22  C   UNL     1      -1.967   3.940  26.357  0.00  0.00    +0.111 A 
ENDBRANCH  13  15
ENDBRANCH   5  13
TORSDOF 6
ENDMDL
MODEL 4
REMARK VINA RESULT:      -1.1      3.372      6.509
REMARK  Name = 26744592
REMARK  6 active torsions:
REMARK  status: ('A' for Active; 'I' for Inactive)
REMARK    1  A    between atoms: O_3  and  C_11
REMARK    2  A    between atoms: N_5  and  C_13
REMARK    3  A    between atoms: C_9  and  C_14
REMARK    4  A    between atoms: C_13  and  C_15
REMARK    5  A    between atoms: C_16  and  C_19
REMARK    6  A    between atoms: C_19  and  C_21
REMARK                            x       y       z     vdW  Elec       q    Type
REMARK                         _______ _______ _______ _____ _____    ______ ____
ROOT
ATOM      5  N   UNL     1      -5.073   1.690  25.045  0.00  0.00    -0.285 NA
ATOM      9  C   UNL     1      -4.427   2.613  24.092  0.00  0.00    +0.149 C 
ATOM     10  C   UNL     1      -4.743   4.021  24.629  0.00  0.00    +0.061 C 
ATOM     11  C   UNL     1      -5.611   3.787  25.860  0.00  0.00    +0.130 C 
ATOM     12  C   UNL     1      -6.207   2.413  25.618  0.00  0.00    +0.116 C 
ENDROOT
BRANCH   9  14
ATOM      4  O   UNL     1      -2.464   2.216  22.689  0.00  0.00    -0.336 OA
ATOM      6  N   UNL     1      -2.026   2.257  24.885  0.00  0.00    -0.194 NA
ATOM      7  N   UNL     1      -1.087   1.993  22.815  0.00  0.00    -0.061 NA
ATOM     14  C   UNL     1      -2.939   2.361  23.953  0.00  0.00    +0.245 A 
ATOM     16  C   UNL     1      -0.906   2.032  24.138  0.00  0.00    +0.176 A 
BRANCH  16  19
ATOM     19  C   UNL     1       0.415   1.842  24.748  0.00  0.00    +0.116 C 
BRANCH  19  21
ATOM      1 CL   UNL     1      -0.019  -1.016  23.635  0.00  0.00    -0.083 Cl
ATOM      2  F   UNL     1       4.396  -0.221  21.303  0.00  0.00    -0.205 F 
ATOM     21  C   UNL     1       1.472   1.258  23.816  0.00  0.00    -0.021 A 
ATOM     23  C   UNL     1       1.346  -0.023  23.276  0.00  0.00    +0.047 A 
ATOM     24  C   UNL     1       2.586   2.039  23.506  0.00  0.00    +0.008 A 
ATOM     25  C   UNL     1       2.333  -0.522  22.427  0.00  0.00    +0.058 A 
ATOM     26  C   UNL     1       3.573   1.540  22.657  0.00  0.00    +0.039 A 
ATOM     27  C   UNL     1       3.447   0.259  22.118  0.00  0.00    +0.125 A 
ENDBRANCH  19  21
ENDBRANCH  16  19
ENDBRANCH   9  14
BRANCH  11   3
ATOM      3  O   UNL     1      -6.611   4.781  25.967  0.00  0.00    -0.390 OA
ATOM     28  H   UNL     1      -7.260   4.473  26.622  0.00  0.00    +0.210 HD
ENDBRANCH  11   3
BRANCH   5  13
ATOM     13  C   UNL     1      -5.477   0.428  24.439  0.00  0.00    +0.122 C 
BRANCH  13  15
ATOM      8  N   UNL     1      -2.658  -1.537  26.026  0.00  0.00    -0.263 NA
ATOM     15  C   UNL     1      -4.465  -0.660  24.680  0.00  0.00    -0.015 A 
ATOM     17  C   UNL     1      -4.378  -1.759  23.833  0.00  0.00    +0.008 A 
ATOM     18  C   UNL     1      -3.590  -0.597  25.753  0.00  0.00    +0.115 A 
ATOM     20  C   UNL     1      -3.431  -2.747  24.081  0.00  0.00    +0.020 A 
ATOM     22  C   UNL     1      -2.602  -2.591  25.180  0.00  0.00    +0.111 A 
ENDBRANCH  13  15
ENDBRANCH   5  13
TORSDOF 6
ENDMDL
MODEL 5
REMARK VINA RESULT:      -1.1      2.975      5.309
REMARK  Name = 26744592
REMARK  6 active torsions:
REMARK  status: ('A' for Active; 'I' for Inactive)
REMARK    1  A    between atoms: O_3  and  C_11
REMARK    2  A    between atoms: N_5  and  C_13
REMARK    3  A    between atoms: C_9  and  C_14
REMARK    4  A    between atoms: C_13  and  C_15
REMARK    5  A    between atoms: C_16  and  C_19
REMARK    6  A    between atoms: C_19  and  C_21
REMARK                            x       y       z     vdW  Elec       q    Type
REMARK                         _______ _______ _______ _____ _____    ______ ____
ROOT
ATOM      5  N   UNL     1      -3.853  -0.843  24.493  0.00  0.00    -0.285 NA
ATOM      9  C   UNL     1      -2.623  -1.567  24.874  0.00  0.00    +0.149 C 
ATOM     10  C   UNL     1      -2.724  -2.923  24.152  0.00  0.00    +0.061 C 
ATOM     11  C   UNL     1      -4.065  -2.886  23.429  0.00  0.00    +0.130 C 
ATOM     12  C   UNL     1      -4.862  -1.862  24.214  0.00  0.00    +0.116 C 
ENDROOT
BRANCH   9  14
ATOM      4  O   UNL     1      -0.362  -1.525  23.946  0.00  0.00    -0.336 OA
ATOM      6  N   UNL     1      -1.088   0.464  24.676  0.00  0.00    -0.194 NA
ATOM      7  N   UNL     1       0.681  -0.619  23.711  0.00  0.00    -0.061 NA
ATOM     14  C   UNL     1      -1.363  -0.805  24.516  0.00  0.00    +0.245 A 
ATOM     16  C   UNL     1       0.177   0.530  24.168  0.00  0.00    +0.176 A 
BRANCH  16  19
ATOM     19  C   UNL     1       0.938   1.784  24.126  0.00  0.00    +0.116 C 
BRANCH  19  21
ATOM      1 CL   UNL     1      -0.201   2.056  26.994  0.00  0.00    -0.083 Cl
ATOM      2  F   UNL     1      -2.030   6.453  25.295  0.00  0.00    -0.205 F 
ATOM     21  C   UNL     1       0.133   3.033  24.472  0.00  0.00    -0.021 A 
ATOM     23  C   UNL     1      -0.412   3.225  25.742  0.00  0.00    +0.047 A 
ATOM     24  C   UNL     1      -0.053   3.996  23.480  0.00  0.00    +0.008 A 
ATOM     25  C   UNL     1      -1.142   4.380  26.020  0.00  0.00    +0.058 A 
ATOM     26  C   UNL     1      -0.783   5.151  23.758  0.00  0.00    +0.039 A 
ATOM     27  C   UNL     1      -1.328   5.343  25.028  0.00  0.00    +0.125 A 
ENDBRANCH  19  21
ENDBRANCH  16  19
ENDBRANCH   9  14
BRANCH  11   3
ATOM      3  O   UNL     1      -4.682  -4.158  23.449  0.00  0.00    -0.390 OA
ATOM     28  H   UNL     1      -5.584  -4.051  23.102  0.00  0.00    +0.210 HD
ENDBRANCH  11   3
BRANCH   5  13
ATOM     13  C   UNL     1      -4.297   0.107  25.505  0.00  0.00    +0.122 C 
BRANCH  13  15
ATOM      8  N   UNL     1      -4.948   3.830  25.291  0.00  0.00    -0.263 NA
ATOM     15  C   UNL     1      -4.312   1.518  24.980  0.00  0.00    -0.015 A 
ATOM     17  C   UNL     1      -3.739   1.833  23.753  0.00  0.00    +0.008 A 
ATOM     18  C   UNL     1      -4.899   2.543  25.704  0.00  0.00    +0.115 A 
ATOM     20  C   UNL     1      -3.770   3.145  23.294  0.00  0.00    +0.020 A 
ATOM     22  C   UNL     1      -4.381   4.098  24.093  0.00  0.00    +0.111 A 
ENDBRANCH  13  15
ENDBRANCH   5  13
TORSDOF 6
ENDMDL
MODEL 6
REMARK VINA RESULT:      -1.0      3.949      7.185
REMARK  Name = 26744592
REMARK  6 active torsions:
REMARK  status: ('A' for Active; 'I' for Inactive)
REMARK    1  A    between atoms: O_3  and  C_11
REMARK    2  A    between atoms: N_5  and  C_13
REMARK    3  A    between atoms: C_9  and  C_14
REMARK    4  A    between atoms: C_13  and  C_15
REMARK    5  A    between atoms: C_16  and  C_19
REMARK    6  A    between atoms: C_19  and  C_21
REMARK                            x       y       z     vdW  Elec       q    Type
REMARK                         _______ _______ _______ _____ _____    ______ ____
ROOT
ATOM      5  N   UNL     1      -3.410  -0.579  24.612  0.00  0.00    -0.285 NA
ATOM      9  C   UNL     1      -2.133  -1.236  24.954  0.00  0.00    +0.149 C 
ATOM     10  C   UNL     1      -2.283  -2.680  24.442  0.00  0.00    +0.061 C 
ATOM     11  C   UNL     1      -3.694  -2.751  23.870  0.00  0.00    +0.130 C 
ATOM     12  C   UNL     1      -4.423  -1.631  24.588  0.00  0.00    +0.116 C 
ENDROOT
BRANCH   9  14
ATOM      4  O   UNL     1      -0.623   0.685  24.888  0.00  0.00    -0.336 OA
ATOM      6  N   UNL     1      -0.139  -0.909  23.393  0.00  0.00    -0.194 NA
ATOM      7  N   UNL     1       0.501   1.139  24.186  0.00  0.00    -0.061 NA
ATOM     14  C   UNL     1      -0.934  -0.526  24.359  0.00  0.00    +0.245 A 
ATOM     16  C   UNL     1       0.725   0.145  23.322  0.00  0.00    +0.176 A 
BRANCH  16  19
ATOM     19  C   UNL     1       1.831   0.186  22.359  0.00  0.00    +0.116 C 
BRANCH  19  21
ATOM      1 CL   UNL     1       3.932   2.462  22.327  0.00  0.00    -0.083 Cl
ATOM      2  F   UNL     1       6.901  -0.946  24.592  0.00  0.00    -0.205 F 
ATOM     21  C   UNL     1       3.208  -0.089  22.954  0.00  0.00    -0.021 A 
ATOM     23  C   UNL     1       4.206   0.886  22.974  0.00  0.00    +0.047 A 
ATOM     24  C   UNL     1       3.459  -1.353  23.487  0.00  0.00    +0.008 A 
ATOM     25  C   UNL     1       5.453   0.597  23.528  0.00  0.00    +0.058 A 
ATOM     26  C   UNL     1       4.705  -1.643  24.041  0.00  0.00    +0.039 A 
ATOM     27  C   UNL     1       5.703  -0.667  24.061  0.00  0.00    +0.125 A 
ENDBRANCH  19  21
ENDBRANCH  16  19
ENDBRANCH   9  14
BRANCH  11   3
ATOM      3  O   UNL     1      -4.279  -4.011  24.133  0.00  0.00    -0.390 OA
ATOM     28  H   UNL     1      -4.817  -3.922  24.938  0.00  0.00    +0.210 HD
ENDBRANCH  11   3
BRANCH   5  13
ATOM     13  C   UNL     1      -3.762   0.501  25.525  0.00  0.00    +0.122 C 
BRANCH  13  15
ATOM      8  N   UNL     1      -4.311   4.198  24.920  0.00  0.00    -0.263 NA
ATOM     15  C   UNL     1      -3.833   1.830  24.820  0.00  0.00    -0.015 A 
ATOM     17  C   UNL     1      -3.506   1.945  23.473  0.00  0.00    +0.008 A 
ATOM     18  C   UNL     1      -4.226   2.975  25.493  0.00  0.00    +0.115 A 
ATOM     20  C   UNL     1      -3.582   3.186  22.850  0.00  0.00    +0.020 A 
ATOM     22  C   UNL     1      -3.986   4.271  23.610  0.00  0.00    +0.111 A 
ENDBRANCH  13  15
ENDBRANCH   5  13
TORSDOF 6
ENDMDL
MODEL 7
REMARK VINA RESULT:      -0.9      3.055      5.951
REMARK  Name = 26744592
REMARK  6 active torsions:
REMARK  status: ('A' for Active; 'I' for Inactive)
REMARK    1  A    between atoms: O_3  and  C_11
REMARK    2  A    between atoms: N_5  and  C_13
REMARK    3  A    between atoms: C_9  and  C_14
REMARK    4  A    between atoms: C_13  and  C_15
REMARK    5  A    between atoms: C_16  and  C_19
REMARK    6  A    between atoms: C_19  and  C_21
REMARK                            x       y       z     vdW  Elec       q    Type
REMARK                         _______ _______ _______ _____ _____    ______ ____
ROOT
ATOM      5  N   UNL     1      -4.491   1.936  24.884  0.00  0.00    -0.285 NA
ATOM      9  C   UNL     1      -3.644   3.085  24.507  0.00  0.00    +0.149 C 
ATOM     10  C   UNL     1      -4.274   4.292  25.225  0.00  0.00    +0.061 C 
ATOM     11  C   UNL     1      -5.496   3.731  25.941  0.00  0.00    +0.130 C 
ATOM     12  C   UNL     1      -5.822   2.475  25.155  0.00  0.00    +0.116 C 
ENDROOT
BRANCH   9  14
ATOM      4  O   UNL     1      -1.754   3.502  26.001  0.00  0.00    -0.336 OA
ATOM      6  N   UNL     1      -1.267   2.186  24.256  0.00  0.00    -0.194 NA
ATOM      7  N   UNL     1      -0.398   3.172  26.129  0.00  0.00    -0.061 NA
ATOM     14  C   UNL     1      -2.188   2.881  24.874  0.00  0.00    +0.245 A 
ATOM     16  C   UNL     1      -0.187   2.395  25.063  0.00  0.00    +0.176 A 
BRANCH  16  19
ATOM     19  C   UNL     1       1.127   1.805  24.780  0.00  0.00    +0.116 C 
BRANCH  19  21
ATOM      1 CL   UNL     1       3.756   1.540  23.164  0.00  0.00    -0.083 Cl
ATOM      2  F   UNL     1       1.117  -1.770  20.399  0.00  0.00    -0.205 F 
ATOM     21  C   UNL     1       1.155   0.848  23.592  0.00  0.00    -0.021 A 
ATOM     23  C   UNL     1       2.302   0.677  22.817  0.00  0.00    +0.047 A 
ATOM     24  C   UNL     1      -0.004   0.135  23.289  0.00  0.00    +0.008 A 
ATOM     25  C   UNL     1       2.289  -0.207  21.739  0.00  0.00    +0.058 A 
ATOM     26  C   UNL     1      -0.017  -0.749  22.211  0.00  0.00    +0.039 A 
ATOM     27  C   UNL     1       1.129  -0.920  21.435  0.00  0.00    +0.125 A 
ENDBRANCH  19  21
ENDBRANCH  16  19
ENDBRANCH   9  14
BRANCH  11   3
ATOM      3  O   UNL     1      -6.563   4.658  25.916  0.00  0.00    -0.390 OA
ATOM     28  H   UNL     1      -6.184   5.537  25.742  0.00  0.00    +0.210 HD
ENDBRANCH  11   3
BRANCH   5  13
ATOM     13  C   UNL     1      -4.520   0.888  23.872  0.00  0.00    +0.122 C 
BRANCH  13  15
ATOM      8  N   UNL     1      -3.909  -2.836  24.179  0.00  0.00    -0.263 NA
ATOM     15  C   UNL     1      -4.057  -0.435  24.423  0.00  0.00    -0.015 A 
ATOM     17  C   UNL     1      -3.378  -0.509  25.635  0.00  0.00    +0.008 A 
ATOM     18  C   UNL     1      -4.296  -1.617  23.740  0.00  0.00    +0.115 A 
ATOM     20  C   UNL     1      -2.965  -1.746  26.118  0.00  0.00    +0.020 A 
ATOM     22  C   UNL     1      -3.252  -2.869  25.360  0.00  0.00    +0.111 A 
ENDBRANCH  13  15
ENDBRANCH   5  13
TORSDOF 6
ENDMDL
MODEL 8
REMARK VINA RESULT:      -0.8      2.951      5.821
REMARK  Name = 26744592
REMARK  6 active torsions:
REMARK  status: ('A' for Active; 'I' for Inactive)
REMARK    1  A    between atoms: O_3  and  C_11
REMARK    2  A    between atoms: N_5  and  C_13
REMARK    3  A    between atoms: C_9  and  C_14
REMARK    4  A    between atoms: C_13  and  C_15
REMARK    5  A    between atoms: C_16  and  C_19
REMARK    6  A    between atoms: C_19  and  C_21
REMARK                            x       y       z     vdW  Elec       q    Type
REMARK                         _______ _______ _______ _____ _____    ______ ____
ROOT
ATOM      5  N   UNL     1      -4.836   2.387  24.771  0.00  0.00    -0.285 NA
ATOM      9  C   UNL     1      -4.147   3.552  24.180  0.00  0.00    +0.149 C 
ATOM     10  C   UNL     1      -4.690   4.767  24.955  0.00  0.00    +0.061 C 
ATOM     11  C   UNL     1      -5.712   4.190  25.926  0.00  0.00    +0.130 C 
ATOM     12  C   UNL     1      -6.115   2.878  25.279  0.00  0.00    +0.116 C 
ENDROOT
BRANCH   9  14
ATOM      4  O   UNL     1      -1.956   4.580  24.529  0.00  0.00    -0.336 OA
ATOM      6  N   UNL     1      -1.877   2.385  24.093  0.00  0.00    -0.194 NA
ATOM      7  N   UNL     1      -0.600   4.228  24.546  0.00  0.00    -0.061 NA
ATOM     14  C   UNL     1      -2.638   3.437  24.256  0.00  0.00    +0.245 A 
ATOM     16  C   UNL     1      -0.636   2.920  24.280  0.00  0.00    +0.176 A 
BRANCH  16  19
ATOM     19  C   UNL     1       0.585   2.110  24.194  0.00  0.00    +0.116 C 
BRANCH  19  21
ATOM      1 CL   UNL     1       1.998   0.071  22.339  0.00  0.00    -0.083 Cl
ATOM      2  F   UNL     1      -0.222  -3.376  25.296  0.00  0.00    -0.205 F 
ATOM     21  C   UNL     1       0.387   0.622  24.466  0.00  0.00    -0.021 A 
ATOM     23  C   UNL     1       0.990  -0.354  23.673  0.00  0.00    +0.047 A 
ATOM     24  C   UNL     1      -0.422   0.248  25.539  0.00  0.00    +0.008 A 
ATOM     25  C   UNL     1       0.784  -1.705  23.954  0.00  0.00    +0.058 A 
ATOM     26  C   UNL     1      -0.627  -1.102  25.820  0.00  0.00    +0.039 A 
ATOM     27  C   UNL     1      -0.024  -2.079  25.027  0.00  0.00    +0.125 A 
ENDBRANCH  19  21
ENDBRANCH  16  19
ENDBRANCH   9  14
BRANCH  11   3
ATOM      3  O   UNL     1      -6.815   5.063  26.073  0.00  0.00    -0.390 OA
ATOM     28  H   UNL     1      -7.088   5.340  25.182  0.00  0.00    +0.210 HD
ENDBRANCH  11   3
BRANCH   5  13
ATOM     13  C   UNL     1      -5.004   1.284  23.835  0.00  0.00    +0.122 C 
BRANCH  13  15
ATOM      8  N   UNL     1      -3.675  -1.264  26.299  0.00  0.00    -0.263 NA
ATOM     15  C   UNL     1      -4.474  -0.010  24.392  0.00  0.00    -0.015 A 
ATOM     17  C   UNL     1      -4.286  -1.119  23.575  0.00  0.00    +0.008 A 
ATOM     18  C   UNL     1      -4.156  -0.133  25.735  0.00  0.00    +0.115 A 
ATOM     20  C   UNL     1      -3.793  -2.301  24.119  0.00  0.00    +0.020 A 
ATOM     22  C   UNL     1      -3.506  -2.322  25.474  0.00  0.00    +0.111 A 
ENDBRANCH  13  15
ENDBRANCH   5  13
TORSDOF 6
ENDMDL
