MODEL 1
REMARK VINA RESULT:      -5.1      0.000      0.000
REMARK  Name = 40777872
REMARK  7 active torsions:
REMARK  status: ('A' for Active; 'I' for Inactive)
REMARK    1  A    between atoms: O_4  and  C_11
REMARK    2  A    between atoms: O_5  and  C_12
REMARK    3  A    between atoms: N_9  and  C_15
REMARK    4  A    between atoms: C_10  and  C_14
REMARK    5  A    between atoms: C_13  and  C_15
REMARK    6  A    between atoms: C_14  and  C_16
REMARK    7  A    between atoms: C_23  and  C_26
REMARK                            x       y       z     vdW  Elec       q    Type
REMARK                         _______ _______ _______ _____ _____    ______ ____
ROOT
ATOM      3  O   UNL     1      -5.817  -9.476  15.617  0.00  0.00    -0.366 OA
ATOM     10  C   UNL     1      -7.248  -9.677  15.593  0.00  0.00    +0.159 C 
ATOM     11  C   UNL     1      -7.651 -10.072  17.009  0.00  0.00    +0.175 C 
ATOM     12  C   UNL     1      -6.394 -10.746  17.519  0.00  0.00    +0.176 C 
ATOM     13  C   UNL     1      -5.311  -9.875  16.903  0.00  0.00    +0.167 C 
ENDROOT
BRANCH  11   4
ATOM      4  O   UNL     1      -7.906  -8.876  17.747  0.00  0.00    -0.387 OA
ATOM     32  H   UNL     1      -8.705  -9.028  18.278  0.00  0.00    +0.210 HD
ENDBRANCH  11   4
BRANCH  12   5
ATOM      5  O   UNL     1      -6.309 -10.781  18.927  0.00  0.00    -0.387 OA
ATOM     33  H   UNL     1      -5.467 -10.365  19.178  0.00  0.00    +0.210 HD
ENDBRANCH  12   5
BRANCH  10  14
ATOM     14  C   UNL     1      -7.549 -10.759  14.565  0.00  0.00    +0.130 C 
BRANCH  14  16
ATOM      6  O   UNL     1      -9.310  -9.860  13.259  0.00  0.00    -0.275 OA
ATOM      8  N   UNL     1      -7.183  -9.917  12.300  0.00  0.00    -0.271 N 
ATOM     16  C   UNL     1      -8.111 -10.133  13.310  0.00  0.00    +0.222 C 
ATOM     17  C   UNL     1      -5.743 -10.246  12.365  0.00  0.00    +0.118 C 
ATOM     18  C   UNL     1      -7.451  -9.349  11.038  0.00  0.00    +0.039 A 
ATOM     19  C   UNL     1      -5.109  -9.830  11.033  0.00  0.00    +0.056 C 
ATOM     20  C   UNL     1      -6.279  -9.286  10.282  0.00  0.00    -0.024 A 
ATOM     21  C   UNL     1      -8.652  -8.889  10.516  0.00  0.00    +0.024 A 
ATOM     22  C   UNL     1      -6.275  -8.764   8.997  0.00  0.00    +0.005 A 
ATOM     24  C   UNL     1      -8.658  -8.362   9.222  0.00  0.00    +0.002 A 
ATOM     25  C   UNL     1      -7.479  -8.299   8.467  0.00  0.00    +0.000 A 
ENDBRANCH  14  16
ENDBRANCH  10  14
BRANCH  13  15
ATOM     15  C   UNL     1      -3.985 -10.594  16.731  0.00  0.00    +0.138 C 
BRANCH  15   9
ATOM      7  O   UNL     1      -1.169 -10.402  16.203  0.00  0.00    -0.270 OA
ATOM      9  N   UNL     1      -3.369 -10.253  15.483  0.00  0.00    -0.309 N 
ATOM     23  C   UNL     1      -1.989 -10.183  15.316  0.00  0.00    +0.244 C 
ATOM     34  H   UNL     1      -3.992  -9.994  14.725  0.00  0.00    +0.149 HD
BRANCH  23  26
ATOM      1 CL   UNL     1       0.972  -7.076  12.393  0.00  0.00    -0.081 Cl
ATOM      2  F   UNL     1      -0.189  -8.707  10.204  0.00  0.00    -0.204 F 
ATOM     26  C   UNL     1      -1.510  -9.790  13.966  0.00  0.00    +0.038 A 
ATOM     27  C   UNL     1      -0.601  -8.741  13.826  0.00  0.00    +0.036 A 
ATOM     28  C   UNL     1      -1.969 -10.468  12.837  0.00  0.00    +0.016 A 
ATOM     29  C   UNL     1      -0.150  -8.372  12.559  0.00  0.00    +0.077 A 
ATOM     30  C   UNL     1      -1.521 -10.099  11.569  0.00  0.00    +0.040 A 
ATOM     31  C   UNL     1      -0.611  -9.050  11.430  0.00  0.00    +0.142 A 
ENDBRANCH  23  26
ENDBRANCH  15   9
ENDBRANCH  13  15
TORSDOF 7
ENDMDL
MODEL 2
REMARK VINA RESULT:      -2.5     13.966     16.048
REMARK  Name = 40777872
REMARK  7 active torsions:
REMARK  status: ('A' for Active; 'I' for Inactive)
REMARK    1  A    between atoms: O_4  and  C_11
REMARK    2  A    between atoms: O_5  and  C_12
REMARK    3  A    between atoms: N_9  and  C_15
REMARK    4  A    between atoms: C_10  and  C_14
REMARK    5  A    between atoms: C_13  and  C_15
REMARK    6  A    between atoms: C_14  and  C_16
REMARK    7  A    between atoms: C_23  and  C_26
REMARK                            x       y       z     vdW  Elec       q    Type
REMARK                         _______ _______ _______ _____ _____    ______ ____
ROOT
ATOM      3  O   UNL     1      -3.074   3.140  23.754  0.00  0.00    -0.366 OA
ATOM     10  C   UNL     1      -3.379   3.876  24.960  0.00  0.00    +0.159 C 
ATOM     11  C   UNL     1      -2.048   4.387  25.499  0.00  0.00    +0.175 C 
ATOM     12  C   UNL     1      -1.079   3.337  24.995  0.00  0.00    +0.176 C 
ATOM     13  C   UNL     1      -1.647   3.037  23.617  0.00  0.00    +0.167 C 
ENDROOT
BRANCH  11   4
ATOM      4  O   UNL     1      -1.776   5.647  24.885  0.00  0.00    -0.387 OA
ATOM     32  H   UNL     1      -1.070   5.506  24.232  0.00  0.00    +0.210 HD
ENDBRANCH  11   4
BRANCH  12   5
ATOM      5  O   UNL     1       0.255   3.793  24.930  0.00  0.00    -0.387 OA
ATOM     33  H   UNL     1       0.770   3.118  24.456  0.00  0.00    +0.210 HD
ENDBRANCH  12   5
BRANCH  10  14
ATOM     14  C   UNL     1      -4.085   2.928  25.919  0.00  0.00    +0.130 C 
BRANCH  14  16
ATOM      6  O   UNL     1      -5.475   1.570  24.562  0.00  0.00    -0.275 OA
ATOM      8  N   UNL     1      -3.495   0.625  25.356  0.00  0.00    -0.271 N 
ATOM     16  C   UNL     1      -4.429   1.640  25.207  0.00  0.00    +0.222 C 
ATOM     17  C   UNL     1      -2.239   0.712  26.132  0.00  0.00    +0.118 C 
ATOM     18  C   UNL     1      -3.580  -0.666  24.796  0.00  0.00    +0.039 A 
ATOM     19  C   UNL     1      -1.521  -0.637  26.013  0.00  0.00    +0.056 C 
ATOM     20  C   UNL     1      -2.460  -1.419  25.155  0.00  0.00    -0.024 A 
ATOM     21  C   UNL     1      -4.572  -1.216  23.996  0.00  0.00    +0.024 A 
ATOM     22  C   UNL     1      -2.304  -2.730  24.728  0.00  0.00    +0.005 A 
ATOM     24  C   UNL     1      -4.423  -2.536  23.562  0.00  0.00    +0.002 A 
ATOM     25  C   UNL     1      -3.297  -3.288  23.924  0.00  0.00    +0.000 A 
ENDBRANCH  14  16
ENDBRANCH  10  14
BRANCH  13  15
ATOM     15  C   UNL     1      -1.279   1.656  23.103  0.00  0.00    +0.138 C 
BRANCH  15   9
ATOM      7  O   UNL     1       0.117  -0.854  23.082  0.00  0.00    -0.270 OA
ATOM      9  N   UNL     1       0.142   1.466  23.102  0.00  0.00    -0.309 N 
ATOM     23  C   UNL     1       0.735   0.207  23.091  0.00  0.00    +0.244 C 
ATOM     34  H   UNL     1       0.712   2.302  23.178  0.00  0.00    +0.149 HD
BRANCH  23  26
ATOM      1 CL   UNL     1       5.107  -2.448  23.987  0.00  0.00    -0.081 Cl
ATOM      2  F   UNL     1       6.351   0.123  23.189  0.00  0.00    -0.204 F 
ATOM     26  C   UNL     1       2.220   0.180  23.118  0.00  0.00    +0.038 A 
ATOM     27  C   UNL     1       2.891  -0.984  23.495  0.00  0.00    +0.036 A 
ATOM     28  C   UNL     1       2.945   1.319  22.766  0.00  0.00    +0.016 A 
ATOM     29  C   UNL     1       4.285  -1.009  23.520  0.00  0.00    +0.077 A 
ATOM     30  C   UNL     1       4.339   1.294  22.792  0.00  0.00    +0.040 A 
ATOM     31  C   UNL     1       5.010   0.130  23.169  0.00  0.00    +0.142 A 
ENDBRANCH  23  26
ENDBRANCH  15   9
ENDBRANCH  13  15
TORSDOF 7
ENDMDL
