MODEL 1
REMARK VINA RESULT:      -5.0      0.000      0.000
REMARK  Name = 45783500
REMARK  9 active torsions:
REMARK  status: ('A' for Active; 'I' for Inactive)
REMARK    1  A    between atoms: O_2  and  C_24
REMARK    2  A    between atoms: O_2  and  C_25
REMARK    3  A    between atoms: N_3  and  C_11
REMARK    4  A    between atoms: N_7  and  C_22
REMARK    5  A    between atoms: N_7  and  C_23
REMARK    6  A    between atoms: C_8  and  C_11
REMARK    7  A    between atoms: C_12  and  C_16
REMARK    8  A    between atoms: C_17  and  C_18
REMARK    9  A    between atoms: C_23  and  C_24
REMARK                            x       y       z     vdW  Elec       q    Type
REMARK                         _______ _______ _______ _____ _____    ______ ____
ROOT
ATOM      1  O   UNL     1      -2.343 -10.771  14.597  0.00  0.00    -0.336 OA
ATOM      4  N   UNL     1      -4.524 -10.579  14.126  0.00  0.00    -0.190 NA
ATOM      5  N   UNL     1      -3.008 -10.747  15.830  0.00  0.00    -0.056 NA
ATOM     16  C   UNL     1      -3.309 -10.667  13.647  0.00  0.00    +0.245 A 
ATOM     17  C   UNL     1      -4.289 -10.633  15.469  0.00  0.00    +0.204 A 
ENDROOT
BRANCH  17  18
ATOM      6  N   UNL     1      -7.730 -10.649  16.878  0.00  0.00    -0.240 NA
ATOM     18  C   UNL     1      -5.357 -10.568  16.424  0.00  0.00    +0.041 A 
ATOM     19  C   UNL     1      -5.098 -10.368  17.776  0.00  0.00    +0.016 A 
ATOM     20  C   UNL     1      -6.678 -10.701  16.030  0.00  0.00    +0.124 A 
ATOM     21  C   UNL     1      -6.154 -10.309  18.679  0.00  0.00    +0.044 A 
ATOM     22  C   UNL     1      -7.439 -10.454  18.183  0.00  0.00    +0.119 A 
BRANCH  22   7
ATOM      7  N   UNL     1      -8.505 -10.392  19.116  0.00  0.00    -0.327 N 
ATOM     26  H   UNL     1      -8.274 -10.057  20.044  0.00  0.00    +0.148 HD
BRANCH   7  23
ATOM     23  C   UNL     1      -9.838 -10.781  18.789  0.00  0.00    +0.131 C 
BRANCH  23  24
ATOM     24  C   UNL     1     -10.720  -9.551  18.657  0.00  0.00    +0.178 C 
BRANCH  24   2
ATOM      2  O   UNL     1      -9.970  -8.490  18.078  0.00  0.00    -0.381 OA
ATOM     25  C   UNL     1     -10.391  -8.221  16.747  0.00  0.00    +0.194 C 
ENDBRANCH  24   2
ENDBRANCH  23  24
ENDBRANCH   7  23
ENDBRANCH  22   7
ENDBRANCH  17  18
BRANCH  16  12
ATOM      3  N   UNL     1      -3.544  -9.667  11.380  0.00  0.00    -0.291 NA
ATOM     12  C   UNL     1      -2.842 -10.669  12.207  0.00  0.00    +0.146 C 
ATOM     13  C   UNL     1      -2.610  -9.271  10.327  0.00  0.00    +0.085 C 
ATOM     14  C   UNL     1      -1.350 -10.317  12.064  0.00  0.00    +0.030 C 
ATOM     15  C   UNL     1      -1.309  -9.146  11.093  0.00  0.00    +0.017 C 
BRANCH   3  11
ATOM     11  C   UNL     1      -4.807 -10.152  10.838  0.00  0.00    +0.088 C 
BRANCH  11   8
ATOM      8  C   UNL     1      -5.888  -9.130  10.981  0.00  0.00    +0.003 C 
ATOM      9  C   UNL     1      -7.298  -9.498  10.625  0.00  0.00    +0.005 C 
ATOM     10  C   UNL     1      -6.524  -8.559   9.748  0.00  0.00    +0.005 C 
ENDBRANCH  11   8
ENDBRANCH   3  11
ENDBRANCH  16  12
TORSDOF 8
ENDMDL
MODEL 2
REMARK VINA RESULT:      -3.1     14.651     17.453
REMARK  Name = 45783500
REMARK  9 active torsions:
REMARK  status: ('A' for Active; 'I' for Inactive)
REMARK    1  A    between atoms: O_2  and  C_24
REMARK    2  A    between atoms: O_2  and  C_25
REMARK    3  A    between atoms: N_3  and  C_11
REMARK    4  A    between atoms: N_7  and  C_22
REMARK    5  A    between atoms: N_7  and  C_23
REMARK    6  A    between atoms: C_8  and  C_11
REMARK    7  A    between atoms: C_12  and  C_16
REMARK    8  A    between atoms: C_17  and  C_18
REMARK    9  A    between atoms: C_23  and  C_24
REMARK                            x       y       z     vdW  Elec       q    Type
REMARK                         _______ _______ _______ _____ _____    ______ ____
ROOT
ATOM      1  O   UNL     1      -2.910  -0.556  25.163  0.00  0.00    -0.336 OA
ATOM      4  N   UNL     1      -1.872   1.369  24.677  0.00  0.00    -0.190 NA
ATOM      5  N   UNL     1      -1.684  -0.909  24.584  0.00  0.00    -0.056 NA
ATOM     16  C   UNL     1      -2.940   0.802  25.180  0.00  0.00    +0.245 A 
ATOM     17  C   UNL     1      -1.131   0.278  24.325  0.00  0.00    +0.204 A 
ENDROOT
BRANCH  17  18
ATOM      6  N   UNL     1       2.223   1.652  23.491  0.00  0.00    -0.240 NA
ATOM     18  C   UNL     1       0.161   0.410  23.714  0.00  0.00    +0.041 A 
ATOM     19  C   UNL     1       0.612  -0.520  22.783  0.00  0.00    +0.016 A 
ATOM     20  C   UNL     1       0.997   1.469  24.030  0.00  0.00    +0.124 A 
ATOM     21  C   UNL     1       1.868  -0.366  22.207  0.00  0.00    +0.044 A 
ATOM     22  C   UNL     1       2.627   0.728  22.592  0.00  0.00    +0.119 A 
BRANCH  22   7
ATOM      7  N   UNL     1       3.905   0.871  21.996  0.00  0.00    -0.327 N 
ATOM     26  H   UNL     1       3.982   1.549  21.248  0.00  0.00    +0.148 HD
BRANCH   7  23
ATOM     23  C   UNL     1       5.037   0.107  22.410  0.00  0.00    +0.131 C 
BRANCH  23  24
ATOM     24  C   UNL     1       5.434   0.493  23.825  0.00  0.00    +0.178 C 
BRANCH  24   2
ATOM      2  O   UNL     1       5.422  -0.664  24.652  0.00  0.00    -0.381 OA
ATOM     25  C   UNL     1       4.854  -1.780  23.980  0.00  0.00    +0.194 C 
ENDBRANCH  24   2
ENDBRANCH  23  24
ENDBRANCH   7  23
ENDBRANCH  22   7
ENDBRANCH  17  18
BRANCH  16  12
ATOM      3  N   UNL     1      -4.257   2.892  25.489  0.00  0.00    -0.291 NA
ATOM     12  C   UNL     1      -4.180   1.444  25.767  0.00  0.00    +0.146 C 
ATOM     13  C   UNL     1      -5.679   3.229  25.442  0.00  0.00    +0.085 C 
ATOM     14  C   UNL     1      -5.482   0.864  25.184  0.00  0.00    +0.030 C 
ATOM     15  C   UNL     1      -6.251   2.067  24.657  0.00  0.00    +0.017 C 
BRANCH   3  11
ATOM     11  C   UNL     1      -3.533   3.702  26.460  0.00  0.00    +0.088 C 
BRANCH  11   8
ATOM      8  C   UNL     1      -2.726   4.765  25.787  0.00  0.00    +0.003 C 
ATOM      9  C   UNL     1      -2.336   4.590  24.349  0.00  0.00    +0.005 C 
ATOM     10  C   UNL     1      -1.297   4.483  25.427  0.00  0.00    +0.005 C 
ENDBRANCH  11   8
ENDBRANCH   3  11
ENDBRANCH  16  12
TORSDOF 8
ENDMDL
MODEL 3
REMARK VINA RESULT:      -2.7     14.059     16.900
REMARK  Name = 45783500
REMARK  9 active torsions:
REMARK  status: ('A' for Active; 'I' for Inactive)
REMARK    1  A    between atoms: O_2  and  C_24
REMARK    2  A    between atoms: O_2  and  C_25
REMARK    3  A    between atoms: N_3  and  C_11
REMARK    4  A    between atoms: N_7  and  C_22
REMARK    5  A    between atoms: N_7  and  C_23
REMARK    6  A    between atoms: C_8  and  C_11
REMARK    7  A    between atoms: C_12  and  C_16
REMARK    8  A    between atoms: C_17  and  C_18
REMARK    9  A    between atoms: C_23  and  C_24
REMARK                            x       y       z     vdW  Elec       q    Type
REMARK                         _______ _______ _______ _____ _____    ______ ____
ROOT
ATOM      1  O   UNL     1      -2.144   1.269  25.619  0.00  0.00    -0.336 OA
ATOM      4  N   UNL     1      -1.680   1.500  23.440  0.00  0.00    -0.190 NA
ATOM      5  N   UNL     1      -0.779   0.986  25.478  0.00  0.00    -0.056 NA
ATOM     16  C   UNL     1      -2.598   1.562  24.372  0.00  0.00    +0.245 A 
ATOM     17  C   UNL     1      -0.582   1.144  24.166  0.00  0.00    +0.204 A 
ENDROOT
BRANCH  17  18
ATOM      6  N   UNL     1       2.952   1.743  23.178  0.00  0.00    -0.240 NA
ATOM     18  C   UNL     1       0.699   0.951  23.549  0.00  0.00    +0.041 A 
ATOM     19  C   UNL     1       0.949  -0.160  22.750  0.00  0.00    +0.016 A 
ATOM     20  C   UNL     1       1.725   1.865  23.729  0.00  0.00    +0.124 A 
ATOM     21  C   UNL     1       2.201  -0.320  22.165  0.00  0.00    +0.044 A 
ATOM     22  C   UNL     1       3.159   0.651  22.408  0.00  0.00    +0.119 A 
BRANCH  22   7
ATOM      7  N   UNL     1       4.430   0.473  21.806  0.00  0.00    -0.327 N 
ATOM     26  H   UNL     1       4.509   0.738  20.831  0.00  0.00    +0.148 HD
BRANCH   7  23
ATOM     23  C   UNL     1       5.550  -0.054  22.514  0.00  0.00    +0.131 C 
BRANCH  23  24
ATOM     24  C   UNL     1       5.479   0.354  23.976  0.00  0.00    +0.178 C 
BRANCH  24   2
ATOM      2  O   UNL     1       5.423  -0.810  24.790  0.00  0.00    -0.381 OA
ATOM     25  C   UNL     1       4.892  -1.919  24.078  0.00  0.00    +0.194 C 
ENDBRANCH  24   2
ENDBRANCH  23  24
ENDBRANCH   7  23
ENDBRANCH  22   7
ENDBRANCH  17  18
BRANCH  16  12
ATOM      3  N   UNL     1      -4.916   1.106  25.155  0.00  0.00    -0.291 NA
ATOM     12  C   UNL     1      -4.066   1.909  24.253  0.00  0.00    +0.146 C 
ATOM     13  C   UNL     1      -6.075   1.937  25.481  0.00  0.00    +0.085 C 
ATOM     14  C   UNL     1      -4.364   3.371  24.633  0.00  0.00    +0.030 C 
ATOM     15  C   UNL     1      -5.434   3.290  25.713  0.00  0.00    +0.017 C 
BRANCH   3  11
ATOM     11  C   UNL     1      -5.304  -0.178  24.586  0.00  0.00    +0.088 C 
BRANCH  11   8
ATOM      8  C   UNL     1      -4.110  -0.964  24.151  0.00  0.00    +0.003 C 
ATOM      9  C   UNL     1      -4.263  -2.425  23.848  0.00  0.00    +0.005 C 
ATOM     10  C   UNL     1      -3.528  -1.988  25.081  0.00  0.00    +0.005 C 
ENDBRANCH  11   8
ENDBRANCH   3  11
ENDBRANCH  16  12
TORSDOF 8
ENDMDL
