MODEL 1
REMARK VINA RESULT:       5.0      0.000      0.000
REMARK  Name = 7127958
REMARK  10 active torsions:
REMARK  status: ('A' for Active; 'I' for Inactive)
REMARK    1  A    between atoms: O_5  and  C_38
REMARK    2  A    between atoms: O_5  and  C_39
REMARK    3  A    between atoms: N_7  and  C_17
REMARK    4  A    between atoms: N_8  and  C_21
REMARK    5  A    between atoms: N_9  and  C_28
REMARK    6  A    between atoms: C_12  and  C_16
REMARK    7  A    between atoms: C_15  and  C_20
REMARK    8  A    between atoms: C_21  and  C_23
REMARK    9  A    between atoms: C_21  and  C_24
REMARK   10  A    between atoms: C_23  and  C_25
REMARK                            x       y       z     vdW  Elec       q    Type
REMARK                         _______ _______ _______ _____ _____    ______ ____
ROOT
ATOM      1  O   UNL     1      -5.435   0.841  25.298  0.00  0.00    -0.275 OA
ATOM      6  N   UNL     1      -3.887   2.338  24.439  0.00  0.00    -0.288 N 
ATOM     15  C   UNL     1      -3.290   1.431  23.470  0.00  0.00    +0.164 C 
ATOM     16  C   UNL     1      -4.971   1.974  25.225  0.00  0.00    +0.219 C 
ATOM     17  C   UNL     1      -2.109   3.542  23.421  0.00  0.00    +0.094 C 
ATOM     18  C   UNL     1      -3.320   3.681  24.337  0.00  0.00    +0.131 C 
ATOM     19  C   UNL     1      -2.446   2.320  22.560  0.00  0.00    +0.055 C 
ENDROOT
BRANCH  17   7
ATOM      3  O   UNL     1      -1.885   3.027  26.231  0.00  0.00    -0.253 OA
ATOM      7  N   UNL     1      -0.890   3.366  24.171  0.00  0.00    -0.295 N 
ATOM      9  N   UNL     1       0.451   2.991  25.999  0.00  0.00    -0.269 N 
ATOM     22  C   UNL     1      -0.867   3.116  25.549  0.00  0.00    +0.304 C 
ATOM     40  H   UNL     1      -0.006   3.494  23.690  0.00  0.00    +0.151 HD
ATOM     42  H   UNL     1       1.183   3.094  25.301  0.00  0.00    +0.156 HD
BRANCH   9  28
ATOM     28  C   UNL     1       0.898   2.738  27.317  0.00  0.00    +0.035 A 
ATOM     32  C   UNL     1       2.219   3.015  27.671  0.00  0.00    +0.027 A 
ATOM     33  C   UNL     1       0.017   2.214  28.263  0.00  0.00    +0.027 A 
ATOM     36  C   UNL     1       2.659   2.767  28.971  0.00  0.00    +0.047 A 
ATOM     37  C   UNL     1       0.457   1.966  29.564  0.00  0.00    +0.047 A 
ATOM     38  C   UNL     1       1.778   2.242  29.916  0.00  0.00    +0.120 A 
BRANCH  38   5
ATOM      5  O   UNL     1       2.207   2.002  31.186  0.00  0.00    -0.495 OA
ATOM     39  C   UNL     1       1.214   1.952  32.208  0.00  0.00    +0.277 C 
ENDBRANCH  38   5
ENDBRANCH   9  28
ENDBRANCH  17   7
BRANCH  15  20
ATOM      2  O   UNL     1      -2.844  -0.124  25.225  0.00  0.00    -0.274 OA
ATOM      8  N   UNL     1      -1.212   0.248  23.606  0.00  0.00    -0.302 N 
ATOM     20  C   UNL     1      -2.448   0.431  24.203  0.00  0.00    +0.234 C 
ATOM     41  H   UNL     1      -1.027   0.698  22.713  0.00  0.00    +0.150 HD
BRANCH   8  21
ATOM     21  C   UNL     1      -0.206  -0.647  24.129  0.00  0.00    +0.163 C 
BRANCH  21  24
ATOM      4  O   UNL     1      -1.585  -2.635  23.908  0.00  0.00    -0.274 OA
ATOM     10  N   UNL     1      -0.725  -2.119  25.975  0.00  0.00    -0.328 N 
ATOM     24  C   UNL     1      -0.929  -1.890  24.630  0.00  0.00    +0.231 C 
ATOM     43  H   UNL     1      -0.160  -1.507  26.554  0.00  0.00    +0.145 HD
ATOM     44  H   UNL     1      -1.140  -2.923  26.434  0.00  0.00    +0.145 HD
ENDBRANCH  21  24
BRANCH  21  23
ATOM     23  C   UNL     1       0.841  -1.025  23.075  0.00  0.00    +0.069 C 
BRANCH  23  25
ATOM     11  N   UNL     1       3.313   1.691  22.898  0.00  0.00    -0.360 N 
ATOM     25  C   UNL     1       2.039  -0.118  23.082  0.00  0.00    -0.020 A 
ATOM     26  C   UNL     1       3.376  -0.482  23.401  0.00  0.00    +0.003 A 
ATOM     27  C   UNL     1       2.032   1.224  22.777  0.00  0.00    +0.087 A 
ATOM     29  C   UNL     1       4.156   0.670  23.279  0.00  0.00    +0.047 A 
ATOM     30  C   UNL     1       4.001  -1.686  23.785  0.00  0.00    +0.010 A 
ATOM     31  C   UNL     1       5.534   0.679  23.521  0.00  0.00    +0.026 A 
ATOM     34  C   UNL     1       5.378  -1.692  24.031  0.00  0.00    +0.001 A 
ATOM     35  C   UNL     1       6.131  -0.526  23.901  0.00  0.00    +0.002 A 
ATOM     45  H   UNL     1       3.600   2.645  22.734  0.00  0.00    +0.165 HD
ENDBRANCH  23  25
ENDBRANCH  21  23
ENDBRANCH   8  21
ENDBRANCH  15  20
BRANCH  16  12
ATOM     12  C   UNL     1      -5.588   3.060  26.047  0.00  0.00    +0.075 C 
ATOM     13  C   UNL     1      -4.935   4.411  26.079  0.00  0.00    +0.013 C 
ATOM     14  C   UNL     1      -6.235   4.224  25.354  0.00  0.00    +0.013 C 
ENDBRANCH  16  12
TORSDOF 9
ENDMDL
MODEL 2
REMARK VINA RESULT:       7.1      2.511      6.595
REMARK  Name = 7127958
REMARK  10 active torsions:
REMARK  status: ('A' for Active; 'I' for Inactive)
REMARK    1  A    between atoms: O_5  and  C_38
REMARK    2  A    between atoms: O_5  and  C_39
REMARK    3  A    between atoms: N_7  and  C_17
REMARK    4  A    between atoms: N_8  and  C_21
REMARK    5  A    between atoms: N_9  and  C_28
REMARK    6  A    between atoms: C_12  and  C_16
REMARK    7  A    between atoms: C_15  and  C_20
REMARK    8  A    between atoms: C_21  and  C_23
REMARK    9  A    between atoms: C_21  and  C_24
REMARK   10  A    between atoms: C_23  and  C_25
REMARK                            x       y       z     vdW  Elec       q    Type
REMARK                         _______ _______ _______ _____ _____    ______ ____
ROOT
ATOM      1  O   UNL     1      -4.407   0.412  26.650  0.00  0.00    -0.275 OA
ATOM      6  N   UNL     1      -3.348  -0.927  25.081  0.00  0.00    -0.288 N 
ATOM     15  C   UNL     1      -2.340  -1.476  25.975  0.00  0.00    +0.164 C 
ATOM     16  C   UNL     1      -4.349  -0.075  25.526  0.00  0.00    +0.219 C 
ATOM     17  C   UNL     1      -1.951  -2.298  23.734  0.00  0.00    +0.094 C 
ATOM     18  C   UNL     1      -3.261  -1.518  23.747  0.00  0.00    +0.131 C 
ATOM     19  C   UNL     1      -1.720  -2.642  25.209  0.00  0.00    +0.055 C 
ENDROOT
BRANCH  17   7
ATOM      3  O   UNL     1       0.753  -2.196  24.677  0.00  0.00    -0.253 OA
ATOM      7  N   UNL     1      -0.873  -1.521  23.176  0.00  0.00    -0.295 N 
ATOM      9  N   UNL     1       1.255  -0.682  22.955  0.00  0.00    -0.269 N 
ATOM     22  C   UNL     1       0.427  -1.527  23.699  0.00  0.00    +0.304 C 
ATOM     40  H   UNL     1      -1.080  -0.890  22.409  0.00  0.00    +0.151 HD
ATOM     42  H   UNL     1       0.826  -0.197  22.171  0.00  0.00    +0.156 HD
BRANCH   9  28
ATOM     28  C   UNL     1       2.629  -0.413  23.158  0.00  0.00    +0.035 A 
ATOM     32  C   UNL     1       3.148   0.844  22.843  0.00  0.00    +0.027 A 
ATOM     33  C   UNL     1       3.464  -1.403  23.675  0.00  0.00    +0.027 A 
ATOM     36  C   UNL     1       4.502   1.109  23.045  0.00  0.00    +0.047 A 
ATOM     37  C   UNL     1       4.819  -1.137  23.878  0.00  0.00    +0.047 A 
ATOM     38  C   UNL     1       5.337   0.119  23.562  0.00  0.00    +0.120 A 
BRANCH  38   5
ATOM      5  O   UNL     1       6.658   0.379  23.761  0.00  0.00    -0.495 OA
ATOM     39  C   UNL     1       7.594  -0.460  23.086  0.00  0.00    +0.277 C 
ENDBRANCH  38   5
ENDBRANCH   9  28
ENDBRANCH  17   7
BRANCH  15  20
ATOM      2  O   UNL     1      -0.655  -0.426  27.301  0.00  0.00    -0.274 OA
ATOM      8  N   UNL     1      -1.282   0.559  25.286  0.00  0.00    -0.302 N 
ATOM     20  C   UNL     1      -1.329  -0.410  26.274  0.00  0.00    +0.234 C 
ATOM     41  H   UNL     1      -1.826   0.423  24.438  0.00  0.00    +0.150 HD
BRANCH   8  21
ATOM     21  C   UNL     1      -0.406   1.707  25.346  0.00  0.00    +0.163 C 
BRANCH  21  24
ATOM      4  O   UNL     1       0.556   3.019  23.541  0.00  0.00    -0.274 OA
ATOM     10  N   UNL     1      -1.424   1.917  23.164  0.00  0.00    -0.328 N 
ATOM     24  C   UNL     1      -0.357   2.305  23.947  0.00  0.00    +0.231 C 
ATOM     43  H   UNL     1      -2.159   1.306  23.506  0.00  0.00    +0.145 HD
ATOM     44  H   UNL     1      -1.506   2.234  22.204  0.00  0.00    +0.145 HD
ENDBRANCH  21  24
BRANCH  21  23
ATOM     23  C   UNL     1      -0.886   2.752  26.359  0.00  0.00    +0.069 C 
BRANCH  23  25
ATOM     11  N   UNL     1      -2.279   5.677  24.622  0.00  0.00    -0.360 N 
ATOM     25  C   UNL     1      -1.709   3.843  25.736  0.00  0.00    -0.020 A 
ATOM     26  C   UNL     1      -3.126   3.965  25.777  0.00  0.00    +0.003 A 
ATOM     27  C   UNL     1      -1.218   4.910  25.019  0.00  0.00    +0.087 A 
ATOM     29  C   UNL     1      -3.458   5.124  25.070  0.00  0.00    +0.047 A 
ATOM     30  C   UNL     1      -4.162   3.199  26.347  0.00  0.00    +0.010 A 
ATOM     31  C   UNL     1      -4.779   5.555  24.906  0.00  0.00    +0.026 A 
ATOM     34  C   UNL     1      -5.487   3.618  26.192  0.00  0.00    +0.001 A 
ATOM     35  C   UNL     1      -5.789   4.779  25.481  0.00  0.00    +0.002 A 
ATOM     45  H   UNL     1      -2.211   6.525  24.077  0.00  0.00    +0.165 HD
ENDBRANCH  23  25
ENDBRANCH  21  23
ENDBRANCH   8  21
ENDBRANCH  15  20
BRANCH  16  12
ATOM     12  C   UNL     1      -5.414   0.272  24.535  0.00  0.00    +0.075 C 
ATOM     13  C   UNL     1      -6.424   1.324  24.887  0.00  0.00    +0.013 C 
ATOM     14  C   UNL     1      -5.371   1.610  23.856  0.00  0.00    +0.013 C 
ENDBRANCH  16  12
TORSDOF 9
ENDMDL
MODEL 3
REMARK VINA RESULT:       7.2      2.148      6.158
REMARK  Name = 7127958
REMARK  10 active torsions:
REMARK  status: ('A' for Active; 'I' for Inactive)
REMARK    1  A    between atoms: O_5  and  C_38
REMARK    2  A    between atoms: O_5  and  C_39
REMARK    3  A    between atoms: N_7  and  C_17
REMARK    4  A    between atoms: N_8  and  C_21
REMARK    5  A    between atoms: N_9  and  C_28
REMARK    6  A    between atoms: C_12  and  C_16
REMARK    7  A    between atoms: C_15  and  C_20
REMARK    8  A    between atoms: C_21  and  C_23
REMARK    9  A    between atoms: C_21  and  C_24
REMARK   10  A    between atoms: C_23  and  C_25
REMARK                            x       y       z     vdW  Elec       q    Type
REMARK                         _______ _______ _______ _____ _____    ______ ____
ROOT
ATOM      1  O   UNL     1      -4.339   1.996  26.316  0.00  0.00    -0.275 OA
ATOM      6  N   UNL     1      -3.430   0.189  25.182  0.00  0.00    -0.288 N 
ATOM     15  C   UNL     1      -2.431  -0.156  26.181  0.00  0.00    +0.164 C 
ATOM     16  C   UNL     1      -4.355   1.205  25.379  0.00  0.00    +0.219 C 
ATOM     17  C   UNL     1      -2.179  -1.611  24.265  0.00  0.00    +0.094 C 
ATOM     18  C   UNL     1      -3.432  -0.763  24.073  0.00  0.00    +0.131 C 
ATOM     19  C   UNL     1      -1.919  -1.536  25.773  0.00  0.00    +0.055 C 
ENDROOT
BRANCH  17   7
ATOM      3  O   UNL     1       0.570  -1.521  25.068  0.00  0.00    -0.253 OA
ATOM      7  N   UNL     1      -1.071  -1.110  23.492  0.00  0.00    -0.295 N 
ATOM      9  N   UNL     1       1.104  -0.558  22.995  0.00  0.00    -0.269 N 
ATOM     22  C   UNL     1       0.249  -1.101  23.959  0.00  0.00    +0.304 C 
ATOM     40  H   UNL     1      -1.266  -0.682  22.592  0.00  0.00    +0.151 HD
ATOM     42  H   UNL     1       0.675  -0.255  22.124  0.00  0.00    +0.156 HD
BRANCH   9  28
ATOM     28  C   UNL     1       2.504  -0.375  23.080  0.00  0.00    +0.035 A 
ATOM     32  C   UNL     1       3.308  -1.384  23.613  0.00  0.00    +0.027 A 
ATOM     33  C   UNL     1       3.081   0.811  22.628  0.00  0.00    +0.027 A 
ATOM     36  C   UNL     1       4.688  -1.204  23.695  0.00  0.00    +0.047 A 
ATOM     37  C   UNL     1       4.462   0.990  22.710  0.00  0.00    +0.047 A 
ATOM     38  C   UNL     1       5.265  -0.018  23.244  0.00  0.00    +0.120 A 
BRANCH  38   5
ATOM      5  O   UNL     1       6.613   0.157  23.322  0.00  0.00    -0.495 OA
ATOM     39  C   UNL     1       7.432  -0.835  22.707  0.00  0.00    +0.277 C 
ENDBRANCH  38   5
ENDBRANCH   9  28
ENDBRANCH  17   7
BRANCH  15  20
ATOM      2  O   UNL     1      -0.322   0.713  25.475  0.00  0.00    -0.274 OA
ATOM      8  N   UNL     1      -1.619   1.961  26.953  0.00  0.00    -0.302 N 
ATOM     20  C   UNL     1      -1.340   0.871  26.145  0.00  0.00    +0.234 C 
ATOM     41  H   UNL     1      -2.532   2.023  27.395  0.00  0.00    +0.150 HD
BRANCH   8  21
ATOM     21  C   UNL     1      -0.717   3.079  27.112  0.00  0.00    +0.163 C 
BRANCH  21  24
ATOM      4  O   UNL     1       0.707   2.230  28.887  0.00  0.00    -0.274 OA
ATOM     10  N   UNL     1       1.565   2.364  26.760  0.00  0.00    -0.328 N 
ATOM     24  C   UNL     1       0.573   2.533  27.705  0.00  0.00    +0.231 C 
ATOM     43  H   UNL     1       1.431   2.596  25.781  0.00  0.00    +0.145 HD
ATOM     44  H   UNL     1       2.472   1.994  27.020  0.00  0.00    +0.145 HD
ENDBRANCH  21  24
BRANCH  21  23
ATOM     23  C   UNL     1      -0.438   3.792  25.784  0.00  0.00    +0.069 C 
BRANCH  23  25
ATOM     11  N   UNL     1      -3.614   4.858  24.271  0.00  0.00    -0.360 N 
ATOM     25  C   UNL     1      -1.677   4.027  24.968  0.00  0.00    -0.020 A 
ATOM     26  C   UNL     1      -2.052   3.343  23.779  0.00  0.00    +0.003 A 
ATOM     27  C   UNL     1      -2.658   4.952  25.245  0.00  0.00    +0.087 A 
ATOM     29  C   UNL     1      -3.271   3.883  23.361  0.00  0.00    +0.047 A 
ATOM     30  C   UNL     1      -1.469   2.313  23.013  0.00  0.00    +0.010 A 
ATOM     31  C   UNL     1      -3.938   3.442  22.213  0.00  0.00    +0.026 A 
ATOM     34  C   UNL     1      -2.125   1.862  21.862  0.00  0.00    +0.001 A 
ATOM     35  C   UNL     1      -3.341   2.420  21.470  0.00  0.00    +0.002 A 
ATOM     45  H   UNL     1      -4.451   5.422  24.224  0.00  0.00    +0.165 HD
ENDBRANCH  23  25
ENDBRANCH  21  23
ENDBRANCH   8  21
ENDBRANCH  15  20
BRANCH  16  12
ATOM     12  C   UNL     1      -5.429   1.333  24.346  0.00  0.00    +0.075 C 
ATOM     13  C   UNL     1      -6.859   1.124  24.750  0.00  0.00    +0.013 C 
ATOM     14  C   UNL     1      -6.369   2.502  24.411  0.00  0.00    +0.013 C 
ENDBRANCH  16  12
TORSDOF 9
ENDMDL
MODEL 4
REMARK VINA RESULT:       7.5      2.482      5.241
REMARK  Name = 7127958
REMARK  10 active torsions:
REMARK  status: ('A' for Active; 'I' for Inactive)
REMARK    1  A    between atoms: O_5  and  C_38
REMARK    2  A    between atoms: O_5  and  C_39
REMARK    3  A    between atoms: N_7  and  C_17
REMARK    4  A    between atoms: N_8  and  C_21
REMARK    5  A    between atoms: N_9  and  C_28
REMARK    6  A    between atoms: C_12  and  C_16
REMARK    7  A    between atoms: C_15  and  C_20
REMARK    8  A    between atoms: C_21  and  C_23
REMARK    9  A    between atoms: C_21  and  C_24
REMARK   10  A    between atoms: C_23  and  C_25
REMARK                            x       y       z     vdW  Elec       q    Type
REMARK                         _______ _______ _______ _____ _____    ______ ____
ROOT
ATOM      1  O   UNL     1      -6.041   1.257  25.589  0.00  0.00    -0.275 OA
ATOM      6  N   UNL     1      -4.389   1.406  23.969  0.00  0.00    -0.288 N 
ATOM     15  C   UNL     1      -4.149  -0.023  23.836  0.00  0.00    +0.164 C 
ATOM     16  C   UNL     1      -5.380   1.918  24.794  0.00  0.00    +0.219 C 
ATOM     17  C   UNL     1      -2.597   1.181  22.424  0.00  0.00    +0.094 C 
ATOM     18  C   UNL     1      -3.591   2.175  23.016  0.00  0.00    +0.131 C 
ATOM     19  C   UNL     1      -3.305  -0.170  22.572  0.00  0.00    +0.055 C 
ENDROOT
BRANCH  17   7
ATOM      3  O   UNL     1      -0.117   0.075  21.511  0.00  0.00    -0.253 OA
ATOM      7  N   UNL     1      -1.332   1.216  23.114  0.00  0.00    -0.295 N 
ATOM      9  N   UNL     1       0.904   0.837  23.483  0.00  0.00    -0.269 N 
ATOM     22  C   UNL     1      -0.161   0.649  22.597  0.00  0.00    +0.304 C 
ATOM     40  H   UNL     1      -1.304   1.612  24.048  0.00  0.00    +0.151 HD
ATOM     42  H   UNL     1       0.697   1.335  24.345  0.00  0.00    +0.156 HD
BRANCH   9  28
ATOM     28  C   UNL     1       2.246   0.416  23.330  0.00  0.00    +0.035 A 
ATOM     32  C   UNL     1       3.206   1.308  22.850  0.00  0.00    +0.027 A 
ATOM     33  C   UNL     1       2.610  -0.889  23.662  0.00  0.00    +0.027 A 
ATOM     36  C   UNL     1       4.529   0.893  22.701  0.00  0.00    +0.047 A 
ATOM     37  C   UNL     1       3.934  -1.303  23.513  0.00  0.00    +0.047 A 
ATOM     38  C   UNL     1       4.893  -0.412  23.032  0.00  0.00    +0.120 A 
BRANCH  38   5
ATOM      5  O   UNL     1       6.185  -0.816  22.889  0.00  0.00    -0.495 OA
ATOM     39  C   UNL     1       7.184  -0.040  23.546  0.00  0.00    +0.277 C 
ENDBRANCH  38   5
ENDBRANCH   9  28
ENDBRANCH  17   7
BRANCH  15  20
ATOM      2  O   UNL     1      -3.942  -1.242  25.878  0.00  0.00    -0.274 OA
ATOM      8  N   UNL     1      -2.125  -0.002  25.116  0.00  0.00    -0.302 N 
ATOM     20  C   UNL     1      -3.414  -0.503  25.051  0.00  0.00    +0.234 C 
ATOM     41  H   UNL     1      -1.766   0.532  24.329  0.00  0.00    +0.150 HD
BRANCH   8  21
ATOM     21  C   UNL     1      -1.216  -0.295  26.200  0.00  0.00    +0.163 C 
BRANCH  21  24
ATOM      4  O   UNL     1       0.528  -1.970  26.442  0.00  0.00    -0.274 OA
ATOM     10  N   UNL     1      -0.863  -2.088  24.617  0.00  0.00    -0.328 N 
ATOM     24  C   UNL     1      -0.405  -1.515  25.786  0.00  0.00    +0.231 C 
ATOM     43  H   UNL     1      -1.651  -1.714  24.099  0.00  0.00    +0.145 HD
ATOM     44  H   UNL     1      -0.419  -2.916  24.236  0.00  0.00    +0.145 HD
ENDBRANCH  21  24
BRANCH  21  23
ATOM     23  C   UNL     1      -0.288   0.883  26.516  0.00  0.00    +0.069 C 
BRANCH  23  25
ATOM     11  N   UNL     1      -2.352   3.915  26.776  0.00  0.00    -0.360 N 
ATOM     25  C   UNL     1      -0.970   2.217  26.404  0.00  0.00    -0.020 A 
ATOM     26  C   UNL     1      -0.663   3.252  25.478  0.00  0.00    +0.003 A 
ATOM     27  C   UNL     1      -2.013   2.655  27.189  0.00  0.00    +0.087 A 
ATOM     29  C   UNL     1      -1.544   4.306  25.732  0.00  0.00    +0.047 A 
ATOM     30  C   UNL     1       0.284   3.395  24.443  0.00  0.00    +0.010 A 
ATOM     31  C   UNL     1      -1.525   5.499  25.001  0.00  0.00    +0.026 A 
ATOM     34  C   UNL     1       0.314   4.582  23.704  0.00  0.00    +0.001 A 
ATOM     35  C   UNL     1      -0.577   5.617  23.981  0.00  0.00    +0.002 A 
ATOM     45  H   UNL     1      -3.087   4.478  27.179  0.00  0.00    +0.165 HD
ENDBRANCH  23  25
ENDBRANCH  21  23
ENDBRANCH   8  21
ENDBRANCH  15  20
BRANCH  16  12
ATOM     12  C   UNL     1      -5.627   3.389  24.700  0.00  0.00    +0.075 C 
ATOM     13  C   UNL     1      -6.364   4.078  25.811  0.00  0.00    +0.013 C 
ATOM     14  C   UNL     1      -4.893   4.314  25.628  0.00  0.00    +0.013 C 
ENDBRANCH  16  12
TORSDOF 9
ENDMDL
MODEL 5
REMARK VINA RESULT:       8.0      2.242      5.721
REMARK  Name = 7127958
REMARK  10 active torsions:
REMARK  status: ('A' for Active; 'I' for Inactive)
REMARK    1  A    between atoms: O_5  and  C_38
REMARK    2  A    between atoms: O_5  and  C_39
REMARK    3  A    between atoms: N_7  and  C_17
REMARK    4  A    between atoms: N_8  and  C_21
REMARK    5  A    between atoms: N_9  and  C_28
REMARK    6  A    between atoms: C_12  and  C_16
REMARK    7  A    between atoms: C_15  and  C_20
REMARK    8  A    between atoms: C_21  and  C_23
REMARK    9  A    between atoms: C_21  and  C_24
REMARK   10  A    between atoms: C_23  and  C_25
REMARK                            x       y       z     vdW  Elec       q    Type
REMARK                         _______ _______ _______ _____ _____    ______ ____
ROOT
ATOM      1  O   UNL     1      -2.875   4.619  26.853  0.00  0.00    -0.275 OA
ATOM      6  N   UNL     1      -3.321   3.735  24.756  0.00  0.00    -0.288 N 
ATOM     15  C   UNL     1      -4.073   2.577  25.214  0.00  0.00    +0.164 C 
ATOM     16  C   UNL     1      -2.846   4.704  25.630  0.00  0.00    +0.219 C 
ATOM     17  C   UNL     1      -3.850   2.482  22.808  0.00  0.00    +0.094 C 
ATOM     18  C   UNL     1      -3.296   3.816  23.297  0.00  0.00    +0.131 C 
ATOM     19  C   UNL     1      -4.742   2.016  23.962  0.00  0.00    +0.055 C 
ENDROOT
BRANCH  17   7
ATOM      3  O   UNL     1      -1.046   2.851  23.272  0.00  0.00    -0.253 OA
ATOM      7  N   UNL     1      -2.797   1.543  22.514  0.00  0.00    -0.295 N 
ATOM      9  N   UNL     1      -0.658   0.712  22.385  0.00  0.00    -0.269 N 
ATOM     22  C   UNL     1      -1.444   1.801  22.773  0.00  0.00    +0.304 C 
ATOM     40  H   UNL     1      -3.039   0.681  22.036  0.00  0.00    +0.151 HD
ATOM     42  H   UNL     1      -1.147  -0.084  21.984  0.00  0.00    +0.156 HD
BRANCH   9  28
ATOM     28  C   UNL     1       0.747   0.578  22.480  0.00  0.00    +0.035 A 
ATOM     32  C   UNL     1       1.413  -0.360  21.692  0.00  0.00    +0.027 A 
ATOM     33  C   UNL     1       1.466   1.387  23.360  0.00  0.00    +0.027 A 
ATOM     36  C   UNL     1       2.799  -0.491  21.785  0.00  0.00    +0.047 A 
ATOM     37  C   UNL     1       2.853   1.257  23.453  0.00  0.00    +0.047 A 
ATOM     38  C   UNL     1       3.518   0.317  22.665  0.00  0.00    +0.120 A 
BRANCH  38   5
ATOM      5  O   UNL     1       4.870   0.191  22.754  0.00  0.00    -0.495 OA
ATOM     39  C   UNL     1       5.388  -0.438  23.925  0.00  0.00    +0.277 C 
ENDBRANCH  38   5
ENDBRANCH   9  28
ENDBRANCH  17   7
BRANCH  15  20
ATOM      2  O   UNL     1      -3.511   0.626  26.471  0.00  0.00    -0.274 OA
ATOM      8  N   UNL     1      -1.797   1.922  25.573  0.00  0.00    -0.302 N 
ATOM     20  C   UNL     1      -3.119   1.592  25.820  0.00  0.00    +0.234 C 
ATOM     41  H   UNL     1      -1.594   2.698  24.949  0.00  0.00    +0.150 HD
BRANCH   8  21
ATOM     21  C   UNL     1      -0.682   1.146  26.067  0.00  0.00    +0.163 C 
BRANCH  21  24
ATOM      4  O   UNL     1       0.047   1.859  28.273  0.00  0.00    -0.274 OA
ATOM     10  N   UNL     1       0.826   2.999  26.437  0.00  0.00    -0.328 N 
ATOM     24  C   UNL     1       0.070   2.025  27.057  0.00  0.00    +0.231 C 
ATOM     43  H   UNL     1       0.854   3.109  25.428  0.00  0.00    +0.145 HD
ATOM     44  H   UNL     1       1.388   3.645  26.981  0.00  0.00    +0.145 HD
ENDBRANCH  21  24
BRANCH  21  23
ATOM     23  C   UNL     1      -1.134  -0.155  26.741  0.00  0.00    +0.069 C 
BRANCH  23  25
ATOM     11  N   UNL     1      -0.598  -3.091  24.594  0.00  0.00    -0.360 N 
ATOM     25  C   UNL     1      -1.192  -1.319  25.794  0.00  0.00    -0.020 A 
ATOM     26  C   UNL     1      -2.325  -1.753  25.051  0.00  0.00    +0.003 A 
ATOM     27  C   UNL     1      -0.146  -2.162  25.492  0.00  0.00    +0.087 A 
ATOM     29  C   UNL     1      -1.926  -2.866  24.307  0.00  0.00    +0.047 A 
ATOM     30  C   UNL     1      -3.657  -1.305  24.941  0.00  0.00    +0.010 A 
ATOM     31  C   UNL     1      -2.796  -3.555  23.454  0.00  0.00    +0.026 A 
ATOM     34  C   UNL     1      -4.537  -1.984  24.092  0.00  0.00    +0.001 A 
ATOM     35  C   UNL     1      -4.111  -3.092  23.360  0.00  0.00    +0.002 A 
ATOM     45  H   UNL     1      -0.040  -3.835  24.199  0.00  0.00    +0.165 HD
ENDBRANCH  23  25
ENDBRANCH  21  23
ENDBRANCH   8  21
ENDBRANCH  15  20
BRANCH  16  12
ATOM     12  C   UNL     1      -2.244   5.921  25.005  0.00  0.00    +0.075 C 
ATOM     13  C   UNL     1      -0.756   6.112  25.065  0.00  0.00    +0.013 C 
ATOM     14  C   UNL     1      -1.417   5.771  23.761  0.00  0.00    +0.013 C 
ENDBRANCH  16  12
TORSDOF 9
ENDMDL
MODEL 6
REMARK VINA RESULT:       8.2      1.739      2.329
REMARK  Name = 7127958
REMARK  10 active torsions:
REMARK  status: ('A' for Active; 'I' for Inactive)
REMARK    1  A    between atoms: O_5  and  C_38
REMARK    2  A    between atoms: O_5  and  C_39
REMARK    3  A    between atoms: N_7  and  C_17
REMARK    4  A    between atoms: N_8  and  C_21
REMARK    5  A    between atoms: N_9  and  C_28
REMARK    6  A    between atoms: C_12  and  C_16
REMARK    7  A    between atoms: C_15  and  C_20
REMARK    8  A    between atoms: C_21  and  C_23
REMARK    9  A    between atoms: C_21  and  C_24
REMARK   10  A    between atoms: C_23  and  C_25
REMARK                            x       y       z     vdW  Elec       q    Type
REMARK                         _______ _______ _______ _____ _____    ______ ____
ROOT
ATOM      1  O   UNL     1      -6.145   0.869  24.428  0.00  0.00    -0.275 OA
ATOM      6  N   UNL     1      -4.779   2.743  24.406  0.00  0.00    -0.288 N 
ATOM     15  C   UNL     1      -4.202   2.519  23.090  0.00  0.00    +0.164 C 
ATOM     16  C   UNL     1      -5.768   1.923  24.931  0.00  0.00    +0.219 C 
ATOM     17  C   UNL     1      -3.177   4.468  24.090  0.00  0.00    +0.094 C 
ATOM     18  C   UNL     1      -4.315   4.001  24.989  0.00  0.00    +0.131 C 
ATOM     19  C   UNL     1      -3.497   3.827  22.736  0.00  0.00    +0.055 C 
ENDROOT
BRANCH  17   7
ATOM      3  O   UNL     1      -2.535   3.840  26.811  0.00  0.00    -0.253 OA
ATOM      7  N   UNL     1      -1.892   4.060  24.600  0.00  0.00    -0.295 N 
ATOM      9  N   UNL     1      -0.326   3.402  26.148  0.00  0.00    -0.269 N 
ATOM     22  C   UNL     1      -1.660   3.769  25.951  0.00  0.00    +0.304 C 
ATOM     40  H   UNL     1      -1.102   4.046  23.962  0.00  0.00    +0.151 HD
ATOM     42  H   UNL     1       0.272   3.396  25.325  0.00  0.00    +0.156 HD
BRANCH   9  28
ATOM     28  C   UNL     1       0.304   3.035  27.361  0.00  0.00    +0.035 A 
ATOM     32  C   UNL     1      -0.468   2.688  28.470  0.00  0.00    +0.027 A 
ATOM     33  C   UNL     1       1.696   3.018  27.446  0.00  0.00    +0.027 A 
ATOM     36  C   UNL     1       0.152   2.325  29.665  0.00  0.00    +0.047 A 
ATOM     37  C   UNL     1       2.317   2.654  28.642  0.00  0.00    +0.047 A 
ATOM     38  C   UNL     1       1.544   2.308  29.750  0.00  0.00    +0.120 A 
BRANCH  38   5
ATOM      5  O   UNL     1       2.150   1.951  30.916  0.00  0.00    -0.495 OA
ATOM     39  C   UNL     1       1.336   1.915  32.086  0.00  0.00    +0.277 C 
ENDBRANCH  38   5
ENDBRANCH   9  28
ENDBRANCH  17   7
BRANCH  15  20
ATOM      2  O   UNL     1      -2.457   1.115  22.262  0.00  0.00    -0.274 OA
ATOM      8  N   UNL     1      -3.357   0.676  24.364  0.00  0.00    -0.302 N 
ATOM     20  C   UNL     1      -3.236   1.376  23.175  0.00  0.00    +0.234 C 
ATOM     41  H   UNL     1      -3.977   1.036  25.084  0.00  0.00    +0.150 HD
BRANCH   8  21
ATOM     21  C   UNL     1      -2.555  -0.484  24.684  0.00  0.00    +0.163 C 
BRANCH  21  24
ATOM      4  O   UNL     1      -3.515  -2.450  25.741  0.00  0.00    -0.274 OA
ATOM     10  N   UNL     1      -4.395  -1.738  23.741  0.00  0.00    -0.328 N 
ATOM     24  C   UNL     1      -3.506  -1.667  24.795  0.00  0.00    +0.231 C 
ATOM     43  H   UNL     1      -4.391  -1.069  22.978  0.00  0.00    +0.145 HD
ATOM     44  H   UNL     1      -5.093  -2.472  23.699  0.00  0.00    +0.145 HD
ENDBRANCH  21  24
BRANCH  21  23
ATOM     23  C   UNL     1      -1.481  -0.757  23.625  0.00  0.00    +0.069 C 
BRANCH  23  25
ATOM     11  N   UNL     1       1.233   1.486  24.683  0.00  0.00    -0.360 N 
ATOM     25  C   UNL     1      -0.234   0.056  23.827  0.00  0.00    -0.020 A 
ATOM     26  C   UNL     1       0.930   0.041  23.010  0.00  0.00    +0.003 A 
ATOM     27  C   UNL     1      -0.017   0.954  24.848  0.00  0.00    +0.087 A 
ATOM     29  C   UNL     1       1.835   0.947  23.568  0.00  0.00    +0.047 A 
ATOM     30  C   UNL     1       1.302  -0.658  21.844  0.00  0.00    +0.010 A 
ATOM     31  C   UNL     1       3.098   1.189  23.016  0.00  0.00    +0.026 A 
ATOM     34  C   UNL     1       2.562  -0.426  21.281  0.00  0.00    +0.001 A 
ATOM     35  C   UNL     1       3.445   0.484  21.860  0.00  0.00    +0.002 A 
ATOM     45  H   UNL     1       1.655   2.174  25.291  0.00  0.00    +0.165 HD
ENDBRANCH  23  25
ENDBRANCH  21  23
ENDBRANCH   8  21
ENDBRANCH  15  20
BRANCH  16  12
ATOM     12  C   UNL     1      -6.389   2.372  26.215  0.00  0.00    +0.075 C 
ATOM     13  C   UNL     1      -6.936   1.342  27.161  0.00  0.00    +0.013 C 
ATOM     14  C   UNL     1      -5.680   2.087  27.508  0.00  0.00    +0.013 C 
ENDBRANCH  16  12
TORSDOF 9
ENDMDL
MODEL 7
REMARK VINA RESULT:       8.3      2.490      4.275
REMARK  Name = 7127958
REMARK  10 active torsions:
REMARK  status: ('A' for Active; 'I' for Inactive)
REMARK    1  A    between atoms: O_5  and  C_38
REMARK    2  A    between atoms: O_5  and  C_39
REMARK    3  A    between atoms: N_7  and  C_17
REMARK    4  A    between atoms: N_8  and  C_21
REMARK    5  A    between atoms: N_9  and  C_28
REMARK    6  A    between atoms: C_12  and  C_16
REMARK    7  A    between atoms: C_15  and  C_20
REMARK    8  A    between atoms: C_21  and  C_23
REMARK    9  A    between atoms: C_21  and  C_24
REMARK   10  A    between atoms: C_23  and  C_25
REMARK                            x       y       z     vdW  Elec       q    Type
REMARK                         _______ _______ _______ _____ _____    ______ ____
ROOT
ATOM      1  O   UNL     1      -5.908   1.304  24.048  0.00  0.00    -0.275 OA
ATOM      6  N   UNL     1      -4.600   3.190  24.378  0.00  0.00    -0.288 N 
ATOM     15  C   UNL     1      -4.001   3.218  23.052  0.00  0.00    +0.164 C 
ATOM     16  C   UNL     1      -5.569   2.263  24.734  0.00  0.00    +0.219 C 
ATOM     17  C   UNL     1      -3.047   4.988  24.395  0.00  0.00    +0.094 C 
ATOM     18  C   UNL     1      -4.181   4.338  25.180  0.00  0.00    +0.131 C 
ATOM     19  C   UNL     1      -3.333   4.587  22.945  0.00  0.00    +0.055 C 
ENDROOT
BRANCH  17   7
ATOM      3  O   UNL     1      -2.390   4.020  27.011  0.00  0.00    -0.253 OA
ATOM      7  N   UNL     1      -1.756   4.532  24.847  0.00  0.00    -0.295 N 
ATOM      9  N   UNL     1      -0.178   3.698  26.294  0.00  0.00    -0.269 N 
ATOM     22  C   UNL     1      -1.517   4.072  26.148  0.00  0.00    +0.304 C 
ATOM     40  H   UNL     1      -0.968   4.611  24.212  0.00  0.00    +0.151 HD
ATOM     42  H   UNL     1       0.418   3.806  25.477  0.00  0.00    +0.156 HD
BRANCH   9  28
ATOM     28  C   UNL     1       0.459   3.185  27.448  0.00  0.00    +0.035 A 
ATOM     32  C   UNL     1       1.853   3.138  27.513  0.00  0.00    +0.027 A 
ATOM     33  C   UNL     1      -0.305   2.728  28.521  0.00  0.00    +0.027 A 
ATOM     36  C   UNL     1       2.480   2.633  28.651  0.00  0.00    +0.047 A 
ATOM     37  C   UNL     1       0.324   2.224  29.661  0.00  0.00    +0.047 A 
ATOM     38  C   UNL     1       1.716   2.177  29.724  0.00  0.00    +0.120 A 
BRANCH  38   5
ATOM      5  O   UNL     1       2.329   1.686  30.836  0.00  0.00    -0.495 OA
ATOM     39  C   UNL     1       1.584   1.710  32.052  0.00  0.00    +0.277 C 
ENDBRANCH  38   5
ENDBRANCH   9  28
ENDBRANCH  17   7
BRANCH  15  20
ATOM      2  O   UNL     1      -3.191   1.128  22.230  0.00  0.00    -0.274 OA
ATOM      8  N   UNL     1      -1.901   2.314  23.763  0.00  0.00    -0.302 N 
ATOM     20  C   UNL     1      -3.002   2.105  22.951  0.00  0.00    +0.234 C 
ATOM     41  H   UNL     1      -1.812   3.201  24.251  0.00  0.00    +0.150 HD
BRANCH   8  21
ATOM     21  C   UNL     1      -0.804   1.378  23.865  0.00  0.00    +0.163 C 
BRANCH  21  24
ATOM      4  O   UNL     1       0.518   3.395  23.573  0.00  0.00    -0.274 OA
ATOM     10  N   UNL     1       1.608   1.377  23.703  0.00  0.00    -0.328 N 
ATOM     24  C   UNL     1       0.481   2.173  23.682  0.00  0.00    +0.231 C 
ATOM     43  H   UNL     1       1.562   0.370  23.819  0.00  0.00    +0.145 HD
ATOM     44  H   UNL     1       2.532   1.782  23.606  0.00  0.00    +0.145 HD
ENDBRANCH  21  24
BRANCH  21  23
ATOM     23  C   UNL     1      -0.792   0.642  25.210  0.00  0.00    +0.069 C 
BRANCH  23  25
ATOM     11  N   UNL     1      -0.906  -3.031  25.122  0.00  0.00    -0.360 N 
ATOM     25  C   UNL     1      -1.109  -0.821  25.084  0.00  0.00    -0.020 A 
ATOM     26  C   UNL     1      -2.344  -1.388  24.665  0.00  0.00    +0.003 A 
ATOM     27  C   UNL     1      -0.245  -1.857  25.358  0.00  0.00    +0.087 A 
ATOM     29  C   UNL     1      -2.191  -2.776  24.698  0.00  0.00    +0.047 A 
ATOM     30  C   UNL     1      -3.584  -0.853  24.260  0.00  0.00    +0.010 A 
ATOM     31  C   UNL     1      -3.218  -3.658  24.344  0.00  0.00    +0.026 A 
ATOM     34  C   UNL     1      -4.620  -1.723  23.903  0.00  0.00    +0.001 A 
ATOM     35  C   UNL     1      -4.438  -3.104  23.945  0.00  0.00    +0.002 A 
ATOM     45  H   UNL     1      -0.510  -3.953  25.242  0.00  0.00    +0.165 HD
ENDBRANCH  23  25
ENDBRANCH  21  23
ENDBRANCH   8  21
ENDBRANCH  15  20
BRANCH  16  12
ATOM     12  C   UNL     1      -6.217   2.461  26.067  0.00  0.00    +0.075 C 
ATOM     13  C   UNL     1      -6.671   1.259  26.843  0.00  0.00    +0.013 C 
ATOM     14  C   UNL     1      -5.480   2.044  27.307  0.00  0.00    +0.013 C 
ENDBRANCH  16  12
TORSDOF 9
ENDMDL
MODEL 8
REMARK VINA RESULT:       8.3      2.004      4.961
REMARK  Name = 7127958
REMARK  10 active torsions:
REMARK  status: ('A' for Active; 'I' for Inactive)
REMARK    1  A    between atoms: O_5  and  C_38
REMARK    2  A    between atoms: O_5  and  C_39
REMARK    3  A    between atoms: N_7  and  C_17
REMARK    4  A    between atoms: N_8  and  C_21
REMARK    5  A    between atoms: N_9  and  C_28
REMARK    6  A    between atoms: C_12  and  C_16
REMARK    7  A    between atoms: C_15  and  C_20
REMARK    8  A    between atoms: C_21  and  C_23
REMARK    9  A    between atoms: C_21  and  C_24
REMARK   10  A    between atoms: C_23  and  C_25
REMARK                            x       y       z     vdW  Elec       q    Type
REMARK                         _______ _______ _______ _____ _____    ______ ____
ROOT
ATOM      1  O   UNL     1      -4.044   2.905  26.552  0.00  0.00    -0.275 OA
ATOM      6  N   UNL     1      -3.017   2.711  24.481  0.00  0.00    -0.288 N 
ATOM     15  C   UNL     1      -3.887   1.671  23.955  0.00  0.00    +0.164 C 
ATOM     16  C   UNL     1      -3.226   3.293  25.724  0.00  0.00    +0.219 C 
ATOM     17  C   UNL     1      -2.151   2.151  22.341  0.00  0.00    +0.094 C 
ATOM     18  C   UNL     1      -2.049   3.157  23.481  0.00  0.00    +0.131 C 
ATOM     19  C   UNL     1      -3.581   1.613  22.460  0.00  0.00    +0.055 C 
ENDROOT
BRANCH  17   7
ATOM      3  O   UNL     1       0.621   2.487  22.983  0.00  0.00    -0.253 OA
ATOM      7  N   UNL     1      -1.161   1.110  22.457  0.00  0.00    -0.295 N 
ATOM      9  N   UNL     1       0.901   0.162  22.818  0.00  0.00    -0.269 N 
ATOM     22  C   UNL     1       0.180   1.359  22.776  0.00  0.00    +0.304 C 
ATOM     40  H   UNL     1      -1.434   0.159  22.232  0.00  0.00    +0.151 HD
ATOM     42  H   UNL     1       0.383  -0.690  22.619  0.00  0.00    +0.156 HD
BRANCH   9  28
ATOM     28  C   UNL     1       2.275  -0.014  23.103  0.00  0.00    +0.035 A 
ATOM     32  C   UNL     1       2.732  -1.232  23.608  0.00  0.00    +0.027 A 
ATOM     33  C   UNL     1       3.173   1.029  22.878  0.00  0.00    +0.027 A 
ATOM     36  C   UNL     1       4.087  -1.406  23.888  0.00  0.00    +0.047 A 
ATOM     37  C   UNL     1       4.529   0.855  23.157  0.00  0.00    +0.047 A 
ATOM     38  C   UNL     1       4.985  -0.363  23.663  0.00  0.00    +0.120 A 
BRANCH  38   5
ATOM      5  O   UNL     1       6.308  -0.533  23.934  0.00  0.00    -0.495 OA
ATOM     39  C   UNL     1       7.193  -0.624  22.819  0.00  0.00    +0.277 C 
ENDBRANCH  38   5
ENDBRANCH   9  28
ENDBRANCH  17   7
BRANCH  15  20
ATOM      2  O   UNL     1      -4.296  -0.602  24.561  0.00  0.00    -0.274 OA
ATOM      8  N   UNL     1      -2.373   0.447  25.350  0.00  0.00    -0.302 N 
ATOM     20  C   UNL     1      -3.558   0.377  24.638  0.00  0.00    +0.234 C 
ATOM     41  H   UNL     1      -1.801   1.284  25.270  0.00  0.00    +0.150 HD
BRANCH   8  21
ATOM     21  C   UNL     1      -1.844  -0.658  26.115  0.00  0.00    +0.163 C 
BRANCH  21  24
ATOM      4  O   UNL     1      -1.123  -1.581  23.986  0.00  0.00    -0.274 OA
ATOM     10  N   UNL     1       0.186  -1.942  25.839  0.00  0.00    -0.328 N 
ATOM     24  C   UNL     1      -0.925  -1.443  25.190  0.00  0.00    +0.231 C 
ATOM     43  H   UNL     1       0.348  -1.800  26.831  0.00  0.00    +0.145 HD
ATOM     44  H   UNL     1       0.887  -2.474  25.335  0.00  0.00    +0.145 HD
ENDBRANCH  21  24
BRANCH  21  23
ATOM     23  C   UNL     1      -1.080  -0.191  27.359  0.00  0.00    +0.069 C 
BRANCH  23  25
ATOM     11  N   UNL     1       0.805   2.691  26.070  0.00  0.00    -0.360 N 
ATOM     25  C   UNL     1      -0.205   1.003  27.100  0.00  0.00    -0.020 A 
ATOM     26  C   UNL     1       0.640   1.655  28.039  0.00  0.00    +0.003 A 
ATOM     27  C   UNL     1      -0.083   1.663  25.898  0.00  0.00    +0.087 A 
ATOM     29  C   UNL     1       1.263   2.711  27.368  0.00  0.00    +0.047 A 
ATOM     30  C   UNL     1       0.937   1.449  29.402  0.00  0.00    +0.010 A 
ATOM     31  C   UNL     1       2.171   3.572  27.994  0.00  0.00    +0.026 A 
ATOM     34  C   UNL     1       1.843   2.303  30.040  0.00  0.00    +0.001 A 
ATOM     35  C   UNL     1       2.450   3.348  29.345  0.00  0.00    +0.002 A 
ATOM     45  H   UNL     1       1.084   3.342  25.350  0.00  0.00    +0.165 HD
ENDBRANCH  23  25
ENDBRANCH  21  23
ENDBRANCH   8  21
ENDBRANCH  15  20
BRANCH  16  12
ATOM     12  C   UNL     1      -2.361   4.466  26.060  0.00  0.00    +0.075 C 
ATOM     13  C   UNL     1      -1.351   4.939  25.055  0.00  0.00    +0.013 C 
ATOM     14  C   UNL     1      -2.574   5.762  25.333  0.00  0.00    +0.013 C 
ENDBRANCH  16  12
TORSDOF 9
ENDMDL
