MODEL 1
REMARK VINA RESULT:       3.3      0.000      0.000
REMARK  Name = 11885138
REMARK  5 active torsions:
REMARK  status: ('A' for Active; 'I' for Inactive)
REMARK    1  A    between atoms: S_1  and  N_7
REMARK    2  A    between atoms: S_1  and  C_20
REMARK    3  A    between atoms: O_6  and  C_31
REMARK    4  A    between atoms: O_6  and  C_32
REMARK    5  A    between atoms: C_18  and  C_21
REMARK                            x       y       z     vdW  Elec       q    Type
REMARK                         _______ _______ _______ _____ _____    ______ ____
ROOT
ATOM      5  O   UNL     1       0.309   2.205  25.857  0.00  0.00    -0.267 OA
ATOM      7  N   UNL     1      -4.632   2.443  25.239  0.00  0.00    -0.176 NA
ATOM      8  N   UNL     1      -1.570   3.079  24.788  0.00  0.00    -0.311 N 
ATOM      9  C   UNL     1      -3.354   4.439  26.026  0.00  0.00    +0.025 C 
ATOM     10  C   UNL     1      -3.594   4.017  23.618  0.00  0.00    +0.052 C 
ATOM     11  C   UNL     1      -3.572   5.115  24.678  0.00  0.00    +0.017 C 
ATOM     12  C   UNL     1      -4.495   3.454  26.327  0.00  0.00    +0.114 C 
ATOM     13  C   UNL     1      -4.773   3.065  23.889  0.00  0.00    +0.119 C 
ATOM     14  C   UNL     1      -1.978   3.760  26.025  0.00  0.00    +0.130 C 
ATOM     15  C   UNL     1      -2.287   3.247  23.601  0.00  0.00    +0.026 A 
ATOM     16  C   UNL     1      -1.831   2.712  22.458  0.00  0.00    +0.022 A 
ATOM     17  C   UNL     1      -0.369   2.345  24.838  0.00  0.00    +0.259 A 
ATOM     18  C   UNL     1       0.098   1.726  23.548  0.00  0.00    +0.047 A 
ATOM     19  C   UNL     1      -0.623   1.934  22.436  0.00  0.00    +0.015 A 
ENDROOT
BRANCH  18  21
ATOM     21  C   UNL     1       1.315   0.898  23.495  0.00  0.00    -0.012 A 
ATOM     24  C   UNL     1       1.236  -0.477  23.724  0.00  0.00    +0.012 A 
ATOM     25  C   UNL     1       2.549   1.486  23.216  0.00  0.00    +0.012 A 
ATOM     29  C   UNL     1       2.390  -1.261  23.674  0.00  0.00    +0.046 A 
ATOM     30  C   UNL     1       3.702   0.703  23.166  0.00  0.00    +0.046 A 
ATOM     31  C   UNL     1       3.622  -0.671  23.396  0.00  0.00    +0.120 A 
BRANCH  31   6
ATOM      6  O   UNL     1       4.746  -1.435  23.347  0.00  0.00    -0.495 OA
ATOM     32  C   UNL     1       5.939  -0.872  23.892  0.00  0.00    +0.277 C 
ENDBRANCH  31   6
ENDBRANCH  18  21
BRANCH   7   1
ATOM      1  S   UNL     1      -5.691   1.141  25.569  0.00  0.00    +0.061 S 
ATOM      3  O   UNL     1      -6.774   1.156  24.609  0.00  0.00    -0.153 OA
ATOM      4  O   UNL     1      -5.957   1.098  26.991  0.00  0.00    -0.153 OA
BRANCH   1  20
ATOM      2  F   UNL     1      -2.191  -3.389  24.249  0.00  0.00    -0.205 F 
ATOM     20  C   UNL     1      -4.640  -0.220  25.172  0.00  0.00    +0.106 A 
ATOM     22  C   UNL     1      -4.924  -0.995  24.060  0.00  0.00    +0.031 A 
ATOM     23  C   UNL     1      -3.546  -0.491  25.980  0.00  0.00    +0.031 A 
ATOM     26  C   UNL     1      -4.094  -2.071  23.747  0.00  0.00    +0.040 A 
ATOM     27  C   UNL     1      -2.716  -1.566  25.666  0.00  0.00    +0.040 A 
ATOM     28  C   UNL     1      -2.989  -2.356  24.550  0.00  0.00    +0.124 A 
ENDBRANCH   1  20
ENDBRANCH   7   1
TORSDOF 4
ENDMDL
MODEL 2
REMARK VINA RESULT:       7.0      2.314      4.466
REMARK  Name = 11885138
REMARK  5 active torsions:
REMARK  status: ('A' for Active; 'I' for Inactive)
REMARK    1  A    between atoms: S_1  and  N_7
REMARK    2  A    between atoms: S_1  and  C_20
REMARK    3  A    between atoms: O_6  and  C_31
REMARK    4  A    between atoms: O_6  and  C_32
REMARK    5  A    between atoms: C_18  and  C_21
REMARK                            x       y       z     vdW  Elec       q    Type
REMARK                         _______ _______ _______ _____ _____    ______ ____
ROOT
ATOM      5  O   UNL     1      -0.565  -0.463  22.135  0.00  0.00    -0.267 OA
ATOM      7  N   UNL     1      -4.397   0.837  25.046  0.00  0.00    -0.176 NA
ATOM      8  N   UNL     1      -2.043  -0.918  23.881  0.00  0.00    -0.311 N 
ATOM      9  C   UNL     1      -4.570  -1.138  23.528  0.00  0.00    +0.025 C 
ATOM     10  C   UNL     1      -3.624  -1.409  25.778  0.00  0.00    +0.052 C 
ATOM     11  C   UNL     1      -4.514  -2.072  24.731  0.00  0.00    +0.017 C 
ATOM     12  C   UNL     1      -5.167   0.221  23.928  0.00  0.00    +0.114 C 
ATOM     13  C   UNL     1      -4.254  -0.075  26.219  0.00  0.00    +0.119 C 
ATOM     14  C   UNL     1      -3.162  -1.007  22.934  0.00  0.00    +0.130 C 
ATOM     15  C   UNL     1      -2.224  -1.180  25.241  0.00  0.00    +0.026 A 
ATOM     16  C   UNL     1      -1.167  -1.207  26.068  0.00  0.00    +0.022 A 
ATOM     17  C   UNL     1      -0.770  -0.663  23.333  0.00  0.00    +0.259 A 
ATOM     18  C   UNL     1       0.390  -0.664  24.291  0.00  0.00    +0.047 A 
ATOM     19  C   UNL     1       0.157  -0.938  25.583  0.00  0.00    +0.015 A 
ENDROOT
BRANCH  18  21
ATOM     21  C   UNL     1       1.758  -0.362  23.834  0.00  0.00    -0.012 A 
ATOM     24  C   UNL     1       2.758  -1.331  23.936  0.00  0.00    +0.012 A 
ATOM     25  C   UNL     1       2.056   0.892  23.300  0.00  0.00    +0.012 A 
ATOM     29  C   UNL     1       4.054  -1.045  23.502  0.00  0.00    +0.046 A 
ATOM     30  C   UNL     1       3.351   1.177  22.868  0.00  0.00    +0.046 A 
ATOM     31  C   UNL     1       4.350   0.209  22.970  0.00  0.00    +0.120 A 
BRANCH  31   6
ATOM      6  O   UNL     1       5.613   0.487  22.548  0.00  0.00    -0.495 OA
ATOM     32  C   UNL     1       6.675  -0.264  23.136  0.00  0.00    +0.277 C 
ENDBRANCH  31   6
ENDBRANCH  18  21
BRANCH   7   1
ATOM      1  S   UNL     1      -4.798   2.459  25.415  0.00  0.00    +0.061 S 
ATOM      3  O   UNL     1      -5.130   2.557  26.821  0.00  0.00    -0.153 OA
ATOM      4  O   UNL     1      -5.698   2.965  24.401  0.00  0.00    -0.153 OA
BRANCH   1  20
ATOM      2  F   UNL     1       0.432   5.017  24.628  0.00  0.00    -0.205 F 
ATOM     20  C   UNL     1      -3.227   3.228  25.178  0.00  0.00    +0.106 A 
ATOM     22  C   UNL     1      -3.053   4.547  25.561  0.00  0.00    +0.031 A 
ATOM     23  C   UNL     1      -2.192   2.497  24.615  0.00  0.00    +0.031 A 
ATOM     26  C   UNL     1      -1.812   5.155  25.373  0.00  0.00    +0.040 A 
ATOM     27  C   UNL     1      -0.951   3.105  24.428  0.00  0.00    +0.040 A 
ATOM     28  C   UNL     1      -0.761   4.433  24.807  0.00  0.00    +0.124 A 
ENDBRANCH   1  20
ENDBRANCH   7   1
TORSDOF 4
ENDMDL
