MODEL 1
REMARK VINA RESULT:       1.1      0.000      0.000
REMARK  Name = 45783578
REMARK  8 active torsions:
REMARK  status: ('A' for Active; 'I' for Inactive)
REMARK    1  A    between atoms: O_1  and  C_13
REMARK    2  A    between atoms: O_1  and  C_25
REMARK    3  A    between atoms: O_3  and  C_33
REMARK    4  A    between atoms: N_5  and  C_14
REMARK    5  A    between atoms: C_9  and  C_20
REMARK    6  A    between atoms: C_14  and  C_21
REMARK    7  A    between atoms: C_22  and  C_26
REMARK    8  A    between atoms: C_31  and  C_33
REMARK                            x       y       z     vdW  Elec       q    Type
REMARK                         _______ _______ _______ _____ _____    ______ ____
ROOT
ATOM      2  O   UNL     1      -2.413   2.870  25.703  0.00  0.00    -0.336 OA
ATOM      6  N   UNL     1      -2.417   1.999  23.640  0.00  0.00    -0.190 NA
ATOM      7  N   UNL     1      -1.120   2.378  25.486  0.00  0.00    -0.056 NA
ATOM     20  C   UNL     1      -3.112   2.605  24.568  0.00  0.00    +0.245 A 
ATOM     22  C   UNL     1      -1.201   1.881  24.249  0.00  0.00    +0.204 A 
ENDROOT
BRANCH  22  26
ATOM      8  N   UNL     1       2.286   1.226  23.136  0.00  0.00    -0.221 NA
ATOM     25  C   UNL     1       2.077   0.129  22.376  0.00  0.00    +0.215 A 
ATOM     26  C   UNL     1      -0.089   1.258  23.594  0.00  0.00    +0.041 A 
ATOM     29  C   UNL     1       0.835  -0.454  22.179  0.00  0.00    +0.068 A 
ATOM     30  C   UNL     1      -0.263   0.128  22.803  0.00  0.00    +0.018 A 
ATOM     32  C   UNL     1       1.195   1.764  23.727  0.00  0.00    +0.126 A 
BRANCH  25   1
ATOM      1  O   UNL     1       3.174  -0.427  21.772  0.00  0.00    -0.473 OA
BRANCH   1  13
ATOM     13  C   UNL     1       4.384  -0.429  22.522  0.00  0.00    +0.175 C 
ATOM     15  C   UNL     1       4.280  -1.443  23.660  0.00  0.00    +0.044 C 
ATOM     16  C   UNL     1       4.664   0.978  23.047  0.00  0.00    +0.044 C 
ATOM     17  C   UNL     1       5.516  -1.413  24.553  0.00  0.00    +0.004 C 
ATOM     18  C   UNL     1       5.899   1.009  23.941  0.00  0.00    +0.004 C 
ATOM     19  C   UNL     1       5.796  -0.007  25.076  0.00  0.00    +0.000 C 
ENDBRANCH   1  13
ENDBRANCH  25   1
ENDBRANCH  22  26
BRANCH  20   9
ATOM      5  N   UNL     1      -5.341   2.475  25.666  0.00  0.00    -0.287 NA
ATOM      9  C   UNL     1      -4.561   3.047  24.550  0.00  0.00    +0.146 C 
ATOM     10  C   UNL     1      -4.720   4.570  24.702  0.00  0.00    +0.030 C 
ATOM     11  C   UNL     1      -5.653   4.757  25.889  0.00  0.00    +0.017 C 
ATOM     12  C   UNL     1      -6.398   3.441  25.967  0.00  0.00    +0.085 C 
BRANCH   5  14
ATOM     14  C   UNL     1      -5.874   1.151  25.375  0.00  0.00    +0.120 C 
BRANCH  14  21
ATOM     21  C   UNL     1      -4.779   0.148  25.128  0.00  0.00    -0.033 A 
ATOM     23  C   UNL     1      -3.861  -0.145  26.136  0.00  0.00    +0.006 A 
ATOM     24  C   UNL     1      -4.683  -0.489  23.891  0.00  0.00    +0.006 A 
ATOM     27  C   UNL     1      -2.846  -1.074  25.908  0.00  0.00    +0.015 A 
ATOM     28  C   UNL     1      -3.667  -1.419  23.662  0.00  0.00    +0.015 A 
ATOM     31  C   UNL     1      -2.749  -1.710  24.671  0.00  0.00    +0.059 A 
BRANCH  31  33
ATOM      4  O   UNL     1      -1.697  -3.543  23.549  0.00  0.00    -0.245 OA
ATOM     33  C   UNL     1      -1.692  -2.679  24.433  0.00  0.00    +0.337 C 
BRANCH  33   3
ATOM      3  O   UNL     1      -0.655  -2.544  25.305  0.00  0.00    -0.477 OA
ATOM     34  H   UNL     1      -0.467  -3.381  25.782  0.00  0.00    +0.295 HD
ENDBRANCH  33   3
ENDBRANCH  31  33
ENDBRANCH  14  21
ENDBRANCH   5  14
ENDBRANCH  20   9
TORSDOF 8
ENDMDL
