MODEL 1
REMARK VINA RESULT:       0.1      0.000      0.000
REMARK  Name = 7051458
REMARK  6 active torsions:
REMARK  status: ('A' for Active; 'I' for Inactive)
REMARK    1  A    between atoms: S_1  and  N_10
REMARK    2  A    between atoms: S_1  and  C_24
REMARK    3  A    between atoms: O_5  and  C_23
REMARK    4  A    between atoms: O_5  and  C_25
REMARK    5  A    between atoms: N_10  and  C_21
REMARK    6  A    between atoms: C_20  and  C_23
REMARK                            x       y       z     vdW  Elec       q    Type
REMARK                         _______ _______ _______ _____ _____    ______ ____
ROOT
ATOM      3  O   UNL     1      -0.535   2.435  26.526  0.00  0.00    -0.266 OA
ATOM      4  O   UNL     1      -5.843   2.042  27.141  0.00  0.00    -0.272 OA
ATOM      8  N   UNL     1      -5.326   3.231  25.214  0.00  0.00    -0.298 N 
ATOM      9  N   UNL     1      -2.137   3.196  24.994  0.00  0.00    -0.310 N 
ATOM     11  C   UNL     1      -3.732   5.135  25.489  0.00  0.00    +0.027 C 
ATOM     12  C   UNL     1      -3.870   3.962  23.331  0.00  0.00    +0.054 C 
ATOM     13  C   UNL     1      -3.731   5.338  23.979  0.00  0.00    +0.018 C 
ATOM     14  C   UNL     1      -5.042   4.469  25.943  0.00  0.00    +0.113 C 
ATOM     15  C   UNL     1      -2.500   4.309  25.880  0.00  0.00    +0.130 C 
ATOM     16  C   UNL     1      -5.211   3.327  23.751  0.00  0.00    +0.117 C 
ATOM     17  C   UNL     1      -2.723   3.051  23.729  0.00  0.00    +0.027 A 
ATOM     18  C   UNL     1      -2.295   2.095  22.885  0.00  0.00    +0.024 A 
ATOM     19  C   UNL     1      -1.099   2.348  25.436  0.00  0.00    +0.274 A 
ATOM     20  C   UNL     1      -5.755   2.103  25.912  0.00  0.00    +0.253 C 
ATOM     21  C   UNL     1      -0.686   1.299  24.469  0.00  0.00    +0.112 A 
ATOM     22  C   UNL     1      -1.245   1.188  23.264  0.00  0.00    +0.031 A 
ENDROOT
BRANCH  21  10
ATOM     10  N   UNL     1       0.330   0.389  24.804  0.00  0.00    -0.211 N 
ATOM     36  H   UNL     1       0.096  -0.162  25.643  0.00  0.00    +0.174 HD
BRANCH  10   1
ATOM      1  S   UNL     1       0.893  -0.591  23.528  0.00  0.00    +0.073 S 
ATOM      6  O   UNL     1       0.799  -1.991  23.900  0.00  0.00    -0.150 OA
ATOM      7  O   UNL     1       0.345  -0.100  22.278  0.00  0.00    -0.150 OA
BRANCH   1  24
ATOM      2  F   UNL     1       5.738  -2.016  24.176  0.00  0.00    -0.205 F 
ATOM     24  C   UNL     1       2.660  -0.316  23.396  0.00  0.00    +0.111 A 
ATOM     26  C   UNL     1       3.506  -1.296  23.848  0.00  0.00    +0.067 A 
ATOM     27  C   UNL     1       3.094   0.865  22.849  0.00  0.00    +0.029 A 
ATOM     30  C   UNL     1       4.880  -1.082  23.746  0.00  0.00    +0.125 A 
ATOM     31  C   UNL     1       4.469   1.079  22.747  0.00  0.00    +0.005 A 
ATOM     32  C   UNL     1       5.361   0.106  23.196  0.00  0.00    +0.038 A 
ENDBRANCH   1  24
ENDBRANCH  10   1
ENDBRANCH  21  10
BRANCH  20  23
ATOM     23  C   UNL     1      -6.117   0.894  25.086  0.00  0.00    +0.324 C 
BRANCH  23   5
ATOM      5  O   UNL     1      -4.997   0.603  24.286  0.00  0.00    -0.483 OA
BRANCH   5  25
ATOM     25  C   UNL     1      -4.276  -0.528  24.596  0.00  0.00    +0.121 A 
ATOM     28  C   UNL     1      -4.375  -1.645  23.779  0.00  0.00    +0.045 A 
ATOM     29  C   UNL     1      -3.463  -0.532  25.719  0.00  0.00    +0.045 A 
ATOM     33  C   UNL     1      -3.644  -2.791  24.093  0.00  0.00    +0.004 A 
ATOM     34  C   UNL     1      -2.732  -1.678  26.033  0.00  0.00    +0.004 A 
ATOM     35  C   UNL     1      -2.822  -2.807  25.219  0.00  0.00    +0.000 A 
ENDBRANCH   5  25
ENDBRANCH  23   5
ENDBRANCH  20  23
TORSDOF 6
ENDMDL
MODEL 2
REMARK VINA RESULT:       3.6      2.871      5.036
REMARK  Name = 7051458
REMARK  6 active torsions:
REMARK  status: ('A' for Active; 'I' for Inactive)
REMARK    1  A    between atoms: S_1  and  N_10
REMARK    2  A    between atoms: S_1  and  C_24
REMARK    3  A    between atoms: O_5  and  C_23
REMARK    4  A    between atoms: O_5  and  C_25
REMARK    5  A    between atoms: N_10  and  C_21
REMARK    6  A    between atoms: C_20  and  C_23
REMARK                            x       y       z     vdW  Elec       q    Type
REMARK                         _______ _______ _______ _____ _____    ______ ____
ROOT
ATOM      3  O   UNL     1      -3.212   0.478  22.194  0.00  0.00    -0.266 OA
ATOM      4  O   UNL     1      -0.371   4.201  24.797  0.00  0.00    -0.272 OA
ATOM      8  N   UNL     1      -2.593   4.243  25.472  0.00  0.00    -0.298 N 
ATOM      9  N   UNL     1      -4.029   1.856  23.904  0.00  0.00    -0.310 N 
ATOM     11  C   UNL     1      -4.295   4.388  23.649  0.00  0.00    +0.027 C 
ATOM     12  C   UNL     1      -4.879   3.309  25.781  0.00  0.00    +0.054 C 
ATOM     13  C   UNL     1      -5.402   4.236  24.686  0.00  0.00    +0.018 C 
ATOM     14  C   UNL     1      -3.033   4.990  24.292  0.00  0.00    +0.113 C 
ATOM     15  C   UNL     1      -4.021   3.021  23.011  0.00  0.00    +0.130 C 
ATOM     16  C   UNL     1      -3.647   3.947  26.454  0.00  0.00    +0.117 C 
ATOM     17  C   UNL     1      -4.511   1.949  25.217  0.00  0.00    +0.027 A 
ATOM     18  C   UNL     1      -4.619   0.848  25.982  0.00  0.00    +0.024 A 
ATOM     19  C   UNL     1      -3.628   0.625  23.343  0.00  0.00    +0.274 A 
ATOM     20  C   UNL     1      -1.240   3.944  25.633  0.00  0.00    +0.253 C 
ATOM     21  C   UNL     1      -3.749  -0.549  24.244  0.00  0.00    +0.112 A 
ATOM     22  C   UNL     1      -4.226  -0.443  25.484  0.00  0.00    +0.031 A 
ENDROOT
BRANCH  21  10
ATOM     10  N   UNL     1      -3.368  -1.826  23.797  0.00  0.00    -0.211 N 
ATOM     36  H   UNL     1      -3.488  -1.931  22.780  0.00  0.00    +0.174 HD
BRANCH  10   1
ATOM      1  S   UNL     1      -1.839  -2.366  24.323  0.00  0.00    +0.073 S 
ATOM      6  O   UNL     1      -1.833  -2.502  25.768  0.00  0.00    -0.150 OA
ATOM      7  O   UNL     1      -1.393  -3.441  23.457  0.00  0.00    -0.150 OA
BRANCH   1  24
ATOM      2  F   UNL     1       1.850  -0.107  21.638  0.00  0.00    -0.205 F 
ATOM     24  C   UNL     1      -0.681  -1.028  24.028  0.00  0.00    +0.111 A 
ATOM     26  C   UNL     1       0.136  -1.106  22.930  0.00  0.00    +0.067 A 
ATOM     27  C   UNL     1      -0.660   0.020  24.914  0.00  0.00    +0.029 A 
ATOM     30  C   UNL     1       1.036  -0.066  22.700  0.00  0.00    +0.125 A 
ATOM     31  C   UNL     1       0.240   1.060  24.684  0.00  0.00    +0.005 A 
ATOM     32  C   UNL     1       1.088   1.017  23.578  0.00  0.00    +0.038 A 
ENDBRANCH   1  24
ENDBRANCH  10   1
ENDBRANCH  21  10
BRANCH  20  23
ATOM     23  C   UNL     1      -0.848   3.256  26.917  0.00  0.00    +0.324 C 
BRANCH  23   5
ATOM      5  O   UNL     1       0.522   2.958  26.810  0.00  0.00    -0.483 OA
BRANCH   5  25
ATOM     25  C   UNL     1       1.210   2.718  27.979  0.00  0.00    +0.121 A 
ATOM     28  C   UNL     1       0.520   2.272  29.096  0.00  0.00    +0.045 A 
ATOM     29  C   UNL     1       2.580   2.926  28.018  0.00  0.00    +0.045 A 
ATOM     33  C   UNL     1       1.217   2.028  30.280  0.00  0.00    +0.004 A 
ATOM     34  C   UNL     1       3.277   2.683  29.201  0.00  0.00    +0.004 A 
ATOM     35  C   UNL     1       2.595   2.234  30.332  0.00  0.00    +0.000 A 
ENDBRANCH   5  25
ENDBRANCH  23   5
ENDBRANCH  20  23
TORSDOF 6
ENDMDL
