MODEL 1
REMARK VINA RESULT:      -4.0      0.000      0.000
REMARK  Name = 75537008
REMARK  2 active torsions:
REMARK  status: ('A' for Active; 'I' for Inactive)
REMARK    1  A    between atoms: N_3  and  C_7
REMARK    2  A    between atoms: C_18  and  C_19
REMARK                            x       y       z     vdW  Elec       q    Type
REMARK                         _______ _______ _______ _____ _____    ______ ____
ROOT
ATOM      1  O   UNL     1      17.257  -3.634  27.570  0.00  0.00    -0.252 OA
ATOM      2  O   UNL     1      16.196 -10.442  28.562  0.00  0.00    -0.276 OA
ATOM      3  N   UNL     1      17.078  -4.461  25.368  0.00  0.00    -0.281 N 
ATOM      4  N   UNL     1      16.736  -5.873  27.083  0.00  0.00    -0.278 N 
ATOM      5  N   UNL     1      16.898  -8.645  27.268  0.00  0.00    -0.298 N 
ATOM      6  C   UNL     1      16.439  -6.658  25.897  0.00  0.00    +0.112 C 
ATOM      8  C   UNL     1      16.880  -5.758  24.746  0.00  0.00    +0.133 C 
ATOM     11  C   UNL     1      17.149  -8.008  25.962  0.00  0.00    +0.131 C 
ATOM     12  C   UNL     1      17.046  -4.541  26.775  0.00  0.00    +0.305 C 
ATOM     13  C   UNL     1      16.589  -6.470  28.398  0.00  0.00    +0.128 C 
ATOM     17  C   UNL     1      17.281  -7.830  28.432  0.00  0.00    +0.127 C 
ATOM     18  C   UNL     1      16.372  -9.921  27.456  0.00  0.00    +0.213 C 
ATOM     19  C   UNL     1      16.003 -10.688  26.212  0.00  0.00    +0.109 C 
ENDROOT
BRANCH   3   7
ATOM      7  C   UNL     1      17.404  -3.286  24.598  0.00  0.00    +0.078 C 
ATOM      9  C   UNL     1      17.118  -3.515  23.112  0.00  0.00    +0.022 C 
ATOM     10  C   UNL     1      16.644  -2.068  25.130  0.00  0.00    +0.022 C 
ATOM     14  C   UNL     1      17.405  -2.264  22.285  0.00  0.00    +0.002 C 
ATOM     15  C   UNL     1      16.930  -0.819  24.300  0.00  0.00    +0.002 C 
ATOM     16  C   UNL     1      16.649  -1.051  22.819  0.00  0.00    +0.000 C 
ENDBRANCH   3   7
TORSDOF 1
ENDMDL
MODEL 2
REMARK VINA RESULT:      -3.1     18.816     20.045
REMARK  Name = 75537008
REMARK  2 active torsions:
REMARK  status: ('A' for Active; 'I' for Inactive)
REMARK    1  A    between atoms: N_3  and  C_7
REMARK    2  A    between atoms: C_18  and  C_19
REMARK                            x       y       z     vdW  Elec       q    Type
REMARK                         _______ _______ _______ _____ _____    ______ ____
ROOT
ATOM      1  O   UNL     1      -0.925  -1.918  24.633  0.00  0.00    -0.252 OA
ATOM      2  O   UNL     1      -6.530   1.963  26.037  0.00  0.00    -0.276 OA
ATOM      3  N   UNL     1      -0.199   0.261  24.097  0.00  0.00    -0.281 N 
ATOM      4  N   UNL     1      -2.242  -0.006  24.994  0.00  0.00    -0.278 N 
ATOM      5  N   UNL     1      -4.521   1.589  24.932  0.00  0.00    -0.298 N 
ATOM      6  C   UNL     1      -2.069   1.433  24.898  0.00  0.00    +0.112 C 
ATOM      8  C   UNL     1      -0.780   1.591  24.097  0.00  0.00    +0.133 C 
ATOM     11  C   UNL     1      -3.300   2.075  24.263  0.00  0.00    +0.131 C 
ATOM     12  C   UNL     1      -1.099  -0.708  24.585  0.00  0.00    +0.305 C 
ATOM     13  C   UNL     1      -3.460  -0.549  25.566  0.00  0.00    +0.128 C 
ATOM     17  C   UNL     1      -4.677   0.127  24.938  0.00  0.00    +0.127 C 
ATOM     18  C   UNL     1      -5.503   2.395  25.505  0.00  0.00    +0.213 C 
ATOM     19  C   UNL     1      -5.265   3.883  25.458  0.00  0.00    +0.109 C 
ENDROOT
BRANCH   3   7
ATOM      7  C   UNL     1       1.098  -0.007  23.525  0.00  0.00    +0.078 C 
ATOM      9  C   UNL     1       0.976  -0.345  22.037  0.00  0.00    +0.022 C 
ATOM     10  C   UNL     1       2.038   1.180  23.750  0.00  0.00    +0.022 C 
ATOM     14  C   UNL     1       2.343  -0.578  21.399  0.00  0.00    +0.002 C 
ATOM     15  C   UNL     1       3.404   0.946  23.109  0.00  0.00    +0.002 C 
ATOM     16  C   UNL     1       3.279   0.605  21.628  0.00  0.00    +0.000 C 
ENDBRANCH   3   7
TORSDOF 1
ENDMDL
MODEL 3
REMARK VINA RESULT:      -2.9      5.228      6.080
REMARK  Name = 75537008
REMARK  2 active torsions:
REMARK  status: ('A' for Active; 'I' for Inactive)
REMARK    1  A    between atoms: N_3  and  C_7
REMARK    2  A    between atoms: C_18  and  C_19
REMARK                            x       y       z     vdW  Elec       q    Type
REMARK                         _______ _______ _______ _____ _____    ______ ____
ROOT
ATOM      1  O   UNL     1      13.752  -4.073  32.048  0.00  0.00    -0.252 OA
ATOM      2  O   UNL     1      12.146 -10.615  30.297  0.00  0.00    -0.276 OA
ATOM      3  N   UNL     1      15.706  -4.816  30.955  0.00  0.00    -0.281 N 
ATOM      4  N   UNL     1      13.922  -6.180  31.022  0.00  0.00    -0.278 N 
ATOM      5  N   UNL     1      13.684  -8.941  30.777  0.00  0.00    -0.298 N 
ATOM      6  C   UNL     1      14.887  -6.880  30.193  0.00  0.00    +0.112 C 
ATOM      8  C   UNL     1      16.159  -6.047  30.334  0.00  0.00    +0.133 C 
ATOM     11  C   UNL     1      15.020  -8.333  30.644  0.00  0.00    +0.131 C 
ATOM     12  C   UNL     1      14.379  -4.915  31.418  0.00  0.00    +0.305 C 
ATOM     13  C   UNL     1      12.616  -6.767  31.260  0.00  0.00    +0.128 C 
ATOM     17  C   UNL     1      12.771  -8.226  31.682  0.00  0.00    +0.127 C 
ATOM     18  C   UNL     1      13.264 -10.112  30.148  0.00  0.00    +0.213 C 
ATOM     19  C   UNL     1      14.259 -10.781  29.235  0.00  0.00    +0.109 C 
ENDROOT
BRANCH   3   7
ATOM      7  C   UNL     1      16.594  -3.699  31.173  0.00  0.00    +0.078 C 
ATOM      9  C   UNL     1      16.286  -2.562  30.196  0.00  0.00    +0.022 C 
ATOM     10  C   UNL     1      16.509  -3.223  32.626  0.00  0.00    +0.022 C 
ATOM     14  C   UNL     1      17.179  -1.349  30.446  0.00  0.00    +0.002 C 
ATOM     15  C   UNL     1      17.400  -2.009  32.873  0.00  0.00    +0.002 C 
ATOM     16  C   UNL     1      17.095  -0.878  31.895  0.00  0.00    +0.000 C 
ENDBRANCH   3   7
TORSDOF 1
ENDMDL
MODEL 4
REMARK VINA RESULT:      -2.6      4.026      5.110
REMARK  Name = 75537008
REMARK  2 active torsions:
REMARK  status: ('A' for Active; 'I' for Inactive)
REMARK    1  A    between atoms: N_3  and  C_7
REMARK    2  A    between atoms: C_18  and  C_19
REMARK                            x       y       z     vdW  Elec       q    Type
REMARK                         _______ _______ _______ _____ _____    ______ ____
ROOT
ATOM      1  O   UNL     1      14.884  -5.547  31.572  0.00  0.00    -0.252 OA
ATOM      2  O   UNL     1      14.805 -10.507  26.690  0.00  0.00    -0.276 OA
ATOM      3  N   UNL     1      16.475  -4.771  30.014  0.00  0.00    -0.281 N 
ATOM      4  N   UNL     1      15.313  -6.633  29.533  0.00  0.00    -0.278 N 
ATOM      5  N   UNL     1      15.841  -8.763  27.822  0.00  0.00    -0.298 N 
ATOM      6  C   UNL     1      16.101  -6.375  28.341  0.00  0.00    +0.112 C 
ATOM      8  C   UNL     1      17.034  -5.243  28.760  0.00  0.00    +0.133 C 
ATOM     11  C   UNL     1      16.806  -7.650  27.883  0.00  0.00    +0.131 C 
ATOM     12  C   UNL     1      15.479  -5.637  30.506  0.00  0.00    +0.305 C 
ATOM     13  C   UNL     1      14.405  -7.765  29.567  0.00  0.00    +0.128 C 
ATOM     17  C   UNL     1      15.122  -9.022  29.079  0.00  0.00    +0.127 C 
ATOM     18  C   UNL     1      15.601  -9.564  26.707  0.00  0.00    +0.213 C 
ATOM     19  C   UNL     1      16.377  -9.230  25.459  0.00  0.00    +0.109 C 
ENDROOT
BRANCH   3   7
ATOM      7  C   UNL     1      17.008  -3.621  30.703  0.00  0.00    +0.078 C 
ATOM      9  C   UNL     1      16.695  -2.334  29.935  0.00  0.00    +0.022 C 
ATOM     10  C   UNL     1      16.473  -3.559  32.136  0.00  0.00    +0.022 C 
ATOM     14  C   UNL     1      17.203  -1.100  30.675  0.00  0.00    +0.002 C 
ATOM     15  C   UNL     1      16.980  -2.322  32.873  0.00  0.00    +0.002 C 
ATOM     16  C   UNL     1      16.670  -1.042  32.104  0.00  0.00    +0.000 C 
ENDBRANCH   3   7
TORSDOF 1
ENDMDL
MODEL 5
REMARK VINA RESULT:      -2.4      1.866      2.342
REMARK  Name = 75537008
REMARK  2 active torsions:
REMARK  status: ('A' for Active; 'I' for Inactive)
REMARK    1  A    between atoms: N_3  and  C_7
REMARK    2  A    between atoms: C_18  and  C_19
REMARK                            x       y       z     vdW  Elec       q    Type
REMARK                         _______ _______ _______ _____ _____    ______ ____
ROOT
ATOM      1  O   UNL     1      17.404  -3.893  29.207  0.00  0.00    -0.252 OA
ATOM      2  O   UNL     1      15.384 -10.085  31.662  0.00  0.00    -0.276 OA
ATOM      3  N   UNL     1      16.955  -5.114  27.240  0.00  0.00    -0.281 N 
ATOM      4  N   UNL     1      16.516  -6.068  29.226  0.00  0.00    -0.278 N 
ATOM      5  N   UNL     1      16.265  -8.732  29.993  0.00  0.00    -0.298 N 
ATOM      6  C   UNL     1      16.025  -7.021  28.246  0.00  0.00    +0.112 C 
ATOM      8  C   UNL     1      16.520  -6.461  26.915  0.00  0.00    +0.133 C 
ATOM     11  C   UNL     1      16.523  -8.426  28.573  0.00  0.00    +0.131 C 
ATOM     12  C   UNL     1      17.005  -4.897  28.631  0.00  0.00    +0.305 C 
ATOM     13  C   UNL     1      16.367  -6.350  30.642  0.00  0.00    +0.128 C 
ATOM     17  C   UNL     1      16.844  -7.769  30.943  0.00  0.00    +0.127 C 
ATOM     18  C   UNL     1      15.563  -9.839  30.466  0.00  0.00    +0.213 C 
ATOM     19  C   UNL     1      15.000 -10.774  29.427  0.00  0.00    +0.109 C 
ENDROOT
BRANCH   3   7
ATOM      7  C   UNL     1      17.405  -4.192  26.226  0.00  0.00    +0.078 C 
ATOM      9  C   UNL     1      16.978  -4.664  24.834  0.00  0.00    +0.022 C 
ATOM     10  C   UNL     1      16.888  -2.780  26.517  0.00  0.00    +0.022 C 
ATOM     14  C   UNL     1      17.397  -3.673  23.751  0.00  0.00    +0.002 C 
ATOM     15  C   UNL     1      17.306  -1.792  25.432  0.00  0.00    +0.002 C 
ATOM     16  C   UNL     1      16.883  -2.267  24.045  0.00  0.00    +0.000 C 
ENDBRANCH   3   7
TORSDOF 1
ENDMDL
MODEL 6
REMARK VINA RESULT:      -1.7     19.099     20.300
REMARK  Name = 75537008
REMARK  2 active torsions:
REMARK  status: ('A' for Active; 'I' for Inactive)
REMARK    1  A    between atoms: N_3  and  C_7
REMARK    2  A    between atoms: C_18  and  C_19
REMARK                            x       y       z     vdW  Elec       q    Type
REMARK                         _______ _______ _______ _____ _____    ______ ____
ROOT
ATOM      1  O   UNL     1      -3.452  -0.765  24.445  0.00  0.00    -0.252 OA
ATOM      2  O   UNL     1       3.371  -1.112  23.112  0.00  0.00    -0.276 OA
ATOM      3  N   UNL     1      -2.905   1.472  23.933  0.00  0.00    -0.281 N 
ATOM      4  N   UNL     1      -1.314  -0.102  23.731  0.00  0.00    -0.278 N 
ATOM      5  N   UNL     1       1.465   0.052  23.749  0.00  0.00    -0.298 N 
ATOM      6  C   UNL     1      -0.691   1.114  23.237  0.00  0.00    +0.112 C 
ATOM      8  C   UNL     1      -1.703   2.205  23.578  0.00  0.00    +0.133 C 
ATOM     11  C   UNL     1       0.687   1.300  23.867  0.00  0.00    +0.131 C 
ATOM     12  C   UNL     1      -2.658   0.092  24.079  0.00  0.00    +0.305 C 
ATOM     13  C   UNL     1      -0.570  -1.348  23.720  0.00  0.00    +0.128 C 
ATOM     17  C   UNL     1       0.814  -1.133  24.328  0.00  0.00    +0.127 C 
ATOM     18  C   UNL     1       2.730  -0.059  23.175  0.00  0.00    +0.213 C 
ATOM     19  C   UNL     1       3.324   1.202  22.603  0.00  0.00    +0.109 C 
ENDROOT
BRANCH   3   7
ATOM      7  C   UNL     1      -4.149   2.141  24.227  0.00  0.00    +0.078 C 
ATOM      9  C   UNL     1      -5.139   1.180  24.889  0.00  0.00    +0.022 C 
ATOM     10  C   UNL     1      -3.901   3.374  25.100  0.00  0.00    +0.022 C 
ATOM     14  C   UNL     1      -6.443   1.883  25.258  0.00  0.00    +0.002 C 
ATOM     15  C   UNL     1      -5.206   4.074  25.470  0.00  0.00    +0.002 C 
ATOM     16  C   UNL     1      -6.193   3.113  26.126  0.00  0.00    +0.000 C 
ENDBRANCH   3   7
TORSDOF 1
ENDMDL
MODEL 7
REMARK VINA RESULT:      -1.2     19.062     20.437
REMARK  Name = 75537008
REMARK  2 active torsions:
REMARK  status: ('A' for Active; 'I' for Inactive)
REMARK    1  A    between atoms: N_3  and  C_7
REMARK    2  A    between atoms: C_18  and  C_19
REMARK                            x       y       z     vdW  Elec       q    Type
REMARK                         _______ _______ _______ _____ _____    ______ ____
ROOT
ATOM      1  O   UNL     1       0.483   3.440  24.494  0.00  0.00    -0.252 OA
ATOM      2  O   UNL     1      -6.314   4.010  25.885  0.00  0.00    -0.276 OA
ATOM      3  N   UNL     1      -0.364   1.341  23.829  0.00  0.00    -0.281 N 
ATOM      4  N   UNL     1      -1.808   2.918  24.521  0.00  0.00    -0.278 N 
ATOM      5  N   UNL     1      -4.391   2.752  25.545  0.00  0.00    -0.298 N 
ATOM      6  C   UNL     1      -2.649   1.817  24.085  0.00  0.00    +0.112 C 
ATOM      8  C   UNL     1      -1.660   0.685  23.823  0.00  0.00    +0.133 C 
ATOM     11  C   UNL     1      -3.710   1.509  25.138  0.00  0.00    +0.131 C 
ATOM     12  C   UNL     1      -0.446   2.666  24.302  0.00  0.00    +0.305 C 
ATOM     13  C   UNL     1      -2.418   4.141  25.012  0.00  0.00    +0.128 C 
ATOM     17  C   UNL     1      -3.494   3.808  26.042  0.00  0.00    +0.127 C 
ATOM     18  C   UNL     1      -5.767   2.967  25.514  0.00  0.00    +0.213 C 
ATOM     19  C   UNL     1      -6.614   1.837  24.988  0.00  0.00    +0.109 C 
ENDROOT
BRANCH   3   7
ATOM      7  C   UNL     1       0.852   0.633  23.513  0.00  0.00    +0.078 C 
ATOM      9  C   UNL     1       0.705  -0.139  22.200  0.00  0.00    +0.022 C 
ATOM     10  C   UNL     1       2.038   1.600  23.461  0.00  0.00    +0.022 C 
ATOM     14  C   UNL     1       2.000  -0.852  21.819  0.00  0.00    +0.002 C 
ATOM     15  C   UNL     1       3.331   0.885  23.078  0.00  0.00    +0.002 C 
ATOM     16  C   UNL     1       3.181   0.113  21.771  0.00  0.00    +0.000 C 
ENDBRANCH   3   7
TORSDOF 1
ENDMDL
MODEL 8
REMARK VINA RESULT:      -1.0     17.341     18.923
REMARK  Name = 75537008
REMARK  2 active torsions:
REMARK  status: ('A' for Active; 'I' for Inactive)
REMARK    1  A    between atoms: N_3  and  C_7
REMARK    2  A    between atoms: C_18  and  C_19
REMARK                            x       y       z     vdW  Elec       q    Type
REMARK                         _______ _______ _______ _____ _____    ______ ____
ROOT
ATOM      1  O   UNL     1      -0.048  -0.815  21.907  0.00  0.00    -0.252 OA
ATOM      2  O   UNL     1      -4.736   3.361  24.913  0.00  0.00    -0.276 OA
ATOM      3  N   UNL     1       1.270   0.482  23.370  0.00  0.00    -0.281 N 
ATOM      4  N   UNL     1      -0.961   0.749  23.405  0.00  0.00    -0.278 N 
ATOM      5  N   UNL     1      -2.567   2.858  24.250  0.00  0.00    -0.298 N 
ATOM      6  C   UNL     1      -0.475   1.591  24.483  0.00  0.00    +0.112 C 
ATOM      8  C   UNL     1       1.042   1.566  24.309  0.00  0.00    +0.133 C 
ATOM     11  C   UNL     1      -1.105   2.979  24.399  0.00  0.00    +0.131 C 
ATOM     12  C   UNL     1       0.071   0.029  22.785  0.00  0.00    +0.305 C 
ATOM     13  C   UNL     1      -2.387   0.652  23.152  0.00  0.00    +0.128 C 
ATOM     17  C   UNL     1      -3.002   2.049  23.101  0.00  0.00    +0.127 C 
ATOM     18  C   UNL     1      -3.516   3.457  25.076  0.00  0.00    +0.213 C 
ATOM     19  C   UNL     1      -2.987   4.267  26.232  0.00  0.00    +0.109 C 
ENDROOT
BRANCH   3   7
ATOM      7  C   UNL     1       2.599   0.052  23.009  0.00  0.00    +0.078 C 
ATOM      9  C   UNL     1       3.571   1.235  23.007  0.00  0.00    +0.022 C 
ATOM     10  C   UNL     1       3.076  -1.059  23.948  0.00  0.00    +0.022 C 
ATOM     14  C   UNL     1       4.995   0.792  22.681  0.00  0.00    +0.002 C 
ATOM     15  C   UNL     1       4.502  -1.499  23.621  0.00  0.00    +0.002 C 
ATOM     16  C   UNL     1       5.467  -0.318  23.616  0.00  0.00    +0.000 C 
ENDBRANCH   3   7
TORSDOF 1
ENDMDL
