MODEL 1
REMARK VINA RESULT:      -4.4      0.000      0.000
REMARK  Name = 45783736
REMARK  6 active torsions:
REMARK  status: ('A' for Active; 'I' for Inactive)
REMARK    1  A    between atoms: N_2  and  C_12
REMARK    2  A    between atoms: C_8  and  C_13
REMARK    3  A    between atoms: C_12  and  C_14
REMARK    4  A    between atoms: C_14  and  C_15
REMARK    5  A    between atoms: C_15  and  C_16
REMARK    6  A    between atoms: C_17  and  C_20
REMARK                            x       y       z     vdW  Elec       q    Type
REMARK                         _______ _______ _______ _____ _____    ______ ____
ROOT
ATOM      2  N   UNL     1      -3.702   2.886  25.116  0.00  0.00    -0.291 NA
ATOM      8  C   UNL     1      -2.540   3.742  24.802  0.00  0.00    +0.146 C 
ATOM      9  C   UNL     1      -2.522   4.801  25.920  0.00  0.00    +0.030 C 
ATOM     10  C   UNL     1      -4.654   3.730  25.839  0.00  0.00    +0.085 C 
ATOM     11  C   UNL     1      -3.744   4.498  26.776  0.00  0.00    +0.017 C 
ENDROOT
BRANCH   8  13
ATOM      1  O   UNL     1      -0.605   2.723  25.894  0.00  0.00    -0.336 OA
ATOM      3  N   UNL     1      -0.641   2.466  23.668  0.00  0.00    -0.190 NA
ATOM      4  N   UNL     1       0.546   1.995  25.567  0.00  0.00    -0.056 NA
ATOM     13  C   UNL     1      -1.247   2.958  24.719  0.00  0.00    +0.245 A 
ATOM     17  C   UNL     1       0.454   1.884  24.239  0.00  0.00    +0.207 A 
BRANCH  17  20
ATOM      5  N   UNL     1       2.081  -0.542  21.917  0.00  0.00    -0.220 NA
ATOM      6  N   UNL     1      -0.175  -0.379  22.608  0.00  0.00    -0.342 N 
ATOM      7  N   UNL     1       3.729   1.014  22.737  0.00  0.00    -0.243 NA
ATOM     20  C   UNL     1       1.438   1.196  23.451  0.00  0.00    +0.080 A 
ATOM     24  C   UNL     1       1.157   0.104  22.657  0.00  0.00    +0.130 A 
ATOM     25  C   UNL     1       2.753   1.612  23.453  0.00  0.00    +0.127 A 
ATOM     26  C   UNL     1       3.329  -0.041  22.002  0.00  0.00    +0.223 A 
ATOM     27  H   UNL     1      -0.341  -1.174  22.004  0.00  0.00    +0.144 HD
ATOM     28  H   UNL     1      -0.748  -0.302  23.439  0.00  0.00    +0.144 HD
ENDBRANCH  17  20
ENDBRANCH   8  13
BRANCH   2  12
ATOM     12  C   UNL     1      -4.299   2.272  23.936  0.00  0.00    +0.085 C 
BRANCH  12  14
ATOM     14  C   UNL     1      -5.133   1.056  24.336  0.00  0.00    +0.020 C 
BRANCH  14  15
ATOM     15  C   UNL     1      -4.558   0.380  25.584  0.00  0.00    +0.036 C 
BRANCH  15  16
ATOM     16  C   UNL     1      -3.574  -0.705  25.226  0.00  0.00    -0.047 A 
ATOM     18  C   UNL     1      -2.242  -0.595  25.621  0.00  0.00    +0.003 A 
ATOM     19  C   UNL     1      -3.996  -1.817  24.498  0.00  0.00    +0.003 A 
ATOM     21  C   UNL     1      -1.331  -1.599  25.290  0.00  0.00    +0.000 A 
ATOM     22  C   UNL     1      -3.086  -2.820  24.166  0.00  0.00    +0.000 A 
ATOM     23  C   UNL     1      -1.752  -2.711  24.562  0.00  0.00    +0.000 A 
ENDBRANCH  15  16
ENDBRANCH  14  15
ENDBRANCH  12  14
ENDBRANCH   2  12
TORSDOF 6
ENDMDL
MODEL 2
REMARK VINA RESULT:      -4.2      1.493      2.422
REMARK  Name = 45783736
REMARK  6 active torsions:
REMARK  status: ('A' for Active; 'I' for Inactive)
REMARK    1  A    between atoms: N_2  and  C_12
REMARK    2  A    between atoms: C_8  and  C_13
REMARK    3  A    between atoms: C_12  and  C_14
REMARK    4  A    between atoms: C_14  and  C_15
REMARK    5  A    between atoms: C_15  and  C_16
REMARK    6  A    between atoms: C_17  and  C_20
REMARK                            x       y       z     vdW  Elec       q    Type
REMARK                         _______ _______ _______ _____ _____    ______ ____
ROOT
ATOM      2  N   UNL     1      -2.361   2.342  24.553  0.00  0.00    -0.291 NA
ATOM      8  C   UNL     1      -1.116   2.844  23.939  0.00  0.00    +0.146 C 
ATOM      9  C   UNL     1      -0.593   3.904  24.927  0.00  0.00    +0.030 C 
ATOM     10  C   UNL     1      -2.893   3.437  25.364  0.00  0.00    +0.085 C 
ATOM     11  C   UNL     1      -1.640   3.971  26.030  0.00  0.00    +0.017 C 
ENDROOT
BRANCH   8  13
ATOM      1  O   UNL     1      -0.610   0.562  23.227  0.00  0.00    -0.336 OA
ATOM      3  N   UNL     1       1.190   1.752  23.827  0.00  0.00    -0.190 NA
ATOM      4  N   UNL     1       0.491  -0.288  23.063  0.00  0.00    -0.056 NA
ATOM     13  C   UNL     1      -0.110   1.742  23.679  0.00  0.00    +0.245 A 
ATOM     17  C   UNL     1       1.514   0.486  23.437  0.00  0.00    +0.207 A 
BRANCH  17  20
ATOM      5  N   UNL     1       5.221   0.362  23.023  0.00  0.00    -0.220 NA
ATOM      6  N   UNL     1       3.701   2.123  22.593  0.00  0.00    -0.342 N 
ATOM      7  N   UNL     1       4.436  -1.756  23.862  0.00  0.00    -0.243 NA
ATOM     20  C   UNL     1       2.874   0.024  23.431  0.00  0.00    +0.080 A 
ATOM     24  C   UNL     1       3.943   0.796  23.029  0.00  0.00    +0.130 A 
ATOM     25  C   UNL     1       3.182  -1.256  23.842  0.00  0.00    +0.127 A 
ATOM     26  C   UNL     1       5.393  -0.905  23.446  0.00  0.00    +0.223 A 
ATOM     27  H   UNL     1       4.514   2.660  22.317  0.00  0.00    +0.144 HD
ATOM     28  H   UNL     1       2.832   2.323  22.114  0.00  0.00    +0.144 HD
ENDBRANCH  17  20
ENDBRANCH   8  13
BRANCH   2  12
ATOM     12  C   UNL     1      -3.331   1.863  23.575  0.00  0.00    +0.085 C 
BRANCH  12  14
ATOM     14  C   UNL     1      -4.712   1.740  24.215  0.00  0.00    +0.020 C 
BRANCH  14  15
ATOM     15  C   UNL     1      -4.689   0.760  25.392  0.00  0.00    +0.036 C 
BRANCH  15  16
ATOM     16  C   UNL     1      -3.955  -0.510  25.045  0.00  0.00    -0.047 A 
ATOM     18  C   UNL     1      -4.508  -1.409  24.135  0.00  0.00    +0.003 A 
ATOM     19  C   UNL     1      -2.722  -0.785  25.636  0.00  0.00    +0.003 A 
ATOM     21  C   UNL     1      -3.828  -2.584  23.814  0.00  0.00    +0.000 A 
ATOM     22  C   UNL     1      -2.042  -1.960  25.316  0.00  0.00    +0.000 A 
ATOM     23  C   UNL     1      -2.595  -2.860  24.405  0.00  0.00    +0.000 A 
ENDBRANCH  15  16
ENDBRANCH  14  15
ENDBRANCH  12  14
ENDBRANCH   2  12
TORSDOF 6
ENDMDL
MODEL 3
REMARK VINA RESULT:      -4.0     14.686     16.768
REMARK  Name = 45783736
REMARK  6 active torsions:
REMARK  status: ('A' for Active; 'I' for Inactive)
REMARK    1  A    between atoms: N_2  and  C_12
REMARK    2  A    between atoms: C_8  and  C_13
REMARK    3  A    between atoms: C_12  and  C_14
REMARK    4  A    between atoms: C_14  and  C_15
REMARK    5  A    between atoms: C_15  and  C_16
REMARK    6  A    between atoms: C_17  and  C_20
REMARK                            x       y       z     vdW  Elec       q    Type
REMARK                         _______ _______ _______ _____ _____    ______ ____
ROOT
ATOM      2  N   UNL     1      -6.863  -9.592  10.799  0.00  0.00    -0.291 NA
ATOM      8  C   UNL     1      -5.586  -9.932  10.141  0.00  0.00    +0.146 C 
ATOM      9  C   UNL     1      -5.339  -8.781   9.148  0.00  0.00    +0.030 C 
ATOM     10  C   UNL     1      -7.625  -8.795   9.836  0.00  0.00    +0.085 C 
ATOM     11  C   UNL     1      -6.558  -7.877   9.275  0.00  0.00    +0.017 C 
ENDROOT
BRANCH   8  13
ATOM      1  O   UNL     1      -3.201 -10.195  10.604  0.00  0.00    -0.336 OA
ATOM      3  N   UNL     1      -4.492 -10.183  12.435  0.00  0.00    -0.190 NA
ATOM      4  N   UNL     1      -2.333 -10.349  11.693  0.00  0.00    -0.056 NA
ATOM     13  C   UNL     1      -4.451 -10.105  11.129  0.00  0.00    +0.245 A 
ATOM     17  C   UNL     1      -3.169 -10.333  12.736  0.00  0.00    +0.207 A 
BRANCH  17  20
ATOM      5  N   UNL     1      -3.129 -10.781  16.440  0.00  0.00    -0.220 NA
ATOM      6  N   UNL     1      -4.952 -10.742  14.933  0.00  0.00    -0.342 N 
ATOM      7  N   UNL     1      -0.873 -10.502  15.640  0.00  0.00    -0.243 NA
ATOM     20  C   UNL     1      -2.715 -10.461  14.091  0.00  0.00    +0.080 A 
ATOM     24  C   UNL     1      -3.556 -10.660  15.166  0.00  0.00    +0.130 A 
ATOM     25  C   UNL     1      -1.370 -10.390  14.390  0.00  0.00    +0.127 A 
ATOM     26  C   UNL     1      -1.795 -10.694  16.603  0.00  0.00    +0.223 A 
ATOM     27  H   UNL     1      -5.533 -10.901  15.747  0.00  0.00    +0.144 HD
ATOM     28  H   UNL     1      -5.350 -10.194  14.181  0.00  0.00    +0.144 HD
ENDBRANCH  17  20
ENDBRANCH   8  13
BRANCH   2  12
ATOM     12  C   UNL     1      -7.605 -10.761  11.252  0.00  0.00    +0.085 C 
BRANCH  12  14
ATOM     14  C   UNL     1      -8.650 -10.357  12.291  0.00  0.00    +0.020 C 
BRANCH  14  15
ATOM     15  C   UNL     1      -8.065  -9.372  13.306  0.00  0.00    +0.036 C 
BRANCH  15  16
ATOM     16  C   UNL     1      -8.693  -9.535  14.667  0.00  0.00    -0.047 A 
ATOM     18  C   UNL     1      -8.314 -10.597  15.487  0.00  0.00    +0.003 A 
ATOM     19  C   UNL     1      -9.653  -8.623  15.106  0.00  0.00    +0.003 A 
ATOM     21  C   UNL     1      -8.896 -10.748  16.746  0.00  0.00    +0.000 A 
ATOM     22  C   UNL     1     -10.234  -8.774  16.364  0.00  0.00    +0.000 A 
ATOM     23  C   UNL     1      -9.856  -9.837  17.185  0.00  0.00    +0.000 A 
ENDBRANCH  15  16
ENDBRANCH  14  15
ENDBRANCH  12  14
ENDBRANCH   2  12
TORSDOF 6
ENDMDL
MODEL 4
REMARK VINA RESULT:      -3.9      1.304      4.159
REMARK  Name = 45783736
REMARK  6 active torsions:
REMARK  status: ('A' for Active; 'I' for Inactive)
REMARK    1  A    between atoms: N_2  and  C_12
REMARK    2  A    between atoms: C_8  and  C_13
REMARK    3  A    between atoms: C_12  and  C_14
REMARK    4  A    between atoms: C_14  and  C_15
REMARK    5  A    between atoms: C_15  and  C_16
REMARK    6  A    between atoms: C_17  and  C_20
REMARK                            x       y       z     vdW  Elec       q    Type
REMARK                         _______ _______ _______ _____ _____    ______ ____
ROOT
ATOM      2  N   UNL     1      -3.691  -0.697  24.552  0.00  0.00    -0.291 NA
ATOM      8  C   UNL     1      -2.425  -1.247  25.076  0.00  0.00    +0.146 C 
ATOM      9  C   UNL     1      -2.389  -2.700  24.566  0.00  0.00    +0.030 C 
ATOM     10  C   UNL     1      -4.606  -1.830  24.411  0.00  0.00    +0.085 C 
ATOM     11  C   UNL     1      -3.702  -2.893  23.820  0.00  0.00    +0.017 C 
ENDROOT
BRANCH   8  13
ATOM      1  O   UNL     1      -1.170   0.850  25.051  0.00  0.00    -0.336 OA
ATOM      3  N   UNL     1      -0.195  -0.813  23.909  0.00  0.00    -0.190 NA
ATOM      4  N   UNL     1       0.018   1.380  24.531  0.00  0.00    -0.056 NA
ATOM     13  C   UNL     1      -1.218  -0.444  24.639  0.00  0.00    +0.245 A 
ATOM     17  C   UNL     1       0.535   0.339  23.870  0.00  0.00    +0.207 A 
BRANCH  17  20
ATOM      5  N   UNL     1       3.139   0.018  21.217  0.00  0.00    -0.220 NA
ATOM      6  N   UNL     1       0.872  -0.655  21.211  0.00  0.00    -0.342 N 
ATOM      7  N   UNL     1       4.092   1.095  23.151  0.00  0.00    -0.243 NA
ATOM     20  C   UNL     1       1.782   0.417  23.164  0.00  0.00    +0.080 A 
ATOM     24  C   UNL     1       1.967  -0.055  21.881  0.00  0.00    +0.130 A 
ATOM     25  C   UNL     1       2.890   0.988  23.756  0.00  0.00    +0.127 A 
ATOM     26  C   UNL     1       4.145   0.597  21.900  0.00  0.00    +0.223 A 
ATOM     27  H   UNL     1       1.046  -0.978  20.267  0.00  0.00    +0.144 HD
ATOM     28  H   UNL     1       0.195  -1.173  21.758  0.00  0.00    +0.144 HD
ENDBRANCH  17  20
ENDBRANCH   8  13
BRANCH   2  12
ATOM     12  C   UNL     1      -4.249   0.358  25.389  0.00  0.00    +0.085 C 
BRANCH  12  14
ATOM     14  C   UNL     1      -5.378   1.077  24.652  0.00  0.00    +0.020 C 
BRANCH  14  15
ATOM     15  C   UNL     1      -5.516   2.524  25.135  0.00  0.00    +0.036 C 
BRANCH  15  16
ATOM     16  C   UNL     1      -4.191   3.243  25.126  0.00  0.00    -0.047 A 
ATOM     18  C   UNL     1      -3.700   3.816  26.298  0.00  0.00    +0.003 A 
ATOM     19  C   UNL     1      -3.457   3.337  23.943  0.00  0.00    +0.003 A 
ATOM     21  C   UNL     1      -2.474   4.481  26.289  0.00  0.00    +0.000 A 
ATOM     22  C   UNL     1      -2.231   4.003  23.934  0.00  0.00    +0.000 A 
ATOM     23  C   UNL     1      -1.740   4.576  25.108  0.00  0.00    +0.000 A 
ENDBRANCH  15  16
ENDBRANCH  14  15
ENDBRANCH  12  14
ENDBRANCH   2  12
TORSDOF 6
ENDMDL
MODEL 5
REMARK VINA RESULT:      -3.6     15.265     17.982
REMARK  Name = 45783736
REMARK  6 active torsions:
REMARK  status: ('A' for Active; 'I' for Inactive)
REMARK    1  A    between atoms: N_2  and  C_12
REMARK    2  A    between atoms: C_8  and  C_13
REMARK    3  A    between atoms: C_12  and  C_14
REMARK    4  A    between atoms: C_14  and  C_15
REMARK    5  A    between atoms: C_15  and  C_16
REMARK    6  A    between atoms: C_17  and  C_20
REMARK                            x       y       z     vdW  Elec       q    Type
REMARK                         _______ _______ _______ _____ _____    ______ ____
ROOT
ATOM      2  N   UNL     1      -7.375  -9.867  15.598  0.00  0.00    -0.291 NA
ATOM      8  C   UNL     1      -8.723 -10.437  15.405  0.00  0.00    +0.146 C 
ATOM      9  C   UNL     1      -9.599  -9.734  16.459  0.00  0.00    +0.030 C 
ATOM     10  C   UNL     1      -7.289  -9.474  17.004  0.00  0.00    +0.085 C 
ATOM     11  C   UNL     1      -8.645  -8.836  17.235  0.00  0.00    +0.017 C 
ENDROOT
BRANCH   8  13
ATOM      1  O   UNL     1     -10.459 -10.779  13.719  0.00  0.00    -0.336 OA
ATOM      3  N   UNL     1      -8.680  -9.633  12.982  0.00  0.00    -0.190 NA
ATOM      4  N   UNL     1     -10.718 -10.478  12.375  0.00  0.00    -0.056 NA
ATOM     13  C   UNL     1      -9.240 -10.245  13.994  0.00  0.00    +0.245 A 
ATOM     17  C   UNL     1      -9.624  -9.803  12.011  0.00  0.00    +0.207 A 
BRANCH  17  20
ATOM      5  N   UNL     1      -8.250  -9.172   8.600  0.00  0.00    -0.220 NA
ATOM      6  N   UNL     1      -7.481 -10.621  10.304  0.00  0.00    -0.342 N 
ATOM      7  N   UNL     1     -10.211  -7.813   8.939  0.00  0.00    -0.243 NA
ATOM     20  C   UNL     1      -9.444  -9.282  10.686  0.00  0.00    +0.080 A 
ATOM     24  C   UNL     1      -8.419  -9.662   9.845  0.00  0.00    +0.130 A 
ATOM     25  C   UNL     1     -10.319  -8.345  10.175  0.00  0.00    +0.127 A 
ATOM     26  C   UNL     1      -9.169  -8.265   8.216  0.00  0.00    +0.223 A 
ATOM     27  H   UNL     1      -6.751 -10.882   9.652  0.00  0.00    +0.144 HD
ATOM     28  H   UNL     1      -7.247 -10.635  11.288  0.00  0.00    +0.144 HD
ENDBRANCH  17  20
ENDBRANCH   8  13
BRANCH   2  12
ATOM     12  C   UNL     1      -6.305 -10.781  15.218  0.00  0.00    +0.085 C 
BRANCH  12  14
ATOM     14  C   UNL     1      -5.668 -10.335  13.902  0.00  0.00    +0.020 C 
BRANCH  14  15
ATOM     15  C   UNL     1      -4.153 -10.552  13.923  0.00  0.00    +0.036 C 
BRANCH  15  16
ATOM     16  C   UNL     1      -3.509 -10.111  12.633  0.00  0.00    -0.047 A 
ATOM     18  C   UNL     1      -2.120 -10.078  12.522  0.00  0.00    +0.003 A 
ATOM     19  C   UNL     1      -4.304  -9.737  11.550  0.00  0.00    +0.003 A 
ATOM     21  C   UNL     1      -1.525  -9.670  11.328  0.00  0.00    +0.000 A 
ATOM     22  C   UNL     1      -3.709  -9.329  10.356  0.00  0.00    +0.000 A 
ATOM     23  C   UNL     1      -2.319  -9.295  10.245  0.00  0.00    +0.000 A 
ENDBRANCH  15  16
ENDBRANCH  14  15
ENDBRANCH  12  14
ENDBRANCH   2  12
TORSDOF 6
ENDMDL
MODEL 6
REMARK VINA RESULT:      -3.1     14.184     16.948
REMARK  Name = 45783736
REMARK  6 active torsions:
REMARK  status: ('A' for Active; 'I' for Inactive)
REMARK    1  A    between atoms: N_2  and  C_12
REMARK    2  A    between atoms: C_8  and  C_13
REMARK    3  A    between atoms: C_12  and  C_14
REMARK    4  A    between atoms: C_14  and  C_15
REMARK    5  A    between atoms: C_15  and  C_16
REMARK    6  A    between atoms: C_17  and  C_20
REMARK                            x       y       z     vdW  Elec       q    Type
REMARK                         _______ _______ _______ _____ _____    ______ ____
ROOT
ATOM      2  N   UNL     1      -5.026 -10.089  16.382  0.00  0.00    -0.291 NA
ATOM      8  C   UNL     1      -6.081 -10.780  15.614  0.00  0.00    +0.146 C 
ATOM      9  C   UNL     1      -7.394 -10.390  16.317  0.00  0.00    +0.030 C 
ATOM     10  C   UNL     1      -5.535  -9.943  17.745  0.00  0.00    +0.085 C 
ATOM     11  C   UNL     1      -6.973  -9.531  17.501  0.00  0.00    +0.017 C 
ENDROOT
BRANCH   8  13
ATOM      1  O   UNL     1      -4.936 -10.698  13.457  0.00  0.00    -0.336 OA
ATOM      3  N   UNL     1      -7.004  -9.838  13.427  0.00  0.00    -0.190 NA
ATOM      4  N   UNL     1      -5.160 -10.268  12.142  0.00  0.00    -0.056 NA
ATOM     13  C   UNL     1      -6.071 -10.408  14.146  0.00  0.00    +0.245 A 
ATOM     17  C   UNL     1      -6.400  -9.773  12.206  0.00  0.00    +0.207 A 
BRANCH  17  20
ATOM      5  N   UNL     1      -7.035  -8.012   8.978  0.00  0.00    -0.220 NA
ATOM      6  N   UNL     1      -5.003  -8.400  10.123  0.00  0.00    -0.342 N 
ATOM      7  N   UNL     1      -9.123  -8.803   9.886  0.00  0.00    -0.243 NA
ATOM     20  C   UNL     1      -7.064  -9.208  11.066  0.00  0.00    +0.080 A 
ATOM     24  C   UNL     1      -6.411  -8.542  10.050  0.00  0.00    +0.130 A 
ATOM     25  C   UNL     1      -8.433  -9.309  10.930  0.00  0.00    +0.127 A 
ATOM     26  C   UNL     1      -8.372  -8.176   8.960  0.00  0.00    +0.223 A 
ATOM     27  H   UNL     1      -4.560  -7.916   9.351  0.00  0.00    +0.144 HD
ATOM     28  H   UNL     1      -4.573  -8.304  11.034  0.00  0.00    +0.144 HD
ENDBRANCH  17  20
ENDBRANCH   8  13
BRANCH   2  12
ATOM     12  C   UNL     1      -3.743 -10.780  16.346  0.00  0.00    +0.085 C 
BRANCH  12  14
ATOM     14  C   UNL     1      -2.659  -9.859  15.789  0.00  0.00    +0.020 C 
BRANCH  14  15
ATOM     15  C   UNL     1      -1.636 -10.647  14.967  0.00  0.00    +0.036 C 
BRANCH  15  16
ATOM     16  C   UNL     1      -1.386 -10.005  13.625  0.00  0.00    -0.047 A 
ATOM     18  C   UNL     1      -0.620  -8.844  13.540  0.00  0.00    +0.003 A 
ATOM     19  C   UNL     1      -1.923 -10.573  12.470  0.00  0.00    +0.003 A 
ATOM     21  C   UNL     1      -0.388  -8.251  12.298  0.00  0.00    +0.000 A 
ATOM     22  C   UNL     1      -1.692  -9.980  11.229  0.00  0.00    +0.000 A 
ATOM     23  C   UNL     1      -0.925  -8.818  11.144  0.00  0.00    +0.000 A 
ENDBRANCH  15  16
ENDBRANCH  14  15
ENDBRANCH  12  14
ENDBRANCH   2  12
TORSDOF 6
ENDMDL
MODEL 7
REMARK VINA RESULT:      -2.4      1.332      5.776
REMARK  Name = 45783736
REMARK  6 active torsions:
REMARK  status: ('A' for Active; 'I' for Inactive)
REMARK    1  A    between atoms: N_2  and  C_12
REMARK    2  A    between atoms: C_8  and  C_13
REMARK    3  A    between atoms: C_12  and  C_14
REMARK    4  A    between atoms: C_14  and  C_15
REMARK    5  A    between atoms: C_15  and  C_16
REMARK    6  A    between atoms: C_17  and  C_20
REMARK                            x       y       z     vdW  Elec       q    Type
REMARK                         _______ _______ _______ _____ _____    ______ ____
ROOT
ATOM      2  N   UNL     1       0.790  -0.161  22.891  0.00  0.00    -0.291 NA
ATOM      8  C   UNL     1       1.048   0.775  24.004  0.00  0.00    +0.146 C 
ATOM      9  C   UNL     1       2.357   1.489  23.620  0.00  0.00    +0.030 C 
ATOM     10  C   UNL     1       2.097  -0.501  22.326  0.00  0.00    +0.085 C 
ATOM     11  C   UNL     1       2.791   0.846  22.310  0.00  0.00    +0.017 C 
ENDROOT
BRANCH   8  13
ATOM      1  O   UNL     1       0.192   3.061  24.120  0.00  0.00    -0.336 OA
ATOM      3  N   UNL     1      -1.350   1.486  24.523  0.00  0.00    -0.190 NA
ATOM      4  N   UNL     1      -1.006   3.744  24.369  0.00  0.00    -0.056 NA
ATOM     13  C   UNL     1      -0.099   1.738  24.230  0.00  0.00    +0.245 A 
ATOM     17  C   UNL     1      -1.866   2.747  24.598  0.00  0.00    +0.207 A 
BRANCH  17  20
ATOM      5  N   UNL     1      -4.986   4.033  26.191  0.00  0.00    -0.220 NA
ATOM      6  N   UNL     1      -2.721   4.498  26.690  0.00  0.00    -0.342 N 
ATOM      7  N   UNL     1      -5.561   2.515  24.409  0.00  0.00    -0.243 NA
ATOM     20  C   UNL     1      -3.250   2.977  24.902  0.00  0.00    +0.080 A 
ATOM     24  C   UNL     1      -3.685   3.817  25.905  0.00  0.00    +0.130 A 
ATOM     25  C   UNL     1      -4.241   2.346  24.179  0.00  0.00    +0.127 A 
ATOM     26  C   UNL     1      -5.858   3.360  25.415  0.00  0.00    +0.223 A 
ATOM     27  H   UNL     1      -3.082   5.114  27.408  0.00  0.00    +0.144 HD
ATOM     28  H   UNL     1      -1.839   4.039  26.877  0.00  0.00    +0.144 HD
ENDBRANCH  17  20
ENDBRANCH   8  13
BRANCH   2  12
ATOM     12  C   UNL     1       0.043  -1.345  23.296  0.00  0.00    +0.085 C 
BRANCH  12  14
ATOM     14  C   UNL     1       0.209  -1.588  24.795  0.00  0.00    +0.020 C 
BRANCH  14  15
ATOM     15  C   UNL     1      -0.858  -2.554  25.317  0.00  0.00    +0.036 C 
BRANCH  15  16
ATOM     16  C   UNL     1      -2.251  -2.067  25.005  0.00  0.00    -0.047 A 
ATOM     18  C   UNL     1      -2.995  -2.681  23.999  0.00  0.00    +0.003 A 
ATOM     19  C   UNL     1      -2.794  -1.002  25.723  0.00  0.00    +0.003 A 
ATOM     21  C   UNL     1      -4.283  -2.230  23.710  0.00  0.00    +0.000 A 
ATOM     22  C   UNL     1      -4.082  -0.551  25.434  0.00  0.00    +0.000 A 
ATOM     23  C   UNL     1      -4.827  -1.166  24.427  0.00  0.00    +0.000 A 
ENDBRANCH  15  16
ENDBRANCH  14  15
ENDBRANCH  12  14
ENDBRANCH   2  12
TORSDOF 6
ENDMDL
MODEL 8
REMARK VINA RESULT:      -2.1     14.065     16.365
REMARK  Name = 45783736
REMARK  6 active torsions:
REMARK  status: ('A' for Active; 'I' for Inactive)
REMARK    1  A    between atoms: N_2  and  C_12
REMARK    2  A    between atoms: C_8  and  C_13
REMARK    3  A    between atoms: C_12  and  C_14
REMARK    4  A    between atoms: C_14  and  C_15
REMARK    5  A    between atoms: C_15  and  C_16
REMARK    6  A    between atoms: C_17  and  C_20
REMARK                            x       y       z     vdW  Elec       q    Type
REMARK                         _______ _______ _______ _____ _____    ______ ____
ROOT
ATOM      2  N   UNL     1      -5.405  -9.923  10.927  0.00  0.00    -0.291 NA
ATOM      8  C   UNL     1      -4.185 -10.568  10.401  0.00  0.00    +0.146 C 
ATOM      9  C   UNL     1      -4.181 -10.229   8.899  0.00  0.00    +0.030 C 
ATOM     10  C   UNL     1      -6.355  -9.866   9.816  0.00  0.00    +0.085 C 
ATOM     11  C   UNL     1      -5.465  -9.446   8.663  0.00  0.00    +0.017 C 
ENDROOT
BRANCH   8  13
ATOM      1  O   UNL     1      -2.599 -10.763  12.250  0.00  0.00    -0.336 OA
ATOM      3  N   UNL     1      -2.101  -9.144  10.785  0.00  0.00    -0.190 NA
ATOM      4  N   UNL     1      -1.422 -10.164  12.717  0.00  0.00    -0.056 NA
ATOM     13  C   UNL     1      -2.930 -10.103  11.109  0.00  0.00    +0.245 A 
ATOM     17  C   UNL     1      -1.193  -9.219  11.800  0.00  0.00    +0.207 A 
BRANCH  17  20
ATOM      5  N   UNL     1       2.178  -7.716  11.253  0.00  0.00    -0.220 NA
ATOM      6  N   UNL     1       1.238  -9.700  10.373  0.00  0.00    -0.342 N 
ATOM      7  N   UNL     1       0.910  -6.320  12.753  0.00  0.00    -0.243 NA
ATOM     20  C   UNL     1      -0.064  -8.335  11.868  0.00  0.00    +0.080 A 
ATOM     24  C   UNL     1       1.117  -8.547  11.189  0.00  0.00    +0.130 A 
ATOM     25  C   UNL     1      -0.112  -7.195  12.643  0.00  0.00    +0.127 A 
ATOM     26  C   UNL     1       2.009  -6.637  12.042  0.00  0.00    +0.223 A 
ATOM     27  H   UNL     1       2.116  -9.812   9.882  0.00  0.00    +0.144 HD
ATOM     28  H   UNL     1       0.756 -10.544  10.656  0.00  0.00    +0.144 HD
ENDBRANCH  17  20
ENDBRANCH   8  13
BRANCH   2  12
ATOM     12  C   UNL     1      -5.961 -10.605  12.089  0.00  0.00    +0.085 C 
BRANCH  12  14
ATOM     14  C   UNL     1      -5.944  -9.680  13.305  0.00  0.00    +0.020 C 
BRANCH  14  15
ATOM     15  C   UNL     1      -6.786 -10.255  14.447  0.00  0.00    +0.036 C 
BRANCH  15  16
ATOM     16  C   UNL     1      -5.972 -10.440  15.702  0.00  0.00    -0.047 A 
ATOM     18  C   UNL     1      -6.607 -10.507  16.941  0.00  0.00    +0.003 A 
ATOM     19  C   UNL     1      -4.583 -10.544  15.623  0.00  0.00    +0.003 A 
ATOM     21  C   UNL     1      -5.853 -10.678  18.103  0.00  0.00    +0.000 A 
ATOM     22  C   UNL     1      -3.830 -10.714  16.784  0.00  0.00    +0.000 A 
ATOM     23  C   UNL     1      -4.464 -10.781  18.024  0.00  0.00    +0.000 A 
ENDBRANCH  15  16
ENDBRANCH  14  15
ENDBRANCH  12  14
ENDBRANCH   2  12
TORSDOF 6
ENDMDL
MODEL 9
REMARK VINA RESULT:      -1.2     13.913     16.370
REMARK  Name = 45783736
REMARK  6 active torsions:
REMARK  status: ('A' for Active; 'I' for Inactive)
REMARK    1  A    between atoms: N_2  and  C_12
REMARK    2  A    between atoms: C_8  and  C_13
REMARK    3  A    between atoms: C_12  and  C_14
REMARK    4  A    between atoms: C_14  and  C_15
REMARK    5  A    between atoms: C_15  and  C_16
REMARK    6  A    between atoms: C_17  and  C_20
REMARK                            x       y       z     vdW  Elec       q    Type
REMARK                         _______ _______ _______ _____ _____    ______ ____
ROOT
ATOM      2  N   UNL     1      -5.436  -9.560  11.250  0.00  0.00    -0.291 NA
ATOM      8  C   UNL     1      -4.289 -10.196  10.571  0.00  0.00    +0.146 C 
ATOM      9  C   UNL     1      -4.394  -9.728   9.107  0.00  0.00    +0.030 C 
ATOM     10  C   UNL     1      -6.470  -9.377  10.231  0.00  0.00    +0.085 C 
ATOM     11  C   UNL     1      -5.661  -8.886   9.048  0.00  0.00    +0.017 C 
ENDROOT
BRANCH   8  13
ATOM      1  O   UNL     1      -2.537 -10.640  12.215  0.00  0.00    -0.336 OA
ATOM      3  N   UNL     1      -2.151  -8.846  10.929  0.00  0.00    -0.190 NA
ATOM      4  N   UNL     1      -1.309 -10.113  12.639  0.00  0.00    -0.056 NA
ATOM     13  C   UNL     1      -2.963  -9.834  11.207  0.00  0.00    +0.245 A 
ATOM     17  C   UNL     1      -1.151  -9.058  11.833  0.00  0.00    +0.207 A 
BRANCH  17  20
ATOM      5  N   UNL     1       2.254  -7.629  11.301  0.00  0.00    -0.220 NA
ATOM      6  N   UNL     1       1.279  -9.599  10.427  0.00  0.00    -0.342 N 
ATOM      7  N   UNL     1       1.005  -6.197  12.784  0.00  0.00    -0.243 NA
ATOM     20  C   UNL     1      -0.005  -8.198  11.904  0.00  0.00    +0.080 A 
ATOM     24  C   UNL     1       1.177  -8.438  11.234  0.00  0.00    +0.130 A 
ATOM     25  C   UNL     1      -0.034  -7.052  12.672  0.00  0.00    +0.127 A 
ATOM     26  C   UNL     1       2.102  -6.542  12.082  0.00  0.00    +0.223 A 
ATOM     27  H   UNL     1       2.158  -9.732   9.943  0.00  0.00    +0.144 HD
ATOM     28  H   UNL     1       0.778 -10.431  10.712  0.00  0.00    +0.144 HD
ENDBRANCH  17  20
ENDBRANCH   8  13
BRANCH   2  12
ATOM     12  C   UNL     1      -5.921 -10.323  12.393  0.00  0.00    +0.085 C 
BRANCH  12  14
ATOM     14  C   UNL     1      -7.237  -9.736  12.902  0.00  0.00    +0.020 C 
BRANCH  14  15
ATOM     15  C   UNL     1      -7.730 -10.484  14.143  0.00  0.00    +0.036 C 
BRANCH  15  16
ATOM     16  C   UNL     1      -8.471  -9.572  15.087  0.00  0.00    -0.047 A 
ATOM     18  C   UNL     1      -9.604  -8.888  14.650  0.00  0.00    +0.003 A 
ATOM     19  C   UNL     1      -8.022  -9.411  16.398  0.00  0.00    +0.003 A 
ATOM     21  C   UNL     1     -10.289  -8.043  15.524  0.00  0.00    +0.000 A 
ATOM     22  C   UNL     1      -8.706  -8.567  17.272  0.00  0.00    +0.000 A 
ATOM     23  C   UNL     1      -9.840  -7.882  16.834  0.00  0.00    +0.000 A 
ENDBRANCH  15  16
ENDBRANCH  14  15
ENDBRANCH  12  14
ENDBRANCH   2  12
TORSDOF 6
ENDMDL
MODEL 10
REMARK VINA RESULT:      -0.7      1.826      4.606
REMARK  Name = 45783736
REMARK  6 active torsions:
REMARK  status: ('A' for Active; 'I' for Inactive)
REMARK    1  A    between atoms: N_2  and  C_12
REMARK    2  A    between atoms: C_8  and  C_13
REMARK    3  A    between atoms: C_12  and  C_14
REMARK    4  A    between atoms: C_14  and  C_15
REMARK    5  A    between atoms: C_15  and  C_16
REMARK    6  A    between atoms: C_17  and  C_20
REMARK                            x       y       z     vdW  Elec       q    Type
REMARK                         _______ _______ _______ _____ _____    ______ ____
ROOT
ATOM      2  N   UNL     1      -3.400  -0.810  23.759  0.00  0.00    -0.291 NA
ATOM      8  C   UNL     1      -2.654  -1.321  24.926  0.00  0.00    +0.146 C 
ATOM      9  C   UNL     1      -3.178  -2.755  25.128  0.00  0.00    +0.030 C 
ATOM     10  C   UNL     1      -4.679  -1.520  23.743  0.00  0.00    +0.085 C 
ATOM     11  C   UNL     1      -4.256  -2.938  24.069  0.00  0.00    +0.017 C 
ENDROOT
BRANCH   8  13
ATOM      1  O   UNL     1      -0.430  -2.253  25.323  0.00  0.00    -0.336 OA
ATOM      3  N   UNL     1      -0.435  -0.407  24.054  0.00  0.00    -0.190 NA
ATOM      4  N   UNL     1       0.910  -1.999  25.001  0.00  0.00    -0.056 NA
ATOM     13  C   UNL     1      -1.154  -1.270  24.725  0.00  0.00    +0.245 A 
ATOM     17  C   UNL     1       0.824  -0.895  24.252  0.00  0.00    +0.207 A 
BRANCH  17  20
ATOM      5  N   UNL     1       3.164   1.705  22.952  0.00  0.00    -0.220 NA
ATOM      6  N   UNL     1       0.991   1.932  23.858  0.00  0.00    -0.342 N 
ATOM      7  N   UNL     1       4.190  -0.468  22.758  0.00  0.00    -0.243 NA
ATOM     20  C   UNL     1       1.977  -0.256  23.684  0.00  0.00    +0.080 A 
ATOM     24  C   UNL     1       2.080   1.105  23.485  0.00  0.00    +0.130 A 
ATOM     25  C   UNL     1       3.073  -1.001  23.298  0.00  0.00    +0.127 A 
ATOM     26  C   UNL     1       4.168   0.871  22.616  0.00  0.00    +0.223 A 
ATOM     27  H   UNL     1       1.112   2.926  23.707  0.00  0.00    +0.144 HD
ATOM     28  H   UNL     1       0.053   1.563  23.774  0.00  0.00    +0.144 HD
ENDBRANCH  17  20
ENDBRANCH   8  13
BRANCH   2  12
ATOM     12  C   UNL     1      -3.574   0.636  23.776  0.00  0.00    +0.085 C 
BRANCH  12  14
ATOM     14  C   UNL     1      -3.010   1.254  22.498  0.00  0.00    +0.020 C 
BRANCH  14  15
ATOM     15  C   UNL     1      -2.421   2.641  22.771  0.00  0.00    +0.036 C 
BRANCH  15  16
ATOM     16  C   UNL     1      -2.887   3.195  24.093  0.00  0.00    -0.047 A 
ATOM     18  C   UNL     1      -4.250   3.297  24.365  0.00  0.00    +0.003 A 
ATOM     19  C   UNL     1      -1.953   3.605  25.045  0.00  0.00    +0.003 A 
ATOM     21  C   UNL     1      -4.680   3.810  25.589  0.00  0.00    +0.000 A 
ATOM     22  C   UNL     1      -2.383   4.118  26.268  0.00  0.00    +0.000 A 
ATOM     23  C   UNL     1      -3.747   4.221  26.540  0.00  0.00    +0.000 A 
ENDBRANCH  15  16
ENDBRANCH  14  15
ENDBRANCH  12  14
ENDBRANCH   2  12
TORSDOF 6
ENDMDL
