MODEL 1
REMARK VINA RESULT:      -5.2      0.000      0.000
REMARK  Name = 11866344
REMARK  12 active torsions:
REMARK  status: ('A' for Active; 'I' for Inactive)
REMARK    1  A    between atoms: O_2  and  C_20
REMARK    2  A    between atoms: O_3  and  C_21
REMARK    3  A    between atoms: O_5  and  C_22
REMARK    4  A    between atoms: N_8  and  C_19
REMARK    5  A    between atoms: N_9  and  C_27
REMARK    6  A    between atoms: C_11  and  C_16
REMARK    7  A    between atoms: C_11  and  C_17
REMARK    8  A    between atoms: C_16  and  C_18
REMARK    9  A    between atoms: C_17  and  C_20
REMARK   10  A    between atoms: C_25  and  C_26
REMARK   11  A    between atoms: C_27  and  C_28
REMARK   12  A    between atoms: C_28  and  C_29
REMARK                            x       y       z     vdW  Elec       q    Type
REMARK                         _______ _______ _______ _____ _____    ______ ____
ROOT
ATOM     19  C   UNL     1      -0.961   0.594  25.494  0.00  0.00    +0.127 C 
ATOM     21  C   UNL     1      -1.693  -0.760  25.440  0.00  0.00    +0.167 C 
ATOM     22  C   UNL     1      -0.718  -1.915  25.181  0.00  0.00    +0.149 C 
ATOM     23  C   UNL     1       0.104  -1.702  23.898  0.00  0.00    +0.074 C 
ATOM     24  C   UNL     1       0.061   0.763  24.403  0.00  0.00    +0.006 C 
ATOM     25  C   UNL     1       0.523  -0.274  23.690  0.00  0.00    +0.015 C 
ENDROOT
BRANCH  19   8
ATOM      1  O   UNL     1      -0.405   3.372  26.087  0.00  0.00    -0.276 OA
ATOM      8  N   UNL     1      -1.886   1.701  25.442  0.00  0.00    -0.306 N 
ATOM     18  C   UNL     1      -1.527   3.008  25.745  0.00  0.00    +0.214 C 
ATOM     30  H   UNL     1      -2.832   1.505  25.130  0.00  0.00    +0.149 HD
BRANCH  18  16
ATOM     16  C   UNL     1      -2.701   3.958  25.601  0.00  0.00    +0.103 C 
BRANCH  16  11
ATOM     11  C   UNL     1      -3.943   3.275  25.023  0.00  0.00    -0.011 C 
ATOM     12  C   UNL     1      -4.038   1.809  25.467  0.00  0.00    +0.008 C 
ATOM     13  C   UNL     1      -5.234   3.863  25.608  0.00  0.00    +0.008 C 
ATOM     14  C   UNL     1      -5.518   1.451  25.336  0.00  0.00    +0.001 C 
ATOM     15  C   UNL     1      -6.285   2.771  25.425  0.00  0.00    +0.001 C 
BRANCH  11  17
ATOM     17  C   UNL     1      -3.919   3.394  23.491  0.00  0.00    +0.127 C 
BRANCH  17  20
ATOM      4  O   UNL     1      -3.341   1.185  22.635  0.00  0.00    -0.251 OA
ATOM     20  C   UNL     1      -3.041   2.345  22.873  0.00  0.00    +0.305 C 
BRANCH  20   2
ATOM      2  O   UNL     1      -1.822   2.880  22.605  0.00  0.00    -0.481 OA
ATOM     31  H   UNL     1      -1.662   3.701  23.119  0.00  0.00    +0.295 HD
ENDBRANCH  20   2
ENDBRANCH  17  20
ENDBRANCH  11  17
ENDBRANCH  16  11
ENDBRANCH  18  16
ENDBRANCH  19   8
BRANCH  25  26
ATOM      6  O   UNL     1       1.353  -0.374  21.493  0.00  0.00    -0.271 OA
ATOM      9  N   UNL     1       2.609   0.717  23.127  0.00  0.00    -0.311 N 
ATOM     26  C   UNL     1       1.520   0.008  22.652  0.00  0.00    +0.240 C 
ATOM     34  H   UNL     1       2.643   0.992  24.105  0.00  0.00    +0.149 HD
BRANCH   9  27
ATOM     27  C   UNL     1       3.722   1.108  22.292  0.00  0.00    +0.113 C 
BRANCH  27  28
ATOM     28  C   UNL     1       4.947   0.236  22.519  0.00  0.00    +0.114 C 
BRANCH  28  29
ATOM      7  O   UNL     1       5.413   0.593  24.876  0.00  0.00    -0.276 OA
ATOM     10  N   UNL     1       4.953  -1.538  24.146  0.00  0.00    -0.329 N 
ATOM     29  C   UNL     1       5.129  -0.182  23.967  0.00  0.00    +0.212 C 
ATOM     35  H   UNL     1       5.047  -1.959  25.064  0.00  0.00    +0.145 HD
ATOM     36  H   UNL     1       4.723  -2.161  23.379  0.00  0.00    +0.145 HD
ENDBRANCH  28  29
ENDBRANCH  27  28
ENDBRANCH   9  27
ENDBRANCH  25  26
BRANCH  21   3
ATOM      3  O   UNL     1      -2.667  -0.738  24.394  0.00  0.00    -0.387 OA
ATOM     32  H   UNL     1      -2.189  -0.779  23.549  0.00  0.00    +0.210 HD
ENDBRANCH  21   3
BRANCH  22   5
ATOM      5  O   UNL     1       0.152  -2.083  26.298  0.00  0.00    -0.389 OA
ATOM     33  H   UNL     1       0.196  -3.035  26.496  0.00  0.00    +0.210 HD
ENDBRANCH  22   5
TORSDOF 12
ENDMDL
MODEL 2
REMARK VINA RESULT:      -4.6      0.882      1.992
REMARK  Name = 11866344
REMARK  12 active torsions:
REMARK  status: ('A' for Active; 'I' for Inactive)
REMARK    1  A    between atoms: O_2  and  C_20
REMARK    2  A    between atoms: O_3  and  C_21
REMARK    3  A    between atoms: O_5  and  C_22
REMARK    4  A    between atoms: N_8  and  C_19
REMARK    5  A    between atoms: N_9  and  C_27
REMARK    6  A    between atoms: C_11  and  C_16
REMARK    7  A    between atoms: C_11  and  C_17
REMARK    8  A    between atoms: C_16  and  C_18
REMARK    9  A    between atoms: C_17  and  C_20
REMARK   10  A    between atoms: C_25  and  C_26
REMARK   11  A    between atoms: C_27  and  C_28
REMARK   12  A    between atoms: C_28  and  C_29
REMARK                            x       y       z     vdW  Elec       q    Type
REMARK                         _______ _______ _______ _____ _____    ______ ____
ROOT
ATOM     19  C   UNL     1      -1.102   0.794  25.033  0.00  0.00    +0.127 C 
ATOM     21  C   UNL     1      -1.810  -0.574  24.989  0.00  0.00    +0.167 C 
ATOM     22  C   UNL     1      -0.801  -1.727  24.933  0.00  0.00    +0.149 C 
ATOM     23  C   UNL     1       0.168  -1.592  23.746  0.00  0.00    +0.074 C 
ATOM     24  C   UNL     1       0.043   0.902  24.063  0.00  0.00    +0.006 C 
ATOM     25  C   UNL     1       0.598  -0.175  23.487  0.00  0.00    +0.015 C 
ENDROOT
BRANCH  19   8
ATOM      1  O   UNL     1      -1.977   1.807  22.467  0.00  0.00    -0.276 OA
ATOM      8  N   UNL     1      -2.023   1.878  24.790  0.00  0.00    -0.306 N 
ATOM     18  C   UNL     1      -2.385   2.297  23.516  0.00  0.00    +0.214 C 
ATOM     30  H   UNL     1      -2.446   2.321  25.599  0.00  0.00    +0.149 HD
BRANCH  18  16
ATOM     16  C   UNL     1      -3.369   3.451  23.567  0.00  0.00    +0.103 C 
BRANCH  16  11
ATOM     11  C   UNL     1      -4.094   3.547  24.911  0.00  0.00    -0.011 C 
ATOM     12  C   UNL     1      -5.278   4.520  24.845  0.00  0.00    +0.008 C 
ATOM     13  C   UNL     1      -4.794   2.229  25.270  0.00  0.00    +0.008 C 
ATOM     14  C   UNL     1      -6.208   4.090  25.979  0.00  0.00    +0.001 C 
ATOM     15  C   UNL     1      -5.896   2.619  26.252  0.00  0.00    +0.001 C 
BRANCH  11  17
ATOM     17  C   UNL     1      -3.091   3.960  26.000  0.00  0.00    +0.127 C 
BRANCH  17  20
ATOM      4  O   UNL     1      -2.202   5.987  24.975  0.00  0.00    -0.251 OA
ATOM     20  C   UNL     1      -2.034   4.874  25.451  0.00  0.00    +0.305 C 
BRANCH  20   2
ATOM      2  O   UNL     1      -0.821   4.275  25.560  0.00  0.00    -0.481 OA
ATOM     31  H   UNL     1      -0.472   3.995  24.686  0.00  0.00    +0.295 HD
ENDBRANCH  20   2
ENDBRANCH  17  20
ENDBRANCH  11  17
ENDBRANCH  16  11
ENDBRANCH  18  16
ENDBRANCH  19   8
BRANCH  25  26
ATOM      6  O   UNL     1       1.695  -0.429  21.424  0.00  0.00    -0.271 OA
ATOM      9  N   UNL     1       2.719   0.826  23.102  0.00  0.00    -0.311 N 
ATOM     26  C   UNL     1       1.710   0.050  22.558  0.00  0.00    +0.240 C 
ATOM     34  H   UNL     1       2.626   1.180  24.051  0.00  0.00    +0.149 HD
BRANCH   9  27
ATOM     27  C   UNL     1       3.919   1.179  22.379  0.00  0.00    +0.113 C 
BRANCH  27  28
ATOM     28  C   UNL     1       5.047   0.185  22.614  0.00  0.00    +0.114 C 
BRANCH  28  29
ATOM      7  O   UNL     1       5.441   0.539  24.985  0.00  0.00    -0.276 OA
ATOM     10  N   UNL     1       5.010  -1.592  24.238  0.00  0.00    -0.329 N 
ATOM     29  C   UNL     1       5.187  -0.235  24.066  0.00  0.00    +0.212 C 
ATOM     35  H   UNL     1       5.078  -2.014  25.157  0.00  0.00    +0.145 HD
ATOM     36  H   UNL     1       4.805  -2.214  23.462  0.00  0.00    +0.145 HD
ENDBRANCH  28  29
ENDBRANCH  27  28
ENDBRANCH   9  27
ENDBRANCH  25  26
BRANCH  21   3
ATOM      3  O   UNL     1      -2.651  -0.643  23.835  0.00  0.00    -0.387 OA
ATOM     32  H   UNL     1      -2.162  -1.122  23.145  0.00  0.00    +0.210 HD
ENDBRANCH  21   3
BRANCH  22   5
ATOM      5  O   UNL     1      -0.071  -1.801  26.155  0.00  0.00    -0.389 OA
ATOM     33  H   UNL     1       0.853  -2.010  25.934  0.00  0.00    +0.210 HD
ENDBRANCH  22   5
TORSDOF 12
ENDMDL
MODEL 3
REMARK VINA RESULT:      -4.4      1.544      2.537
REMARK  Name = 11866344
REMARK  12 active torsions:
REMARK  status: ('A' for Active; 'I' for Inactive)
REMARK    1  A    between atoms: O_2  and  C_20
REMARK    2  A    between atoms: O_3  and  C_21
REMARK    3  A    between atoms: O_5  and  C_22
REMARK    4  A    between atoms: N_8  and  C_19
REMARK    5  A    between atoms: N_9  and  C_27
REMARK    6  A    between atoms: C_11  and  C_16
REMARK    7  A    between atoms: C_11  and  C_17
REMARK    8  A    between atoms: C_16  and  C_18
REMARK    9  A    between atoms: C_17  and  C_20
REMARK   10  A    between atoms: C_25  and  C_26
REMARK   11  A    between atoms: C_27  and  C_28
REMARK   12  A    between atoms: C_28  and  C_29
REMARK                            x       y       z     vdW  Elec       q    Type
REMARK                         _______ _______ _______ _____ _____    ______ ____
ROOT
ATOM     19  C   UNL     1      -1.179   0.382  25.214  0.00  0.00    +0.127 C 
ATOM     21  C   UNL     1      -1.758  -1.045  25.193  0.00  0.00    +0.167 C 
ATOM     22  C   UNL     1      -0.651  -2.099  25.061  0.00  0.00    +0.149 C 
ATOM     23  C   UNL     1       0.230  -1.862  23.823  0.00  0.00    +0.074 C 
ATOM     24  C   UNL     1      -0.108   0.606  24.182  0.00  0.00    +0.006 C 
ATOM     25  C   UNL     1       0.509  -0.409  23.559  0.00  0.00    +0.015 C 
ENDROOT
BRANCH  19   8
ATOM      1  O   UNL     1      -2.471   1.153  22.742  0.00  0.00    -0.276 OA
ATOM      8  N   UNL     1      -2.210   1.377  25.041  0.00  0.00    -0.306 N 
ATOM     18  C   UNL     1      -2.774   1.681  23.808  0.00  0.00    +0.214 C 
ATOM     30  H   UNL     1      -2.555   1.841  25.874  0.00  0.00    +0.149 HD
BRANCH  18  16
ATOM     16  C   UNL     1      -3.832   2.761  23.929  0.00  0.00    +0.103 C 
BRANCH  16  11
ATOM     11  C   UNL     1      -3.343   3.977  24.720  0.00  0.00    -0.011 C 
ATOM     12  C   UNL     1      -1.828   3.926  24.956  0.00  0.00    +0.008 C 
ATOM     13  C   UNL     1      -3.489   5.273  23.911  0.00  0.00    +0.008 C 
ATOM     14  C   UNL     1      -1.415   5.377  25.198  0.00  0.00    +0.001 C 
ATOM     15  C   UNL     1      -2.483   6.241  24.527  0.00  0.00    +0.001 C 
BRANCH  11  17
ATOM     17  C   UNL     1      -4.113   4.060  26.048  0.00  0.00    +0.127 C 
BRANCH  17  20
ATOM      4  O   UNL     1      -5.688   2.198  26.048  0.00  0.00    -0.251 OA
ATOM     20  C   UNL     1      -5.454   3.393  25.946  0.00  0.00    +0.305 C 
BRANCH  20   2
ATOM      2  O   UNL     1      -6.407   4.332  25.716  0.00  0.00    -0.481 OA
ATOM     31  H   UNL     1      -6.032   5.238  25.707  0.00  0.00    +0.295 HD
ENDBRANCH  20   2
ENDBRANCH  17  20
ENDBRANCH  11  17
ENDBRANCH  16  11
ENDBRANCH  18  16
ENDBRANCH  19   8
BRANCH  25  26
ATOM      6  O   UNL     1       1.432  -0.429  21.398  0.00  0.00    -0.271 OA
ATOM      9  N   UNL     1       2.586   0.655  23.109  0.00  0.00    -0.311 N 
ATOM     26  C   UNL     1       1.539  -0.072  22.571  0.00  0.00    +0.240 C 
ATOM     34  H   UNL     1       2.572   0.905  24.094  0.00  0.00    +0.149 HD
BRANCH   9  27
ATOM     27  C   UNL     1       3.720   1.099  22.331  0.00  0.00    +0.113 C 
BRANCH  27  28
ATOM     28  C   UNL     1       4.955   0.244  22.574  0.00  0.00    +0.114 C 
BRANCH  28  29
ATOM      7  O   UNL     1       5.399   0.571  24.940  0.00  0.00    -0.276 OA
ATOM     10  N   UNL     1       4.911  -1.545  24.184  0.00  0.00    -0.329 N 
ATOM     29  C   UNL     1       5.113  -0.191  24.020  0.00  0.00    +0.212 C 
ATOM     35  H   UNL     1       4.986  -1.976  25.099  0.00  0.00    +0.145 HD
ATOM     36  H   UNL     1       4.678  -2.156  23.408  0.00  0.00    +0.145 HD
ENDBRANCH  28  29
ENDBRANCH  27  28
ENDBRANCH   9  27
ENDBRANCH  25  26
BRANCH  21   3
ATOM      3  O   UNL     1      -2.656  -1.183  24.088  0.00  0.00    -0.387 OA
ATOM     32  H   UNL     1      -2.137  -1.495  23.327  0.00  0.00    +0.210 HD
ENDBRANCH  21   3
BRANCH  22   5
ATOM      5  O   UNL     1       0.154  -2.114  26.239  0.00  0.00    -0.389 OA
ATOM     33  H   UNL     1       0.778  -1.371  26.178  0.00  0.00    +0.210 HD
ENDBRANCH  22   5
TORSDOF 12
ENDMDL
MODEL 4
REMARK VINA RESULT:      -3.1      2.202      4.952
REMARK  Name = 11866344
REMARK  12 active torsions:
REMARK  status: ('A' for Active; 'I' for Inactive)
REMARK    1  A    between atoms: O_2  and  C_20
REMARK    2  A    between atoms: O_3  and  C_21
REMARK    3  A    between atoms: O_5  and  C_22
REMARK    4  A    between atoms: N_8  and  C_19
REMARK    5  A    between atoms: N_9  and  C_27
REMARK    6  A    between atoms: C_11  and  C_16
REMARK    7  A    between atoms: C_11  and  C_17
REMARK    8  A    between atoms: C_16  and  C_18
REMARK    9  A    between atoms: C_17  and  C_20
REMARK   10  A    between atoms: C_25  and  C_26
REMARK   11  A    between atoms: C_27  and  C_28
REMARK   12  A    between atoms: C_28  and  C_29
REMARK                            x       y       z     vdW  Elec       q    Type
REMARK                         _______ _______ _______ _____ _____    ______ ____
ROOT
ATOM     19  C   UNL     1      -0.377   1.510  23.107  0.00  0.00    +0.127 C 
ATOM     21  C   UNL     1       1.088   1.815  23.474  0.00  0.00    +0.167 C 
ATOM     22  C   UNL     1       1.984   0.587  23.271  0.00  0.00    +0.149 C 
ATOM     23  C   UNL     1       1.480  -0.635  24.059  0.00  0.00    +0.074 C 
ATOM     24  C   UNL     1      -0.860   0.187  23.633  0.00  0.00    +0.006 C 
ATOM     25  C   UNL     1      -0.017  -0.763  24.065  0.00  0.00    +0.015 C 
ENDROOT
BRANCH  19   8
ATOM      1  O   UNL     1      -3.033   2.102  22.123  0.00  0.00    -0.276 OA
ATOM      8  N   UNL     1      -1.268   2.549  23.567  0.00  0.00    -0.306 N 
ATOM     18  C   UNL     1      -2.532   2.759  23.031  0.00  0.00    +0.214 C 
ATOM     30  H   UNL     1      -0.955   3.120  24.345  0.00  0.00    +0.149 HD
BRANCH  18  16
ATOM     16  C   UNL     1      -3.241   3.915  23.712  0.00  0.00    +0.103 C 
BRANCH  16  11
ATOM     11  C   UNL     1      -4.007   3.480  24.964  0.00  0.00    -0.011 C 
ATOM     12  C   UNL     1      -5.429   4.054  24.984  0.00  0.00    +0.008 C 
ATOM     13  C   UNL     1      -4.280   1.970  24.962  0.00  0.00    +0.008 C 
ATOM     14  C   UNL     1      -6.220   3.122  25.899  0.00  0.00    +0.001 C 
ATOM     15  C   UNL     1      -5.481   1.783  25.886  0.00  0.00    +0.001 C 
BRANCH  11  17
ATOM     17  C   UNL     1      -3.215   3.902  26.212  0.00  0.00    +0.127 C 
BRANCH  17  20
ATOM      4  O   UNL     1      -1.322   5.160  25.330  0.00  0.00    -0.251 OA
ATOM     20  C   UNL     1      -1.775   4.170  25.883  0.00  0.00    +0.305 C 
BRANCH  20   2
ATOM      2  O   UNL     1      -1.017   3.123  26.299  0.00  0.00    -0.481 OA
ATOM     31  H   UNL     1      -1.261   2.290  25.842  0.00  0.00    +0.295 HD
ENDBRANCH  20   2
ENDBRANCH  17  20
ENDBRANCH  11  17
ENDBRANCH  16  11
ENDBRANCH  18  16
ENDBRANCH  19   8
BRANCH  25  26
ATOM      6  O   UNL     1      -0.108  -2.610  25.515  0.00  0.00    -0.271 OA
ATOM      9  N   UNL     1      -1.711  -2.413  23.834  0.00  0.00    -0.311 N 
ATOM     26  C   UNL     1      -0.601  -2.015  24.556  0.00  0.00    +0.240 C 
ATOM     34  H   UNL     1      -2.041  -1.841  23.061  0.00  0.00    +0.149 HD
BRANCH   9  27
ATOM     27  C   UNL     1      -2.455  -3.617  24.128  0.00  0.00    +0.113 C 
BRANCH  27  28
ATOM     28  C   UNL     1      -3.763  -3.325  24.848  0.00  0.00    +0.114 C 
BRANCH  28  29
ATOM      7  O   UNL     1      -3.653  -1.279  26.152  0.00  0.00    -0.276 OA
ATOM     10  N   UNL     1      -4.622  -1.216  24.068  0.00  0.00    -0.329 N 
ATOM     29  C   UNL     1      -3.987  -1.848  25.116  0.00  0.00    +0.212 C 
ATOM     35  H   UNL     1      -4.839  -0.226  24.110  0.00  0.00    +0.145 HD
ATOM     36  H   UNL     1      -4.892  -1.708  23.222  0.00  0.00    +0.145 HD
ENDBRANCH  28  29
ENDBRANCH  27  28
ENDBRANCH   9  27
ENDBRANCH  25  26
BRANCH  21   3
ATOM      3  O   UNL     1       1.166   2.219  24.843  0.00  0.00    -0.387 OA
ATOM     32  H   UNL     1       0.648   1.583  25.366  0.00  0.00    +0.210 HD
ENDBRANCH  21   3
BRANCH  22   5
ATOM      5  O   UNL     1       2.078   0.271  21.884  0.00  0.00    -0.389 OA
ATOM     33  H   UNL     1       1.212  -0.072  21.601  0.00  0.00    +0.210 HD
ENDBRANCH  22   5
TORSDOF 12
ENDMDL
MODEL 5
REMARK VINA RESULT:      -2.9      1.837      3.092
REMARK  Name = 11866344
REMARK  12 active torsions:
REMARK  status: ('A' for Active; 'I' for Inactive)
REMARK    1  A    between atoms: O_2  and  C_20
REMARK    2  A    between atoms: O_3  and  C_21
REMARK    3  A    between atoms: O_5  and  C_22
REMARK    4  A    between atoms: N_8  and  C_19
REMARK    5  A    between atoms: N_9  and  C_27
REMARK    6  A    between atoms: C_11  and  C_16
REMARK    7  A    between atoms: C_11  and  C_17
REMARK    8  A    between atoms: C_16  and  C_18
REMARK    9  A    between atoms: C_17  and  C_20
REMARK   10  A    between atoms: C_25  and  C_26
REMARK   11  A    between atoms: C_27  and  C_28
REMARK   12  A    between atoms: C_28  and  C_29
REMARK                            x       y       z     vdW  Elec       q    Type
REMARK                         _______ _______ _______ _____ _____    ______ ____
ROOT
ATOM     19  C   UNL     1      -3.421  -0.361  25.268  0.00  0.00    +0.127 C 
ATOM     21  C   UNL     1      -4.182  -1.355  24.371  0.00  0.00    +0.167 C 
ATOM     22  C   UNL     1      -3.614  -2.774  24.497  0.00  0.00    +0.149 C 
ATOM     23  C   UNL     1      -2.108  -2.824  24.190  0.00  0.00    +0.074 C 
ATOM     24  C   UNL     1      -1.928  -0.533  25.214  0.00  0.00    +0.006 C 
ATOM     25  C   UNL     1      -1.352  -1.639  24.720  0.00  0.00    +0.015 C 
ENDROOT
BRANCH  19   8
ATOM      1  O   UNL     1      -5.767   1.125  26.081  0.00  0.00    -0.276 OA
ATOM      8  N   UNL     1      -3.745   1.007  24.941  0.00  0.00    -0.306 N 
ATOM     18  C   UNL     1      -4.902   1.640  25.379  0.00  0.00    +0.214 C 
ATOM     30  H   UNL     1      -3.068   1.530  24.396  0.00  0.00    +0.149 HD
BRANCH  18  16
ATOM     16  C   UNL     1      -4.975   3.073  24.885  0.00  0.00    +0.103 C 
BRANCH  16  11
ATOM     11  C   UNL     1      -3.594   3.671  24.608  0.00  0.00    -0.011 C 
ATOM     12  C   UNL     1      -3.516   5.138  25.048  0.00  0.00    +0.008 C 
ATOM     13  C   UNL     1      -2.513   3.025  25.486  0.00  0.00    +0.008 C 
ATOM     14  C   UNL     1      -2.028   5.409  25.264  0.00  0.00    +0.001 C 
ATOM     15  C   UNL     1      -1.384   4.051  25.544  0.00  0.00    +0.001 C 
BRANCH  11  17
ATOM     17  C   UNL     1      -3.266   3.517  23.114  0.00  0.00    +0.127 C 
BRANCH  17  20
ATOM      4  O   UNL     1      -1.209   2.210  23.212  0.00  0.00    -0.251 OA
ATOM     20  C   UNL     1      -2.375   2.334  22.869  0.00  0.00    +0.305 C 
BRANCH  20   2
ATOM      2  O   UNL     1      -3.066   1.383  22.190  0.00  0.00    -0.481 OA
ATOM     31  H   UNL     1      -3.326   0.636  22.770  0.00  0.00    +0.295 HD
ENDBRANCH  20   2
ENDBRANCH  17  20
ENDBRANCH  11  17
ENDBRANCH  16  11
ENDBRANCH  18  16
ENDBRANCH  19   8
BRANCH  25  26
ATOM      6  O   UNL     1       0.718  -2.436  25.496  0.00  0.00    -0.271 OA
ATOM      9  N   UNL     1       0.687  -0.856  23.781  0.00  0.00    -0.311 N 
ATOM     26  C   UNL     1       0.113  -1.697  24.718  0.00  0.00    +0.240 C 
ATOM     34  H   UNL     1       0.092  -0.292  23.180  0.00  0.00    +0.149 HD
BRANCH   9  27
ATOM     27  C   UNL     1       2.115  -0.739  23.595  0.00  0.00    +0.113 C 
BRANCH  27  28
ATOM     28  C   UNL     1       2.524   0.656  23.144  0.00  0.00    +0.114 C 
BRANCH  28  29
ATOM      7  O   UNL     1       4.456   0.995  21.712  0.00  0.00    -0.276 OA
ATOM     10  N   UNL     1       4.790   0.611  23.954  0.00  0.00    -0.329 N 
ATOM     29  C   UNL     1       4.004   0.780  22.834  0.00  0.00    +0.212 C 
ATOM     35  H   UNL     1       5.801   0.665  23.894  0.00  0.00    +0.145 HD
ATOM     36  H   UNL     1       4.395   0.430  24.871  0.00  0.00    +0.145 HD
ENDBRANCH  28  29
ENDBRANCH  27  28
ENDBRANCH   9  27
ENDBRANCH  25  26
BRANCH  21   3
ATOM      3  O   UNL     1      -4.085  -0.942  23.006  0.00  0.00    -0.387 OA
ATOM     32  H   UNL     1      -4.270   0.013  22.975  0.00  0.00    +0.210 HD
ENDBRANCH  21   3
BRANCH  22   5
ATOM      5  O   UNL     1      -3.865  -3.289  25.803  0.00  0.00    -0.389 OA
ATOM     33  H   UNL     1      -3.316  -4.084  25.916  0.00  0.00    +0.210 HD
ENDBRANCH  22   5
TORSDOF 12
ENDMDL
MODEL 6
REMARK VINA RESULT:      -2.4      1.276      2.260
REMARK  Name = 11866344
REMARK  12 active torsions:
REMARK  status: ('A' for Active; 'I' for Inactive)
REMARK    1  A    between atoms: O_2  and  C_20
REMARK    2  A    between atoms: O_3  and  C_21
REMARK    3  A    between atoms: O_5  and  C_22
REMARK    4  A    between atoms: N_8  and  C_19
REMARK    5  A    between atoms: N_9  and  C_27
REMARK    6  A    between atoms: C_11  and  C_16
REMARK    7  A    between atoms: C_11  and  C_17
REMARK    8  A    between atoms: C_16  and  C_18
REMARK    9  A    between atoms: C_17  and  C_20
REMARK   10  A    between atoms: C_25  and  C_26
REMARK   11  A    between atoms: C_27  and  C_28
REMARK   12  A    between atoms: C_28  and  C_29
REMARK                            x       y       z     vdW  Elec       q    Type
REMARK                         _______ _______ _______ _____ _____    ______ ____
ROOT
ATOM     19  C   UNL     1      -1.964  -0.204  25.393  0.00  0.00    +0.127 C 
ATOM     21  C   UNL     1      -2.292  -1.518  24.658  0.00  0.00    +0.167 C 
ATOM     22  C   UNL     1      -1.028  -2.350  24.406  0.00  0.00    +0.149 C 
ATOM     23  C   UNL     1       0.041  -1.560  23.633  0.00  0.00    +0.074 C 
ATOM     24  C   UNL     1      -0.752   0.498  24.846  0.00  0.00    +0.006 C 
ATOM     25  C   UNL     1       0.135  -0.119  24.050  0.00  0.00    +0.015 C 
ENDROOT
BRANCH  19   8
ATOM      1  O   UNL     1      -4.750  -0.852  24.953  0.00  0.00    -0.276 OA
ATOM      8  N   UNL     1      -3.081   0.710  25.374  0.00  0.00    -0.306 N 
ATOM     18  C   UNL     1      -4.391   0.305  25.153  0.00  0.00    +0.214 C 
ATOM     30  H   UNL     1      -2.888   1.686  25.570  0.00  0.00    +0.149 HD
BRANCH  18  16
ATOM     16  C   UNL     1      -5.352   1.478  25.191  0.00  0.00    +0.103 C 
BRANCH  16  11
ATOM     11  C   UNL     1      -4.641   2.826  25.041  0.00  0.00    -0.011 C 
ATOM     12  C   UNL     1      -5.469   3.970  25.639  0.00  0.00    +0.008 C 
ATOM     13  C   UNL     1      -3.364   2.888  25.890  0.00  0.00    +0.008 C 
ATOM     14  C   UNL     1      -4.456   5.072  25.948  0.00  0.00    +0.001 C 
ATOM     15  C   UNL     1      -3.104   4.376  26.108  0.00  0.00    +0.001 C 
BRANCH  11  17
ATOM     17  C   UNL     1      -4.335   3.074  23.555  0.00  0.00    +0.127 C 
BRANCH  17  20
ATOM      4  O   UNL     1      -1.898   3.125  23.503  0.00  0.00    -0.251 OA
ATOM     20  C   UNL     1      -2.957   2.601  23.194  0.00  0.00    +0.305 C 
BRANCH  20   2
ATOM      2  O   UNL     1      -3.051   1.470  22.449  0.00  0.00    -0.481 OA
ATOM     31  H   UNL     1      -3.588   0.781  22.896  0.00  0.00    +0.295 HD
ENDBRANCH  20   2
ENDBRANCH  17  20
ENDBRANCH  11  17
ENDBRANCH  16  11
ENDBRANCH  18  16
ENDBRANCH  19   8
BRANCH  25  26
ATOM      6  O   UNL     1       1.403   1.851  23.875  0.00  0.00    -0.271 OA
ATOM      9  N   UNL     1       2.150  -0.073  22.791  0.00  0.00    -0.311 N 
ATOM     26  C   UNL     1       1.280   0.663  23.576  0.00  0.00    +0.240 C 
ATOM     34  H   UNL     1       1.958  -1.055  22.611  0.00  0.00    +0.149 HD
BRANCH   9  27
ATOM     27  C   UNL     1       3.349   0.483  22.206  0.00  0.00    +0.113 C 
BRANCH  27  28
ATOM     28  C   UNL     1       4.390   0.840  23.257  0.00  0.00    +0.114 C 
BRANCH  28  29
ATOM      7  O   UNL     1       6.570  -0.224  23.129  0.00  0.00    -0.276 OA
ATOM     10  N   UNL     1       4.855  -1.331  24.187  0.00  0.00    -0.329 N 
ATOM     29  C   UNL     1       5.401  -0.265  23.504  0.00  0.00    +0.212 C 
ATOM     35  H   UNL     1       5.416  -2.144  24.419  0.00  0.00    +0.145 HD
ATOM     36  H   UNL     1       3.884  -1.345  24.483  0.00  0.00    +0.145 HD
ENDBRANCH  28  29
ENDBRANCH  27  28
ENDBRANCH   9  27
ENDBRANCH  25  26
BRANCH  21   3
ATOM      3  O   UNL     1      -2.907  -1.224  23.402  0.00  0.00    -0.387 OA
ATOM     32  H   UNL     1      -2.447  -0.456  23.024  0.00  0.00    +0.210 HD
ENDBRANCH  21   3
BRANCH  22   5
ATOM      5  O   UNL     1      -0.494  -2.818  25.642  0.00  0.00    -0.389 OA
ATOM     33  H   UNL     1       0.308  -2.300  25.831  0.00  0.00    +0.210 HD
ENDBRANCH  22   5
TORSDOF 12
ENDMDL
MODEL 7
REMARK VINA RESULT:      -1.9      1.936      2.893
REMARK  Name = 11866344
REMARK  12 active torsions:
REMARK  status: ('A' for Active; 'I' for Inactive)
REMARK    1  A    between atoms: O_2  and  C_20
REMARK    2  A    between atoms: O_3  and  C_21
REMARK    3  A    between atoms: O_5  and  C_22
REMARK    4  A    between atoms: N_8  and  C_19
REMARK    5  A    between atoms: N_9  and  C_27
REMARK    6  A    between atoms: C_11  and  C_16
REMARK    7  A    between atoms: C_11  and  C_17
REMARK    8  A    between atoms: C_16  and  C_18
REMARK    9  A    between atoms: C_17  and  C_20
REMARK   10  A    between atoms: C_25  and  C_26
REMARK   11  A    between atoms: C_27  and  C_28
REMARK   12  A    between atoms: C_28  and  C_29
REMARK                            x       y       z     vdW  Elec       q    Type
REMARK                         _______ _______ _______ _____ _____    ______ ____
ROOT
ATOM     19  C   UNL     1      -1.395  -0.388  25.574  0.00  0.00    +0.127 C 
ATOM     21  C   UNL     1      -1.451  -1.845  25.076  0.00  0.00    +0.167 C 
ATOM     22  C   UNL     1      -0.046  -2.437  24.913  0.00  0.00    +0.149 C 
ATOM     23  C   UNL     1       0.835  -1.589  23.980  0.00  0.00    +0.074 C 
ATOM     24  C   UNL     1      -0.355   0.441  24.871  0.00  0.00    +0.006 C 
ATOM     25  C   UNL     1       0.634  -0.110  24.152  0.00  0.00    +0.015 C 
ENDROOT
BRANCH  19   8
ATOM      1  O   UNL     1      -4.012  -1.613  25.744  0.00  0.00    -0.276 OA
ATOM      8  N   UNL     1      -2.676   0.266  25.450  0.00  0.00    -0.306 N 
ATOM     18  C   UNL     1      -3.886  -0.408  25.547  0.00  0.00    +0.214 C 
ATOM     30  H   UNL     1      -2.674   1.273  25.325  0.00  0.00    +0.149 HD
BRANCH  18  16
ATOM     16  C   UNL     1      -5.064   0.534  25.380  0.00  0.00    +0.103 C 
BRANCH  16  11
ATOM     11  C   UNL     1      -4.673   1.851  24.704  0.00  0.00    -0.011 C 
ATOM     12  C   UNL     1      -3.583   2.588  25.492  0.00  0.00    +0.008 C 
ATOM     13  C   UNL     1      -3.975   1.609  23.358  0.00  0.00    +0.008 C 
ATOM     14  C   UNL     1      -2.906   3.503  24.472  0.00  0.00    +0.001 C 
ATOM     15  C   UNL     1      -3.159   2.873  23.102  0.00  0.00    +0.001 C 
BRANCH  11  17
ATOM     17  C   UNL     1      -5.927   2.724  24.533  0.00  0.00    +0.127 C 
BRANCH  17  20
ATOM      4  O   UNL     1      -6.216   4.764  25.836  0.00  0.00    -0.251 OA
ATOM     20  C   UNL     1      -6.193   3.545  25.761  0.00  0.00    +0.305 C 
BRANCH  20   2
ATOM      2  O   UNL     1      -6.413   2.720  26.815  0.00  0.00    -0.481 OA
ATOM     31  H   UNL     1      -7.096   3.077  27.423  0.00  0.00    +0.295 HD
ENDBRANCH  20   2
ENDBRANCH  17  20
ENDBRANCH  11  17
ENDBRANCH  16  11
ENDBRANCH  18  16
ENDBRANCH  19   8
BRANCH  25  26
ATOM      6  O   UNL     1       1.470   2.018  23.606  0.00  0.00    -0.271 OA
ATOM      9  N   UNL     1       2.591   0.129  22.825  0.00  0.00    -0.311 N 
ATOM     26  C   UNL     1       1.592   0.796  23.512  0.00  0.00    +0.240 C 
ATOM     34  H   UNL     1       2.604  -0.888  22.817  0.00  0.00    +0.149 HD
BRANCH   9  27
ATOM     27  C   UNL     1       3.648   0.809  22.111  0.00  0.00    +0.113 C 
BRANCH  27  28
ATOM     28  C   UNL     1       5.029   0.419  22.619  0.00  0.00    +0.114 C 
BRANCH  28  29
ATOM      7  O   UNL     1       4.621  -1.611  23.887  0.00  0.00    -0.276 OA
ATOM     10  N   UNL     1       5.407   0.246  24.990  0.00  0.00    -0.329 N 
ATOM     29  C   UNL     1       4.991  -0.441  23.869  0.00  0.00    +0.212 C 
ATOM     35  H   UNL     1       5.431  -0.204  25.899  0.00  0.00    +0.145 HD
ATOM     36  H   UNL     1       5.705   1.216  24.952  0.00  0.00    +0.145 HD
ENDBRANCH  28  29
ENDBRANCH  27  28
ENDBRANCH   9  27
ENDBRANCH  25  26
BRANCH  21   3
ATOM      3  O   UNL     1      -2.121  -1.896  23.814  0.00  0.00    -0.387 OA
ATOM     32  H   UNL     1      -1.622  -1.335  23.196  0.00  0.00    +0.210 HD
ENDBRANCH  21   3
BRANCH  22   5
ATOM      5  O   UNL     1       0.581  -2.574  26.186  0.00  0.00    -0.389 OA
ATOM     33  H   UNL     1      -0.047  -3.028  26.776  0.00  0.00    +0.210 HD
ENDBRANCH  22   5
TORSDOF 12
ENDMDL
