MODEL 1
REMARK VINA RESULT:      -2.6      0.000      0.000
REMARK  Name = 11912477
REMARK  8 active torsions:
REMARK  status: ('A' for Active; 'I' for Inactive)
REMARK    1  A    between atoms: N_7  and  C_19
REMARK    2  A    between atoms: N_8  and  C_20
REMARK    3  A    between atoms: C_9  and  C_15
REMARK    4  A    between atoms: C_10  and  C_14
REMARK    5  A    between atoms: C_14  and  C_16
REMARK    6  A    between atoms: C_15  and  C_18
REMARK    7  A    between atoms: C_19  and  C_21
REMARK    8  A    between atoms: C_24  and  C_29
REMARK                            x       y       z     vdW  Elec       q    Type
REMARK                         _______ _______ _______ _____ _____    ______ ____
ROOT
ATOM      4  O   UNL     1      -0.156  -1.279  25.843  0.00  0.00    -0.252 OA
ATOM      6  N   UNL     1      -2.113  -1.155  24.620  0.00  0.00    -0.285 N 
ATOM      8  N   UNL     1      -0.023  -0.868  23.564  0.00  0.00    -0.269 N 
ATOM      9  C   UNL     1      -4.758   0.016  24.709  0.00  0.00    +0.004 C 
ATOM     10  C   UNL     1      -3.851   0.182  23.461  0.00  0.00    +0.010 C 
ATOM     11  C   UNL     1      -3.936  -0.231  25.986  0.00  0.00    +0.023 C 
ATOM     12  C   UNL     1      -2.878  -1.006  23.372  0.00  0.00    +0.113 C 
ATOM     13  C   UNL     1      -2.945  -1.380  25.803  0.00  0.00    +0.109 C 
ATOM     17  C   UNL     1      -0.708  -1.121  24.751  0.00  0.00    +0.306 C 
ATOM     34  H   UNL     1      -0.444  -1.163  22.691  0.00  0.00    +0.156 HD
ENDROOT
BRANCH   8  20
ATOM     20  C   UNL     1       1.225  -0.215  23.413  0.00  0.00    +0.035 A 
ATOM     22  C   UNL     1       2.411  -0.913  23.642  0.00  0.00    +0.035 A 
ATOM     23  C   UNL     1       1.267   1.129  23.039  0.00  0.00    +0.023 A 
ATOM     24  C   UNL     1       3.639  -0.268  23.493  0.00  0.00    +0.057 A 
ATOM     27  C   UNL     1       2.496   1.772  22.890  0.00  0.00    +0.002 A 
ATOM     28  C   UNL     1       3.682   1.075  23.118  0.00  0.00    +0.012 A 
BRANCH  24  29
ATOM      1  F   UNL     1       4.755  -2.373  23.714  0.00  0.00    -0.166 F 
ATOM      2  F   UNL     1       5.480  -0.741  24.946  0.00  0.00    -0.166 F 
ATOM      3  F   UNL     1       5.866  -0.739  22.806  0.00  0.00    -0.166 F 
ATOM     29  C   UNL     1       4.907  -1.016  23.736  0.00  0.00    +0.417 C 
ENDBRANCH  24  29
ENDBRANCH   8  20
BRANCH  10  14
ATOM     14  C   UNL     1      -3.083   1.509  23.419  0.00  0.00    +0.002 C 
ATOM     16  C   UNL     1      -2.381   1.693  22.090  0.00  0.00    +0.004 C 
ENDBRANCH  10  14
BRANCH   9  15
ATOM     15  C   UNL     1      -5.725   1.183  24.907  0.00  0.00    +0.099 C 
BRANCH  15  18
ATOM      5  O   UNL     1      -4.892   3.225  23.914  0.00  0.00    -0.276 OA
ATOM      7  N   UNL     1      -4.534   2.827  26.177  0.00  0.00    -0.311 N 
ATOM     18  C   UNL     1      -5.016   2.520  24.912  0.00  0.00    +0.214 C 
ATOM     33  H   UNL     1      -4.679   2.173  26.940  0.00  0.00    +0.149 HD
BRANCH   7  19
ATOM     19  C   UNL     1      -3.813   4.044  26.472  0.00  0.00    +0.139 C 
BRANCH  19  21
ATOM     21  C   UNL     1      -2.412   4.012  25.930  0.00  0.00    -0.030 A 
ATOM     25  C   UNL     1      -1.604   2.897  26.148  0.00  0.00    +0.005 A 
ATOM     26  C   UNL     1      -1.921   5.099  25.206  0.00  0.00    +0.005 A 
ATOM     30  C   UNL     1      -0.304   2.868  25.644  0.00  0.00    +0.000 A 
ATOM     31  C   UNL     1      -0.621   5.071  24.702  0.00  0.00    +0.000 A 
ATOM     32  C   UNL     1       0.188   3.955  24.920  0.00  0.00    +0.000 A 
ENDBRANCH  19  21
ENDBRANCH   7  19
ENDBRANCH  15  18
ENDBRANCH   9  15
TORSDOF 7
ENDMDL
MODEL 2
REMARK VINA RESULT:       0.1      1.788      4.100
REMARK  Name = 11912477
REMARK  8 active torsions:
REMARK  status: ('A' for Active; 'I' for Inactive)
REMARK    1  A    between atoms: N_7  and  C_19
REMARK    2  A    between atoms: N_8  and  C_20
REMARK    3  A    between atoms: C_9  and  C_15
REMARK    4  A    between atoms: C_10  and  C_14
REMARK    5  A    between atoms: C_14  and  C_16
REMARK    6  A    between atoms: C_15  and  C_18
REMARK    7  A    between atoms: C_19  and  C_21
REMARK    8  A    between atoms: C_24  and  C_29
REMARK                            x       y       z     vdW  Elec       q    Type
REMARK                         _______ _______ _______ _____ _____    ______ ____
ROOT
ATOM      4  O   UNL     1      -1.289   1.160  21.818  0.00  0.00    -0.252 OA
ATOM      6  N   UNL     1      -1.726   2.983  23.171  0.00  0.00    -0.285 N 
ATOM      8  N   UNL     1       0.413   1.986  23.162  0.00  0.00    -0.269 N 
ATOM      9  C   UNL     1      -3.714   4.004  25.010  0.00  0.00    +0.004 C 
ATOM     10  C   UNL     1      -2.215   3.944  25.404  0.00  0.00    +0.010 C 
ATOM     11  C   UNL     1      -4.064   2.964  23.929  0.00  0.00    +0.023 C 
ATOM     12  C   UNL     1      -1.346   4.025  24.138  0.00  0.00    +0.113 C 
ATOM     13  C   UNL     1      -3.119   3.060  22.731  0.00  0.00    +0.109 C 
ATOM     17  C   UNL     1      -0.882   1.981  22.646  0.00  0.00    +0.306 C 
ATOM     34  H   UNL     1       0.805   2.867  23.473  0.00  0.00    +0.156 HD
ENDROOT
BRANCH   8  20
ATOM     20  C   UNL     1       1.277   0.877  23.327  0.00  0.00    +0.035 A 
ATOM     22  C   UNL     1       2.658   1.046  23.225  0.00  0.00    +0.035 A 
ATOM     23  C   UNL     1       0.747  -0.387  23.589  0.00  0.00    +0.023 A 
ATOM     24  C   UNL     1       3.509  -0.047  23.389  0.00  0.00    +0.057 A 
ATOM     27  C   UNL     1       1.599  -1.480  23.752  0.00  0.00    +0.002 A 
ATOM     28  C   UNL     1       2.979  -1.311  23.651  0.00  0.00    +0.012 A 
BRANCH  24  29
ATOM      1  F   UNL     1       5.440   1.284  23.864  0.00  0.00    -0.166 F 
ATOM      2  F   UNL     1       5.438   0.186  21.992  0.00  0.00    -0.166 F 
ATOM      3  F   UNL     1       5.684  -0.877  23.873  0.00  0.00    -0.166 F 
ATOM     29  C   UNL     1       4.986   0.135  23.281  0.00  0.00    +0.417 C 
ENDBRANCH  24  29
ENDBRANCH   8  20
BRANCH  10  14
ATOM     14  C   UNL     1      -1.836   2.712  26.235  0.00  0.00    +0.002 C 
ATOM     16  C   UNL     1      -0.334   2.574  26.358  0.00  0.00    +0.004 C 
ENDBRANCH  10  14
BRANCH   9  15
ATOM     15  C   UNL     1      -4.656   3.874  26.206  0.00  0.00    +0.099 C 
BRANCH  15  18
ATOM      5  O   UNL     1      -6.449   2.376  26.832  0.00  0.00    -0.276 OA
ATOM      7  N   UNL     1      -4.781   1.624  25.398  0.00  0.00    -0.311 N 
ATOM     18  C   UNL     1      -5.413   2.564  26.201  0.00  0.00    +0.214 C 
ATOM     33  H   UNL     1      -3.919   1.872  24.922  0.00  0.00    +0.149 HD
BRANCH   7  19
ATOM     19  C   UNL     1      -5.282   0.282  25.210  0.00  0.00    +0.139 C 
BRANCH  19  21
ATOM     21  C   UNL     1      -4.174  -0.705  24.983  0.00  0.00    -0.030 A 
ATOM     25  C   UNL     1      -2.953  -0.546  25.637  0.00  0.00    +0.005 A 
ATOM     26  C   UNL     1      -4.367  -1.783  24.118  0.00  0.00    +0.005 A 
ATOM     30  C   UNL     1      -1.923  -1.464  25.427  0.00  0.00    +0.000 A 
ATOM     31  C   UNL     1      -3.338  -2.701  23.907  0.00  0.00    +0.000 A 
ATOM     32  C   UNL     1      -2.115  -2.541  24.562  0.00  0.00    +0.000 A 
ENDBRANCH  19  21
ENDBRANCH   7  19
ENDBRANCH  15  18
ENDBRANCH   9  15
TORSDOF 7
ENDMDL
