MODEL 1
REMARK VINA RESULT:      -2.5      0.000      0.000
REMARK  Name = 45783375
REMARK  8 active torsions:
REMARK  status: ('A' for Active; 'I' for Inactive)
REMARK    1  A    between atoms: O_2  and  C_27
REMARK    2  A    between atoms: O_2  and  C_28
REMARK    3  A    between atoms: N_3  and  C_9
REMARK    4  A    between atoms: N_6  and  C_25
REMARK    5  A    between atoms: C_8  and  C_9
REMARK    6  A    between atoms: C_10  and  C_19
REMARK    7  A    between atoms: C_20  and  C_21
REMARK    8  A    between atoms: C_25  and  C_27
REMARK                            x       y       z     vdW  Elec       q    Type
REMARK                         _______ _______ _______ _____ _____    ______ ____
ROOT
ATOM      1  O   UNL     1      -4.755  -9.268  12.318  0.00  0.00    -0.336 OA
ATOM      4  N   UNL     1      -6.804 -10.165  12.448  0.00  0.00    -0.190 NA
ATOM      5  N   UNL     1      -5.477  -8.752  11.233  0.00  0.00    -0.056 NA
ATOM     19  C   UNL     1      -5.611 -10.090  12.981  0.00  0.00    +0.245 A 
ATOM     20  C   UNL     1      -6.674  -9.327  11.379  0.00  0.00    +0.205 A 
ENDROOT
BRANCH  20  21
ATOM      6  N   UNL     1      -9.381  -9.719  12.143  0.00  0.00    -0.326 N 
ATOM      7  N   UNL     1     -10.131  -9.055   9.999  0.00  0.00    -0.240 NA
ATOM     21  C   UNL     1      -7.761  -9.087  10.474  0.00  0.00    +0.062 A 
ATOM     22  C   UNL     1      -9.087  -9.273  10.830  0.00  0.00    +0.130 A 
ATOM     23  C   UNL     1      -7.489  -8.648   9.182  0.00  0.00    +0.016 A 
ATOM     24  C   UNL     1      -8.537  -8.414   8.299  0.00  0.00    +0.020 A 
ATOM     26  C   UNL     1      -9.828  -8.630   8.752  0.00  0.00    +0.113 A 
ATOM     29  H   UNL     1      -8.641 -10.227  12.617  0.00  0.00    +0.148 HD
BRANCH   6  25
ATOM     25  C   UNL     1     -10.714  -9.938  12.599  0.00  0.00    +0.131 C 
BRANCH  25  27
ATOM     27  C   UNL     1     -10.719 -10.154  14.103  0.00  0.00    +0.178 C 
BRANCH  27   2
ATOM      2  O   UNL     1      -9.468  -9.751  14.645  0.00  0.00    -0.381 OA
ATOM     28  C   UNL     1      -9.614  -8.659  15.540  0.00  0.00    +0.194 C 
ENDBRANCH  27   2
ENDBRANCH  25  27
ENDBRANCH   6  25
ENDBRANCH  20  21
BRANCH  19  10
ATOM      3  N   UNL     1      -3.820 -10.157  14.707  0.00  0.00    -0.291 NA
ATOM     10  C   UNL     1      -5.063 -10.781  14.212  0.00  0.00    +0.146 C 
ATOM     13  C   UNL     1      -3.789 -10.385  16.151  0.00  0.00    +0.085 C 
ATOM     14  C   UNL     1      -6.032 -10.722  15.408  0.00  0.00    +0.030 C 
ATOM     15  C   UNL     1      -5.226 -10.107  16.542  0.00  0.00    +0.017 C 
BRANCH   3   9
ATOM      9  C   UNL     1      -2.623 -10.662  14.046  0.00  0.00    +0.088 C 
BRANCH   9   8
ATOM      8  C   UNL     1      -2.021  -9.603  13.125  0.00  0.00    +0.003 C 
ATOM     11  C   UNL     1      -0.757  -8.995  13.749  0.00  0.00    +0.005 C 
ATOM     12  C   UNL     1      -1.716 -10.196  11.743  0.00  0.00    +0.005 C 
ATOM     16  C   UNL     1      -0.107  -7.971  12.822  0.00  0.00    +0.000 C 
ATOM     17  C   UNL     1      -1.064  -9.170  10.819  0.00  0.00    +0.000 C 
ATOM     18  C   UNL     1       0.186  -8.563  11.447  0.00  0.00    +0.000 C 
ENDBRANCH   9   8
ENDBRANCH   3   9
ENDBRANCH  19  10
TORSDOF 7
ENDMDL
MODEL 2
REMARK VINA RESULT:      -2.1      1.685      2.358
REMARK  Name = 45783375
REMARK  8 active torsions:
REMARK  status: ('A' for Active; 'I' for Inactive)
REMARK    1  A    between atoms: O_2  and  C_27
REMARK    2  A    between atoms: O_2  and  C_28
REMARK    3  A    between atoms: N_3  and  C_9
REMARK    4  A    between atoms: N_6  and  C_25
REMARK    5  A    between atoms: C_8  and  C_9
REMARK    6  A    between atoms: C_10  and  C_19
REMARK    7  A    between atoms: C_20  and  C_21
REMARK    8  A    between atoms: C_25  and  C_27
REMARK                            x       y       z     vdW  Elec       q    Type
REMARK                         _______ _______ _______ _____ _____    ______ ____
ROOT
ATOM      1  O   UNL     1      -3.874  -8.883   9.939  0.00  0.00    -0.336 OA
ATOM      4  N   UNL     1      -5.915  -9.358  10.730  0.00  0.00    -0.190 NA
ATOM      5  N   UNL     1      -4.774  -8.134   9.170  0.00  0.00    -0.056 NA
ATOM     19  C   UNL     1      -4.628  -9.575  10.834  0.00  0.00    +0.245 A 
ATOM     20  C   UNL     1      -5.956  -8.469   9.697  0.00  0.00    +0.205 A 
ENDROOT
BRANCH  20  21
ATOM      6  N   UNL     1      -8.409  -9.876   9.963  0.00  0.00    -0.326 N 
ATOM      7  N   UNL     1      -9.584  -8.125   8.889  0.00  0.00    -0.240 NA
ATOM     21  C   UNL     1      -7.196  -7.932   9.213  0.00  0.00    +0.062 A 
ATOM     22  C   UNL     1      -8.401  -8.605   9.335  0.00  0.00    +0.130 A 
ATOM     23  C   UNL     1      -7.205  -6.686   8.595  0.00  0.00    +0.016 A 
ATOM     24  C   UNL     1      -8.403  -6.160   8.124  0.00  0.00    +0.020 A 
ATOM     26  C   UNL     1      -9.554  -6.912   8.293  0.00  0.00    +0.113 A 
ATOM     29  H   UNL     1      -7.531 -10.384   9.950  0.00  0.00    +0.148 HD
BRANCH   6  25
ATOM     25  C   UNL     1      -9.599 -10.642  10.134  0.00  0.00    +0.131 C 
BRANCH  25  27
ATOM     27  C   UNL     1     -10.067 -10.560  11.577  0.00  0.00    +0.178 C 
BRANCH  27   2
ATOM      2  O   UNL     1      -9.238  -9.655  12.294  0.00  0.00    -0.381 OA
ATOM     28  C   UNL     1      -9.478  -9.724  13.692  0.00  0.00    +0.194 C 
ENDBRANCH  27   2
ENDBRANCH  25  27
ENDBRANCH   6  25
ENDBRANCH  20  21
BRANCH  19  10
ATOM      3  N   UNL     1      -2.626  -9.863  12.282  0.00  0.00    -0.291 NA
ATOM     10  C   UNL     1      -3.879 -10.473  11.795  0.00  0.00    +0.146 C 
ATOM     13  C   UNL     1      -2.391 -10.410  13.618  0.00  0.00    +0.085 C 
ATOM     14  C   UNL     1      -4.685 -10.781  13.071  0.00  0.00    +0.030 C 
ATOM     15  C   UNL     1      -3.780 -10.367  14.222  0.00  0.00    +0.017 C 
BRANCH   3   9
ATOM      9  C   UNL     1      -1.495 -10.088  11.391  0.00  0.00    +0.088 C 
BRANCH   9   8
ATOM      8  C   UNL     1      -0.599  -8.852  11.327  0.00  0.00    +0.003 C 
ATOM     11  C   UNL     1      -0.550  -8.145  12.688  0.00  0.00    +0.005 C 
ATOM     12  C   UNL     1       0.812  -9.230  10.857  0.00  0.00    +0.005 C 
ATOM     16  C   UNL     1       0.383  -6.937  12.663  0.00  0.00    +0.000 C 
ATOM     17  C   UNL     1       1.743  -8.020  10.835  0.00  0.00    +0.000 C 
ATOM     18  C   UNL     1       1.782  -7.316  12.188  0.00  0.00    +0.000 C 
ENDBRANCH   9   8
ENDBRANCH   3   9
ENDBRANCH  19  10
TORSDOF 7
ENDMDL
MODEL 3
REMARK VINA RESULT:      -1.8     14.330     17.272
REMARK  Name = 45783375
REMARK  8 active torsions:
REMARK  status: ('A' for Active; 'I' for Inactive)
REMARK    1  A    between atoms: O_2  and  C_27
REMARK    2  A    between atoms: O_2  and  C_28
REMARK    3  A    between atoms: N_3  and  C_9
REMARK    4  A    between atoms: N_6  and  C_25
REMARK    5  A    between atoms: C_8  and  C_9
REMARK    6  A    between atoms: C_10  and  C_19
REMARK    7  A    between atoms: C_20  and  C_21
REMARK    8  A    between atoms: C_25  and  C_27
REMARK                            x       y       z     vdW  Elec       q    Type
REMARK                         _______ _______ _______ _____ _____    ______ ____
ROOT
ATOM      1  O   UNL     1      -0.771  -2.663  25.377  0.00  0.00    -0.336 OA
ATOM      4  N   UNL     1      -1.143  -0.870  24.088  0.00  0.00    -0.190 NA
ATOM      5  N   UNL     1       0.489  -2.126  25.084  0.00  0.00    -0.056 NA
ATOM     19  C   UNL     1      -1.675  -1.864  24.753  0.00  0.00    +0.245 A 
ATOM     20  C   UNL     1       0.186  -1.072  24.320  0.00  0.00    +0.205 A 
ENDROOT
BRANCH  20  21
ATOM      6  N   UNL     1       0.151   1.732  24.776  0.00  0.00    -0.326 N 
ATOM      7  N   UNL     1       2.114   2.013  23.485  0.00  0.00    -0.240 NA
ATOM     21  C   UNL     1       1.187  -0.201  23.774  0.00  0.00    +0.062 A 
ATOM     22  C   UNL     1       1.185   1.168  23.986  0.00  0.00    +0.130 A 
ATOM     23  C   UNL     1       2.209  -0.739  22.998  0.00  0.00    +0.016 A 
ATOM     24  C   UNL     1       3.183   0.099  22.465  0.00  0.00    +0.020 A 
ATOM     26  C   UNL     1       3.091   1.455  22.735  0.00  0.00    +0.113 A 
ATOM     29  H   UNL     1      -0.711   1.198  24.827  0.00  0.00    +0.148 HD
BRANCH   6  25
ATOM     25  C   UNL     1       0.067   3.129  25.048  0.00  0.00    +0.131 C 
BRANCH  25  27
ATOM     27  C   UNL     1      -1.115   3.410  25.961  0.00  0.00    +0.178 C 
BRANCH  27   2
ATOM      2  O   UNL     1      -1.664   4.683  25.648  0.00  0.00    -0.381 OA
ATOM     28  C   UNL     1      -0.877   5.367  24.682  0.00  0.00    +0.194 C 
ENDBRANCH  27   2
ENDBRANCH  25  27
ENDBRANCH   6  25
ENDBRANCH  20  21
BRANCH  19  10
ATOM      3  N   UNL     1      -4.047  -1.167  24.473  0.00  0.00    -0.291 NA
ATOM     10  C   UNL     1      -3.133  -2.238  24.918  0.00  0.00    +0.146 C 
ATOM     13  C   UNL     1      -5.269  -1.829  24.015  0.00  0.00    +0.085 C 
ATOM     14  C   UNL     1      -3.531  -3.465  24.077  0.00  0.00    +0.030 C 
ATOM     15  C   UNL     1      -4.714  -3.005  23.237  0.00  0.00    +0.017 C 
BRANCH   3   9
ATOM      9  C   UNL     1      -4.316  -0.177  25.508  0.00  0.00    +0.088 C 
BRANCH   9   8
ATOM      8  C   UNL     1      -3.880   1.216  25.055  0.00  0.00    +0.003 C 
ATOM     11  C   UNL     1      -3.477   1.204  23.574  0.00  0.00    +0.005 C 
ATOM     12  C   UNL     1      -4.993   2.242  25.310  0.00  0.00    +0.005 C 
ATOM     16  C   UNL     1      -3.089   2.596  23.084  0.00  0.00    +0.000 C 
ATOM     17  C   UNL     1      -4.602   3.633  24.817  0.00  0.00    +0.000 C 
ATOM     18  C   UNL     1      -4.194   3.614  23.347  0.00  0.00    +0.000 C 
ENDBRANCH   9   8
ENDBRANCH   3   9
ENDBRANCH  19  10
TORSDOF 7
ENDMDL
MODEL 4
REMARK VINA RESULT:      -1.6     14.953     17.606
REMARK  Name = 45783375
REMARK  8 active torsions:
REMARK  status: ('A' for Active; 'I' for Inactive)
REMARK    1  A    between atoms: O_2  and  C_27
REMARK    2  A    between atoms: O_2  and  C_28
REMARK    3  A    between atoms: N_3  and  C_9
REMARK    4  A    between atoms: N_6  and  C_25
REMARK    5  A    between atoms: C_8  and  C_9
REMARK    6  A    between atoms: C_10  and  C_19
REMARK    7  A    between atoms: C_20  and  C_21
REMARK    8  A    between atoms: C_25  and  C_27
REMARK                            x       y       z     vdW  Elec       q    Type
REMARK                         _______ _______ _______ _____ _____    ______ ____
ROOT
ATOM      1  O   UNL     1      -4.045   2.206  23.834  0.00  0.00    -0.336 OA
ATOM      4  N   UNL     1      -4.153   0.640  25.432  0.00  0.00    -0.190 NA
ATOM      5  N   UNL     1      -3.483   1.046  23.283  0.00  0.00    -0.056 NA
ATOM     19  C   UNL     1      -4.413   1.879  25.101  0.00  0.00    +0.245 A 
ATOM     20  C   UNL     1      -3.583   0.169  24.285  0.00  0.00    +0.205 A 
ENDROOT
BRANCH  20  21
ATOM      6  N   UNL     1      -0.825  -0.468  24.059  0.00  0.00    -0.326 N 
ATOM      7  N   UNL     1      -1.319  -2.780  23.956  0.00  0.00    -0.240 NA
ATOM     21  C   UNL     1      -3.123  -1.186  24.174  0.00  0.00    +0.062 A 
ATOM     22  C   UNL     1      -1.782  -1.514  24.063  0.00  0.00    +0.130 A 
ATOM     23  C   UNL     1      -4.050  -2.223  24.177  0.00  0.00    +0.016 A 
ATOM     24  C   UNL     1      -3.612  -3.539  24.070  0.00  0.00    +0.020 A 
ATOM     26  C   UNL     1      -2.248  -3.762  23.962  0.00  0.00    +0.113 A 
ATOM     29  H   UNL     1      -1.162   0.442  23.763  0.00  0.00    +0.148 HD
BRANCH   6  25
ATOM     25  C   UNL     1       0.576  -0.709  23.948  0.00  0.00    +0.131 C 
BRANCH  25  27
ATOM     27  C   UNL     1       1.149   0.079  22.783  0.00  0.00    +0.178 C 
BRANCH  27   2
ATOM      2  O   UNL     1       2.511  -0.281  22.590  0.00  0.00    -0.381 OA
ATOM     28  C   UNL     1       3.374   0.836  22.748  0.00  0.00    +0.194 C 
ENDBRANCH  27   2
ENDBRANCH  25  27
ENDBRANCH   6  25
ENDBRANCH  20  21
BRANCH  19  10
ATOM      3  N   UNL     1      -4.276   4.232  25.898  0.00  0.00    -0.291 NA
ATOM     10  C   UNL     1      -5.056   2.978  25.920  0.00  0.00    +0.146 C 
ATOM     13  C   UNL     1      -5.238   5.321  26.066  0.00  0.00    +0.085 C 
ATOM     14  C   UNL     1      -6.448   3.375  25.394  0.00  0.00    +0.030 C 
ATOM     15  C   UNL     1      -6.372   4.878  25.164  0.00  0.00    +0.017 C 
BRANCH   3   9
ATOM      9  C   UNL     1      -3.224   4.270  26.906  0.00  0.00    +0.088 C 
BRANCH   9   8
ATOM      8  C   UNL     1      -1.844   4.179  26.257  0.00  0.00    +0.003 C 
ATOM     11  C   UNL     1      -1.382   2.719  26.166  0.00  0.00    +0.005 C 
ATOM     12  C   UNL     1      -1.853   4.837  24.871  0.00  0.00    +0.005 C 
ATOM     16  C   UNL     1      -0.027   2.599  25.471  0.00  0.00    +0.000 C 
ATOM     17  C   UNL     1      -0.498   4.713  24.178  0.00  0.00    +0.000 C 
ATOM     18  C   UNL     1      -0.039   3.261  24.097  0.00  0.00    +0.000 C 
ENDBRANCH   9   8
ENDBRANCH   3   9
ENDBRANCH  19  10
TORSDOF 7
ENDMDL
MODEL 5
REMARK VINA RESULT:      -1.0     14.626     17.628
REMARK  Name = 45783375
REMARK  8 active torsions:
REMARK  status: ('A' for Active; 'I' for Inactive)
REMARK    1  A    between atoms: O_2  and  C_27
REMARK    2  A    between atoms: O_2  and  C_28
REMARK    3  A    between atoms: N_3  and  C_9
REMARK    4  A    between atoms: N_6  and  C_25
REMARK    5  A    between atoms: C_8  and  C_9
REMARK    6  A    between atoms: C_10  and  C_19
REMARK    7  A    between atoms: C_20  and  C_21
REMARK    8  A    between atoms: C_25  and  C_27
REMARK                            x       y       z     vdW  Elec       q    Type
REMARK                         _______ _______ _______ _____ _____    ______ ____
ROOT
ATOM      1  O   UNL     1      -0.594   3.471  25.672  0.00  0.00    -0.336 OA
ATOM      4  N   UNL     1      -0.918   2.260  23.815  0.00  0.00    -0.190 NA
ATOM      5  N   UNL     1       0.626   2.838  25.401  0.00  0.00    -0.056 NA
ATOM     19  C   UNL     1      -1.448   3.077  24.690  0.00  0.00    +0.245 A 
ATOM     20  C   UNL     1       0.354   2.143  24.293  0.00  0.00    +0.205 A 
ENDROOT
BRANCH  20  21
ATOM      6  N   UNL     1      -0.159  -0.573  23.639  0.00  0.00    -0.326 N 
ATOM      7  N   UNL     1       1.999  -0.803  22.696  0.00  0.00    -0.240 NA
ATOM     21  C   UNL     1       1.332   1.321  23.639  0.00  0.00    +0.062 A 
ATOM     22  C   UNL     1       1.098  -0.005  23.312  0.00  0.00    +0.130 A 
ATOM     23  C   UNL     1       2.570   1.864  23.311  0.00  0.00    +0.016 A 
ATOM     24  C   UNL     1       3.523   1.074  22.677  0.00  0.00    +0.020 A 
ATOM     26  C   UNL     1       3.191  -0.242  22.394  0.00  0.00    +0.113 A 
ATOM     29  H   UNL     1      -0.664  -0.130  24.399  0.00  0.00    +0.148 HD
BRANCH   6  25
ATOM     25  C   UNL     1      -0.491  -1.928  23.342  0.00  0.00    +0.131 C 
BRANCH  25  27
ATOM     27  C   UNL     1      -0.782  -2.685  24.627  0.00  0.00    +0.178 C 
BRANCH  27   2
ATOM      2  O   UNL     1      -0.012  -2.133  25.687  0.00  0.00    -0.381 OA
ATOM     28  C   UNL     1      -0.673  -1.031  26.293  0.00  0.00    +0.194 C 
ENDBRANCH  27   2
ENDBRANCH  25  27
ENDBRANCH   6  25
ENDBRANCH  20  21
BRANCH  19  10
ATOM      3  N   UNL     1      -3.844   2.621  25.178  0.00  0.00    -0.291 NA
ATOM     10  C   UNL     1      -2.855   3.632  24.757  0.00  0.00    +0.146 C 
ATOM     13  C   UNL     1      -4.913   3.348  25.864  0.00  0.00    +0.085 C 
ATOM     14  C   UNL     1      -2.997   4.769  25.786  0.00  0.00    +0.030 C 
ATOM     15  C   UNL     1      -4.129   4.335  26.705  0.00  0.00    +0.017 C 
BRANCH   3   9
ATOM      9  C   UNL     1      -4.350   1.819  24.071  0.00  0.00    +0.088 C 
BRANCH   9   8
ATOM      8  C   UNL     1      -4.554   0.366  24.500  0.00  0.00    +0.003 C 
ATOM     11  C   UNL     1      -4.210  -0.592  23.351  0.00  0.00    +0.005 C 
ATOM     12  C   UNL     1      -3.719   0.047  25.747  0.00  0.00    +0.005 C 
ATOM     16  C   UNL     1      -4.354  -2.052  23.773  0.00  0.00    +0.000 C 
ATOM     17  C   UNL     1      -3.864  -1.414  26.164  0.00  0.00    +0.000 C 
ATOM     18  C   UNL     1      -3.529  -2.363  25.018  0.00  0.00    +0.000 C 
ENDBRANCH   9   8
ENDBRANCH   3   9
ENDBRANCH  19  10
TORSDOF 7
ENDMDL
MODEL 6
REMARK VINA RESULT:      -0.3     14.822     17.290
REMARK  Name = 45783375
REMARK  8 active torsions:
REMARK  status: ('A' for Active; 'I' for Inactive)
REMARK    1  A    between atoms: O_2  and  C_27
REMARK    2  A    between atoms: O_2  and  C_28
REMARK    3  A    between atoms: N_3  and  C_9
REMARK    4  A    between atoms: N_6  and  C_25
REMARK    5  A    between atoms: C_8  and  C_9
REMARK    6  A    between atoms: C_10  and  C_19
REMARK    7  A    between atoms: C_20  and  C_21
REMARK    8  A    between atoms: C_25  and  C_27
REMARK                            x       y       z     vdW  Elec       q    Type
REMARK                         _______ _______ _______ _____ _____    ______ ____
ROOT
ATOM      1  O   UNL     1      -1.689   0.561  22.813  0.00  0.00    -0.336 OA
ATOM      4  N   UNL     1      -1.855   1.448  24.863  0.00  0.00    -0.190 NA
ATOM      5  N   UNL     1      -3.001   1.039  22.926  0.00  0.00    -0.056 NA
ATOM     19  C   UNL     1      -1.083   0.843  23.997  0.00  0.00    +0.245 A 
ATOM     20  C   UNL     1      -3.021   1.546  24.162  0.00  0.00    +0.205 A 
ENDROOT
BRANCH  20  21
ATOM      6  N   UNL     1      -2.982   4.192  25.195  0.00  0.00    -0.326 N 
ATOM      7  N   UNL     1      -5.273   4.050  25.771  0.00  0.00    -0.240 NA
ATOM     21  C   UNL     1      -4.190   2.159  24.726  0.00  0.00    +0.062 A 
ATOM     22  C   UNL     1      -4.189   3.448  25.234  0.00  0.00    +0.130 A 
ATOM     23  C   UNL     1      -5.381   1.442  24.770  0.00  0.00    +0.016 A 
ATOM     24  C   UNL     1      -6.518   2.029  25.315  0.00  0.00    +0.020 A 
ATOM     26  C   UNL     1      -6.412   3.323  25.798  0.00  0.00    +0.113 A 
ATOM     29  H   UNL     1      -2.125   3.649  25.157  0.00  0.00    +0.148 HD
BRANCH   6  25
ATOM     25  C   UNL     1      -2.885   5.524  25.694  0.00  0.00    +0.131 C 
BRANCH  25  27
ATOM     27  C   UNL     1      -1.661   6.209  25.110  0.00  0.00    +0.178 C 
BRANCH  27   2
ATOM      2  O   UNL     1      -0.564   5.305  25.116  0.00  0.00    -0.381 OA
ATOM     28  C   UNL     1      -0.418   4.654  23.862  0.00  0.00    +0.194 C 
ENDBRANCH  27   2
ENDBRANCH  25  27
ENDBRANCH   6  25
ENDBRANCH  20  21
BRANCH  19  10
ATOM      3  N   UNL     1       0.551  -1.032  23.950  0.00  0.00    -0.291 NA
ATOM     10  C   UNL     1       0.365   0.421  24.130  0.00  0.00    +0.146 C 
ATOM     13  C   UNL     1       1.897  -1.213  23.406  0.00  0.00    +0.085 C 
ATOM     14  C   UNL     1       1.272   1.066  23.064  0.00  0.00    +0.030 C 
ATOM     15  C   UNL     1       1.972  -0.100  22.381  0.00  0.00    +0.017 C 
BRANCH   3   9
ATOM      9  C   UNL     1       0.350  -1.792  25.178  0.00  0.00    +0.088 C 
BRANCH   9   8
ATOM      8  C   UNL     1      -1.106  -2.236  25.311  0.00  0.00    +0.003 C 
ATOM     11  C   UNL     1      -1.921  -1.195  26.090  0.00  0.00    +0.005 C 
ATOM     12  C   UNL     1      -1.723  -2.491  23.929  0.00  0.00    +0.005 C 
ATOM     16  C   UNL     1      -3.392  -1.591  26.190  0.00  0.00    +0.000 C 
ATOM     17  C   UNL     1      -3.194  -2.885  24.033  0.00  0.00    +0.000 C 
ATOM     18  C   UNL     1      -3.999  -1.852  24.815  0.00  0.00    +0.000 C 
ENDBRANCH   9   8
ENDBRANCH   3   9
ENDBRANCH  19  10
TORSDOF 7
ENDMDL
MODEL 7
REMARK VINA RESULT:      -0.3     14.921     17.757
REMARK  Name = 45783375
REMARK  8 active torsions:
REMARK  status: ('A' for Active; 'I' for Inactive)
REMARK    1  A    between atoms: O_2  and  C_27
REMARK    2  A    between atoms: O_2  and  C_28
REMARK    3  A    between atoms: N_3  and  C_9
REMARK    4  A    between atoms: N_6  and  C_25
REMARK    5  A    between atoms: C_8  and  C_9
REMARK    6  A    between atoms: C_10  and  C_19
REMARK    7  A    between atoms: C_20  and  C_21
REMARK    8  A    between atoms: C_25  and  C_27
REMARK                            x       y       z     vdW  Elec       q    Type
REMARK                         _______ _______ _______ _____ _____    ______ ____
ROOT
ATOM      1  O   UNL     1      -3.359   2.244  22.124  0.00  0.00    -0.336 OA
ATOM      4  N   UNL     1      -2.315   1.631  24.008  0.00  0.00    -0.190 NA
ATOM      5  N   UNL     1      -2.054   1.897  21.752  0.00  0.00    -0.056 NA
ATOM     19  C   UNL     1      -3.428   2.058  23.469  0.00  0.00    +0.245 A 
ATOM     20  C   UNL     1      -1.501   1.547  22.917  0.00  0.00    +0.205 A 
ENDROOT
BRANCH  20  21
ATOM      6  N   UNL     1       0.228   2.502  24.957  0.00  0.00    -0.326 N 
ATOM      7  N   UNL     1       2.005   1.171  24.139  0.00  0.00    -0.240 NA
ATOM     21  C   UNL     1      -0.139   1.109  23.024  0.00  0.00    +0.062 A 
ATOM     22  C   UNL     1       0.718   1.565  24.013  0.00  0.00    +0.130 A 
ATOM     23  C   UNL     1       0.356   0.188  22.106  0.00  0.00    +0.016 A 
ATOM     24  C   UNL     1       1.675  -0.240  22.204  0.00  0.00    +0.020 A 
ATOM     26  C   UNL     1       2.452   0.276  23.229  0.00  0.00    +0.113 A 
ATOM     29  H   UNL     1      -0.563   3.063  24.658  0.00  0.00    +0.148 HD
BRANCH   6  25
ATOM     25  C   UNL     1       1.036   3.027  26.008  0.00  0.00    +0.131 C 
BRANCH  25  27
ATOM     27  C   UNL     1       0.630   2.407  27.334  0.00  0.00    +0.178 C 
BRANCH  27   2
ATOM      2  O   UNL     1       1.680   2.575  28.278  0.00  0.00    -0.381 OA
ATOM     28  C   UNL     1       1.211   2.438  29.611  0.00  0.00    +0.194 C 
ENDBRANCH  27   2
ENDBRANCH  25  27
ENDBRANCH   6  25
ENDBRANCH  20  21
BRANCH  19  10
ATOM      3  N   UNL     1      -4.978   1.586  25.357  0.00  0.00    -0.291 NA
ATOM     10  C   UNL     1      -4.757   2.369  24.125  0.00  0.00    +0.146 C 
ATOM     13  C   UNL     1      -5.830   2.404  26.220  0.00  0.00    +0.085 C 
ATOM     14  C   UNL     1      -4.870   3.839  24.571  0.00  0.00    +0.030 C 
ATOM     15  C   UNL     1      -5.217   3.779  26.052  0.00  0.00    +0.017 C 
BRANCH   3   9
ATOM      9  C   UNL     1      -5.554   0.271  25.104  0.00  0.00    +0.088 C 
BRANCH   9   8
ATOM      8  C   UNL     1      -4.507  -0.827  25.285  0.00  0.00    +0.003 C 
ATOM     11  C   UNL     1      -4.263  -1.568  23.964  0.00  0.00    +0.005 C 
ATOM     12  C   UNL     1      -3.198  -0.242  25.833  0.00  0.00    +0.005 C 
ATOM     16  C   UNL     1      -3.181  -2.635  24.107  0.00  0.00    +0.000 C 
ATOM     17  C   UNL     1      -2.117  -1.311  25.973  0.00  0.00    +0.000 C 
ATOM     18  C   UNL     1      -1.884  -2.051  24.659  0.00  0.00    +0.000 C 
ENDBRANCH   9   8
ENDBRANCH   3   9
ENDBRANCH  19  10
TORSDOF 7
ENDMDL
MODEL 8
REMARK VINA RESULT:      -0.2     14.755     17.710
REMARK  Name = 45783375
REMARK  8 active torsions:
REMARK  status: ('A' for Active; 'I' for Inactive)
REMARK    1  A    between atoms: O_2  and  C_27
REMARK    2  A    between atoms: O_2  and  C_28
REMARK    3  A    between atoms: N_3  and  C_9
REMARK    4  A    between atoms: N_6  and  C_25
REMARK    5  A    between atoms: C_8  and  C_9
REMARK    6  A    between atoms: C_10  and  C_19
REMARK    7  A    between atoms: C_20  and  C_21
REMARK    8  A    between atoms: C_25  and  C_27
REMARK                            x       y       z     vdW  Elec       q    Type
REMARK                         _______ _______ _______ _____ _____    ______ ____
ROOT
ATOM      1  O   UNL     1      -1.863   2.001  22.611  0.00  0.00    -0.336 OA
ATOM      4  N   UNL     1      -1.610   1.168  24.675  0.00  0.00    -0.190 NA
ATOM      5  N   UNL     1      -0.890   0.998  22.510  0.00  0.00    -0.056 NA
ATOM     19  C   UNL     1      -2.234   2.035  23.918  0.00  0.00    +0.245 A 
ATOM     20  C   UNL     1      -0.796   0.555  23.767  0.00  0.00    +0.205 A 
ENDROOT
BRANCH  20  21
ATOM      6  N   UNL     1       1.808   0.323  22.659  0.00  0.00    -0.326 N 
ATOM      7  N   UNL     1       2.240  -1.606  23.959  0.00  0.00    -0.240 NA
ATOM     21  C   UNL     1       0.100  -0.497  24.150  0.00  0.00    +0.062 A 
ATOM     22  C   UNL     1       1.374  -0.626  23.619  0.00  0.00    +0.130 A 
ATOM     23  C   UNL     1      -0.310  -1.435  25.091  0.00  0.00    +0.016 A 
ATOM     24  C   UNL     1       0.553  -2.459  25.466  0.00  0.00    +0.020 A 
ATOM     26  C   UNL     1       1.806  -2.500  24.876  0.00  0.00    +0.113 A 
ATOM     29  H   UNL     1       1.077   0.799  22.141  0.00  0.00    +0.148 HD
BRANCH   6  25
ATOM     25  C   UNL     1       3.101   0.272  22.059  0.00  0.00    +0.131 C 
BRANCH  25  27
ATOM     27  C   UNL     1       4.116   0.963  22.953  0.00  0.00    +0.178 C 
BRANCH  27   2
ATOM      2  O   UNL     1       5.315   0.199  22.986  0.00  0.00    -0.381 OA
ATOM     28  C   UNL     1       5.488  -0.445  24.240  0.00  0.00    +0.194 C 
ENDBRANCH  27   2
ENDBRANCH  25  27
ENDBRANCH   6  25
ENDBRANCH  20  21
BRANCH  19  10
ATOM      3  N   UNL     1      -4.208   2.557  25.339  0.00  0.00    -0.291 NA
ATOM     10  C   UNL     1      -3.291   3.052  24.293  0.00  0.00    +0.146 C 
ATOM     13  C   UNL     1      -4.661   3.733  26.083  0.00  0.00    +0.085 C 
ATOM     14  C   UNL     1      -2.692   4.344  24.879  0.00  0.00    +0.030 C 
ATOM     15  C   UNL     1      -3.378   4.525  26.226  0.00  0.00    +0.017 C 
BRANCH   3   9
ATOM      9  C   UNL     1      -5.323   1.784  24.804  0.00  0.00    +0.088 C 
BRANCH   9   8
ATOM      8  C   UNL     1      -5.070   0.285  24.960  0.00  0.00    +0.003 C 
ATOM     11  C   UNL     1      -4.602  -0.327  23.634  0.00  0.00    +0.005 C 
ATOM     12  C   UNL     1      -4.048   0.021  26.075  0.00  0.00    +0.005 C 
ATOM     16  C   UNL     1      -4.291  -1.815  23.778  0.00  0.00    +0.000 C 
ATOM     17  C   UNL     1      -3.738  -1.467  26.215  0.00  0.00    +0.000 C 
ATOM     18  C   UNL     1      -3.282  -2.074  24.892  0.00  0.00    +0.000 C 
ENDBRANCH   9   8
ENDBRANCH   3   9
ENDBRANCH  19  10
TORSDOF 7
ENDMDL
MODEL 9
REMARK VINA RESULT:       0.4     14.959     17.383
REMARK  Name = 45783375
REMARK  8 active torsions:
REMARK  status: ('A' for Active; 'I' for Inactive)
REMARK    1  A    between atoms: O_2  and  C_27
REMARK    2  A    between atoms: O_2  and  C_28
REMARK    3  A    between atoms: N_3  and  C_9
REMARK    4  A    between atoms: N_6  and  C_25
REMARK    5  A    between atoms: C_8  and  C_9
REMARK    6  A    between atoms: C_10  and  C_19
REMARK    7  A    between atoms: C_20  and  C_21
REMARK    8  A    between atoms: C_25  and  C_27
REMARK                            x       y       z     vdW  Elec       q    Type
REMARK                         _______ _______ _______ _____ _____    ______ ____
ROOT
ATOM      1  O   UNL     1       1.068   1.969  25.784  0.00  0.00    -0.336 OA
ATOM      4  N   UNL     1      -0.263   2.134  23.991  0.00  0.00    -0.190 NA
ATOM      5  N   UNL     1       0.101   2.932  26.103  0.00  0.00    -0.056 NA
ATOM     19  C   UNL     1       0.780   1.551  24.524  0.00  0.00    +0.245 A 
ATOM     20  C   UNL     1      -0.646   2.973  24.996  0.00  0.00    +0.205 A 
ENDROOT
BRANCH  20  21
ATOM      6  N   UNL     1      -3.172   2.019  24.117  0.00  0.00    -0.326 N 
ATOM      7  N   UNL     1      -4.106   4.185  24.300  0.00  0.00    -0.240 NA
ATOM     21  C   UNL     1      -1.781   3.840  24.863  0.00  0.00    +0.062 A 
ATOM     22  C   UNL     1      -3.020   3.392  24.436  0.00  0.00    +0.130 A 
ATOM     23  C   UNL     1      -1.648   5.190  25.173  0.00  0.00    +0.016 A 
ATOM     24  C   UNL     1      -2.743   6.037  25.046  0.00  0.00    +0.020 A 
ATOM     26  C   UNL     1      -3.940   5.490  24.609  0.00  0.00    +0.113 A 
ATOM     29  H   UNL     1      -2.325   1.525  23.856  0.00  0.00    +0.148 HD
BRANCH   6  25
ATOM     25  C   UNL     1      -4.408   1.466  23.670  0.00  0.00    +0.131 C 
BRANCH  25  27
ATOM     27  C   UNL     1      -5.209   0.955  24.856  0.00  0.00    +0.178 C 
BRANCH  27   2
ATOM      2  O   UNL     1      -6.295   1.837  25.110  0.00  0.00    -0.381 OA
ATOM     28  C   UNL     1      -6.262   2.336  26.439  0.00  0.00    +0.194 C 
ENDBRANCH  27   2
ENDBRANCH  25  27
ENDBRANCH   6  25
ENDBRANCH  20  21
BRANCH  19  10
ATOM      3  N   UNL     1       0.960  -0.510  23.142  0.00  0.00    -0.291 NA
ATOM     10  C   UNL     1       1.693   0.493  23.940  0.00  0.00    +0.146 C 
ATOM     13  C   UNL     1       1.893  -0.988  22.120  0.00  0.00    +0.085 C 
ATOM     14  C   UNL     1       2.736   1.079  22.968  0.00  0.00    +0.030 C 
ATOM     15  C   UNL     1       2.554   0.300  21.674  0.00  0.00    +0.017 C 
BRANCH   3   9
ATOM      9  C   UNL     1       0.423  -1.600  23.946  0.00  0.00    +0.088 C 
BRANCH   9   8
ATOM      8  C   UNL     1      -1.047  -1.356  24.282  0.00  0.00    +0.003 C 
ATOM     11  C   UNL     1      -1.890  -2.598  23.964  0.00  0.00    +0.005 C 
ATOM     12  C   UNL     1      -1.207  -0.948  25.753  0.00  0.00    +0.005 C 
ATOM     16  C   UNL     1      -3.356  -2.396  24.342  0.00  0.00    +0.000 C 
ATOM     17  C   UNL     1      -2.674  -0.749  26.128  0.00  0.00    +0.000 C 
ATOM     18  C   UNL     1      -3.509  -1.983  25.802  0.00  0.00    +0.000 C 
ENDBRANCH   9   8
ENDBRANCH   3   9
ENDBRANCH  19  10
TORSDOF 7
ENDMDL
MODEL 10
REMARK VINA RESULT:       0.4     15.082     16.919
REMARK  Name = 45783375
REMARK  8 active torsions:
REMARK  status: ('A' for Active; 'I' for Inactive)
REMARK    1  A    between atoms: O_2  and  C_27
REMARK    2  A    between atoms: O_2  and  C_28
REMARK    3  A    between atoms: N_3  and  C_9
REMARK    4  A    between atoms: N_6  and  C_25
REMARK    5  A    between atoms: C_8  and  C_9
REMARK    6  A    between atoms: C_10  and  C_19
REMARK    7  A    between atoms: C_20  and  C_21
REMARK    8  A    between atoms: C_25  and  C_27
REMARK                            x       y       z     vdW  Elec       q    Type
REMARK                         _______ _______ _______ _____ _____    ______ ____
ROOT
ATOM      1  O   UNL     1      -3.686  -1.359  23.828  0.00  0.00    -0.336 OA
ATOM      4  N   UNL     1      -2.590   0.396  24.684  0.00  0.00    -0.190 NA
ATOM      5  N   UNL     1      -4.650  -0.367  24.048  0.00  0.00    -0.056 NA
ATOM     19  C   UNL     1      -2.501  -0.827  24.228  0.00  0.00    +0.245 A 
ATOM     20  C   UNL     1      -3.926   0.636  24.554  0.00  0.00    +0.205 A 
ENDROOT
BRANCH  20  21
ATOM      6  N   UNL     1      -2.437   3.054  24.533  0.00  0.00    -0.326 N 
ATOM      7  N   UNL     1      -4.316   4.274  25.293  0.00  0.00    -0.240 NA
ATOM     21  C   UNL     1      -4.508   1.890  24.940  0.00  0.00    +0.062 A 
ATOM     22  C   UNL     1      -3.796   3.079  24.935  0.00  0.00    +0.130 A 
ATOM     23  C   UNL     1      -5.841   1.930  25.336  0.00  0.00    +0.016 A 
ATOM     24  C   UNL     1      -6.411   3.142  25.711  0.00  0.00    +0.020 A 
ATOM     26  C   UNL     1      -5.614   4.274  25.673  0.00  0.00    +0.113 A 
ATOM     29  H   UNL     1      -1.959   2.164  24.632  0.00  0.00    +0.148 HD
BRANCH   6  25
ATOM     25  C   UNL     1      -1.625   4.226  24.497  0.00  0.00    +0.131 C 
BRANCH  25  27
ATOM     27  C   UNL     1      -0.178   3.865  24.783  0.00  0.00    +0.178 C 
BRANCH  27   2
ATOM      2  O   UNL     1      -0.098   2.501  25.177  0.00  0.00    -0.381 OA
ATOM     28  C   UNL     1       0.185   2.373  26.563  0.00  0.00    +0.194 C 
ENDBRANCH  27   2
ENDBRANCH  25  27
ENDBRANCH   6  25
ENDBRANCH  20  21
BRANCH  19  10
ATOM      3  N   UNL     1      -0.031  -1.020  24.448  0.00  0.00    -0.291 NA
ATOM     10  C   UNL     1      -1.283  -1.715  24.089  0.00  0.00    +0.146 C 
ATOM     13  C   UNL     1       0.882  -2.045  24.953  0.00  0.00    +0.085 C 
ATOM     14  C   UNL     1      -1.330  -2.940  25.022  0.00  0.00    +0.030 C 
ATOM     15  C   UNL     1      -0.036  -2.881  25.821  0.00  0.00    +0.017 C 
BRANCH   3   9
ATOM      9  C   UNL     1       0.547  -0.271  23.339  0.00  0.00    +0.088 C 
BRANCH   9   8
ATOM      8  C   UNL     1       2.018   0.044  23.602  0.00  0.00    +0.003 C 
ATOM     11  C   UNL     1       2.880  -1.216  23.442  0.00  0.00    +0.005 C 
ATOM     12  C   UNL     1       2.508   1.163  22.672  0.00  0.00    +0.005 C 
ATOM     16  C   UNL     1       4.362  -0.915  23.648  0.00  0.00    +0.000 C 
ATOM     17  C   UNL     1       3.991   1.460  22.879  0.00  0.00    +0.000 C 
ATOM     18  C   UNL     1       4.843   0.203  22.728  0.00  0.00    +0.000 C 
ENDBRANCH   9   8
ENDBRANCH   3   9
ENDBRANCH  19  10
TORSDOF 7
ENDMDL
