MODEL 1
REMARK VINA RESULT:       0.7      0.000      0.000
REMARK  Name = 7143045
REMARK  5 active torsions:
REMARK  status: ('A' for Active; 'I' for Inactive)
REMARK    1  A    between atoms: O_3  and  C_26
REMARK    2  A    between atoms: O_3  and  C_29
REMARK    3  A    between atoms: N_7  and  C_19
REMARK    4  A    between atoms: N_8  and  C_21
REMARK    5  A    between atoms: C_18  and  C_26
REMARK                            x       y       z     vdW  Elec       q    Type
REMARK                         _______ _______ _______ _____ _____    ______ ____
ROOT
ATOM      1  O   UNL     1      -0.452   1.988  26.239  0.00  0.00    -0.266 OA
ATOM      2  O   UNL     1      -5.700   1.276  27.026  0.00  0.00    -0.272 OA
ATOM      5  N   UNL     1      -5.323   2.804  25.317  0.00  0.00    -0.298 N 
ATOM      6  N   UNL     1      -2.150   2.932  24.941  0.00  0.00    -0.310 N 
ATOM      9  C   UNL     1      -3.773   4.690  25.849  0.00  0.00    +0.027 C 
ATOM     10  C   UNL     1      -3.993   3.909  23.527  0.00  0.00    +0.054 C 
ATOM     11  C   UNL     1      -3.861   5.156  24.401  0.00  0.00    +0.018 C 
ATOM     12  C   UNL     1      -5.037   3.904  26.239  0.00  0.00    +0.113 C 
ATOM     13  C   UNL     1      -2.498   3.857  26.026  0.00  0.00    +0.130 C 
ATOM     14  C   UNL     1      -5.289   3.160  23.890  0.00  0.00    +0.117 C 
ATOM     15  C   UNL     1      -2.799   2.990  23.703  0.00  0.00    +0.027 A 
ATOM     16  C   UNL     1      -2.387   2.215  22.687  0.00  0.00    +0.024 A 
ATOM     17  C   UNL     1      -1.065   2.062  25.173  0.00  0.00    +0.273 A 
ATOM     18  C   UNL     1      -5.680   1.554  25.824  0.00  0.00    +0.253 C 
ATOM     19  C   UNL     1      -0.653   1.197  24.023  0.00  0.00    +0.100 A 
ATOM     20  C   UNL     1      -1.292   1.300  22.853  0.00  0.00    +0.030 A 
ENDROOT
BRANCH  19   7
ATOM      4  O   UNL     1       1.474   0.671  22.183  0.00  0.00    -0.252 OA
ATOM      7  N   UNL     1       0.384   0.331  24.212  0.00  0.00    -0.265 N 
ATOM      8  N   UNL     1       2.317  -0.822  23.746  0.00  0.00    -0.296 N 
ATOM     28  C   UNL     1       1.397   0.114  23.278  0.00  0.00    +0.304 C 
ATOM     35  H   UNL     1       0.282  -0.356  24.953  0.00  0.00    +0.157 HD
ATOM     36  H   UNL     1       2.128  -1.275  24.634  0.00  0.00    +0.151 HD
BRANCH   8  21
ATOM     21  C   UNL     1       3.471  -1.238  22.982  0.00  0.00    +0.074 C 
ATOM     22  C   UNL     1       4.596  -1.726  23.903  0.00  0.00    +0.022 C 
ATOM     23  C   UNL     1       3.958  -0.114  22.061  0.00  0.00    +0.022 C 
ATOM     24  C   UNL     1       5.260  -0.582  24.671  0.00  0.00    +0.002 C 
ATOM     25  C   UNL     1       4.623   1.027  22.830  0.00  0.00    +0.002 C 
ATOM     27  C   UNL     1       5.745   0.519  23.731  0.00  0.00    +0.000 C 
ENDBRANCH   8  21
ENDBRANCH  19   7
BRANCH  18  26
ATOM     26  C   UNL     1      -6.051   0.497  24.816  0.00  0.00    +0.324 C 
BRANCH  26   3
ATOM      3  O   UNL     1      -4.903   0.263  24.038  0.00  0.00    -0.483 OA
BRANCH   3  29
ATOM     29  C   UNL     1      -4.101  -0.798  24.397  0.00  0.00    +0.121 A 
ATOM     30  C   UNL     1      -3.133  -0.637  25.388  0.00  0.00    +0.045 A 
ATOM     31  C   UNL     1      -4.257  -2.034  23.770  0.00  0.00    +0.045 A 
ATOM     32  C   UNL     1      -2.321  -1.710  25.752  0.00  0.00    +0.004 A 
ATOM     33  C   UNL     1      -3.445  -3.109  24.134  0.00  0.00    +0.004 A 
ATOM     34  C   UNL     1      -2.476  -2.946  25.124  0.00  0.00    +0.000 A 
ENDBRANCH   3  29
ENDBRANCH  26   3
ENDBRANCH  18  26
TORSDOF 5
ENDMDL
