MODEL 1
REMARK VINA RESULT:      -0.1      0.000      0.000
REMARK  Name = 25313771
REMARK  8 active torsions:
REMARK  status: ('A' for Active; 'I' for Inactive)
REMARK    1  A    between atoms: C_6  and  C_9
REMARK    2  A    between atoms: C_7  and  C_11
REMARK    3  A    between atoms: C_9  and  C_17
REMARK    4  A    between atoms: C_11  and  C_22
REMARK    5  A    between atoms: C_13  and  C_26
REMARK    6  A    between atoms: C_14  and  C_23
REMARK    7  A    between atoms: C_23  and  C_28
REMARK    8  A    between atoms: C_26  and  C_30
REMARK                            x       y       z     vdW  Elec       q    Type
REMARK                         _______ _______ _______ _____ _____    ______ ____
ROOT
ATOM      4  N   UNL     1      -0.049   5.507  24.270  0.00  0.00    -0.316 NA
ATOM      6  C   UNL     1      -2.462   4.573  25.689  0.00  0.00    +0.004 C 
ATOM      7  C   UNL     1      -1.194   3.700  25.531  0.00  0.00    +0.012 C 
ATOM      8  C   UNL     1      -2.067   6.055  25.585  0.00  0.00    +0.019 C 
ATOM     10  C   UNL     1      -0.392   4.085  24.276  0.00  0.00    +0.085 C 
ATOM     12  C   UNL     1      -1.239   6.353  24.336  0.00  0.00    +0.081 C 
ATOM     36  H   UNL     1       0.474   5.725  23.423  0.00  0.00    +0.122 HD
ENDROOT
BRANCH   6   9
ATOM      9  C   UNL     1      -3.579   4.235  24.692  0.00  0.00    +0.100 C 
BRANCH   9  17
ATOM      2  O   UNL     1      -5.096   3.710  26.434  0.00  0.00    -0.276 OA
ATOM      3  N   UNL     1      -4.957   2.186  24.686  0.00  0.00    -0.301 N 
ATOM     13  C   UNL     1      -4.887  -0.647  24.071  0.00  0.00    -0.004 C 
ATOM     15  C   UNL     1      -3.838   0.328  23.516  0.00  0.00    +0.023 C 
ATOM     16  C   UNL     1      -5.452  -0.120  25.398  0.00  0.00    +0.023 C 
ATOM     17  C   UNL     1      -4.612   3.360  25.355  0.00  0.00    +0.216 C 
ATOM     18  C   UNL     1      -4.401   1.744  23.403  0.00  0.00    +0.108 C 
ATOM     19  C   UNL     1      -5.982   1.304  25.246  0.00  0.00    +0.108 C 
BRANCH  13  26
ATOM     26  C   UNL     1      -4.291  -2.042  24.250  0.00  0.00    +0.038 C 
BRANCH  26  30
ATOM     30  C   UNL     1      -2.886  -1.981  24.786  0.00  0.00    -0.047 A 
ATOM     31  C   UNL     1      -1.855  -2.637  24.115  0.00  0.00    +0.003 A 
ATOM     32  C   UNL     1      -2.615  -1.267  25.953  0.00  0.00    +0.003 A 
ATOM     33  C   UNL     1      -0.552  -2.581  24.611  0.00  0.00    +0.000 A 
ATOM     34  C   UNL     1      -1.313  -1.210  26.450  0.00  0.00    +0.000 A 
ATOM     35  C   UNL     1      -0.282  -1.867  25.779  0.00  0.00    +0.000 A 
ENDBRANCH  26  30
ENDBRANCH  13  26
ENDBRANCH   9  17
ENDBRANCH   6   9
BRANCH   7  11
ATOM     11  C   UNL     1      -1.493   2.200  25.539  0.00  0.00    +0.064 C 
BRANCH  11  22
ATOM      1  O   UNL     1      -0.427   0.418  22.599  0.00  0.00    -0.359 OA
ATOM      5  N   UNL     1      -1.404   1.003  23.396  0.00  0.00    -0.083 NA
ATOM     22  C   UNL     1      -0.744   1.487  24.452  0.00  0.00    +0.084 A 
ATOM     28  C   UNL     1       0.785   0.565  23.193  0.00  0.00    +0.138 A 
ATOM     29  C   UNL     1       0.638   1.239  24.376  0.00  0.00    +0.071 A 
BRANCH  28  23
ATOM     23  C   UNL     1       1.937   0.001  22.481  0.00  0.00    +0.080 C 
BRANCH  23  14
ATOM     14  C   UNL     1       3.214  -0.015  23.320  0.00  0.00    -0.004 C 
ATOM     20  C   UNL     1       3.802  -1.432  23.387  0.00  0.00    +0.004 C 
ATOM     21  C   UNL     1       4.242   0.977  22.762  0.00  0.00    +0.004 C 
ATOM     24  C   UNL     1       5.107  -1.463  24.176  0.00  0.00    +0.000 C 
ATOM     25  C   UNL     1       5.547   0.941  23.552  0.00  0.00    +0.000 C 
ATOM     27  C   UNL     1       6.124  -0.470  23.624  0.00  0.00    +0.000 C 
ENDBRANCH  23  14
ENDBRANCH  28  23
ENDBRANCH  11  22
ENDBRANCH   7  11
TORSDOF 8
ENDMDL
MODEL 2
REMARK VINA RESULT:       2.6      1.757      6.516
REMARK  Name = 25313771
REMARK  8 active torsions:
REMARK  status: ('A' for Active; 'I' for Inactive)
REMARK    1  A    between atoms: C_6  and  C_9
REMARK    2  A    between atoms: C_7  and  C_11
REMARK    3  A    between atoms: C_9  and  C_17
REMARK    4  A    between atoms: C_11  and  C_22
REMARK    5  A    between atoms: C_13  and  C_26
REMARK    6  A    between atoms: C_14  and  C_23
REMARK    7  A    between atoms: C_23  and  C_28
REMARK    8  A    between atoms: C_26  and  C_30
REMARK                            x       y       z     vdW  Elec       q    Type
REMARK                         _______ _______ _______ _____ _____    ______ ____
ROOT
ATOM      4  N   UNL     1      -4.281  -2.937  24.029  0.00  0.00    -0.316 NA
ATOM      6  C   UNL     1      -4.108  -0.517  25.711  0.00  0.00    +0.004 C 
ATOM      7  C   UNL     1      -5.155  -0.679  24.582  0.00  0.00    +0.012 C 
ATOM      8  C   UNL     1      -3.671  -1.911  26.192  0.00  0.00    +0.019 C 
ATOM     10  C   UNL     1      -4.661  -1.634  23.482  0.00  0.00    +0.085 C 
ATOM     12  C   UNL     1      -3.233  -2.815  25.041  0.00  0.00    +0.081 C 
ATOM     36  H   UNL     1      -3.952  -3.538  23.274  0.00  0.00    +0.122 HD
ENDROOT
BRANCH   6   9
ATOM      9  C   UNL     1      -2.892   0.330  25.317  0.00  0.00    +0.100 C 
BRANCH   9  17
ATOM      2  O   UNL     1      -1.327  -0.666  26.790  0.00  0.00    -0.276 OA
ATOM      3  N   UNL     1      -0.846  -0.803  24.521  0.00  0.00    -0.301 N 
ATOM     13  C   UNL     1       1.302  -0.605  22.583  0.00  0.00    -0.004 C 
ATOM     15  C   UNL     1      -0.009   0.179  22.421  0.00  0.00    +0.023 C 
ATOM     16  C   UNL     1       1.574  -0.884  24.068  0.00  0.00    +0.023 C 
ATOM     17  C   UNL     1      -1.621  -0.424  25.617  0.00  0.00    +0.216 C 
ATOM     18  C   UNL     1      -1.170  -0.530  23.116  0.00  0.00    +0.108 C 
ATOM     19  C   UNL     1       0.381  -1.572  24.728  0.00  0.00    +0.108 C 
BRANCH  13  26
ATOM     26  C   UNL     1       2.468   0.149  21.949  0.00  0.00    +0.038 C 
BRANCH  26  30
ATOM     30  C   UNL     1       3.729   0.004  22.758  0.00  0.00    -0.047 A 
ATOM     31  C   UNL     1       4.082  -1.240  23.280  0.00  0.00    +0.003 A 
ATOM     32  C   UNL     1       4.544   1.113  22.984  0.00  0.00    +0.003 A 
ATOM     33  C   UNL     1       5.250  -1.376  24.030  0.00  0.00    +0.000 A 
ATOM     34  C   UNL     1       5.712   0.978  23.734  0.00  0.00    +0.000 A 
ATOM     35  C   UNL     1       6.066  -0.266  24.256  0.00  0.00    +0.000 A 
ENDBRANCH  26  30
ENDBRANCH  13  26
ENDBRANCH   9  17
ENDBRANCH   6   9
BRANCH   7  11
ATOM     11  C   UNL     1      -5.596   0.655  23.977  0.00  0.00    +0.064 C 
BRANCH  11  22
ATOM      1  O   UNL     1      -5.086   3.293  26.373  0.00  0.00    -0.359 OA
ATOM      5  N   UNL     1      -5.808   2.224  25.855  0.00  0.00    -0.083 NA
ATOM     22  C   UNL     1      -5.106   1.814  24.795  0.00  0.00    +0.084 A 
ATOM     28  C   UNL     1      -3.977   3.494  25.616  0.00  0.00    +0.138 A 
ATOM     29  C   UNL     1      -3.942   2.578  24.598  0.00  0.00    +0.071 A 
BRANCH  28  23
ATOM     23  C   UNL     1      -3.093   4.592  26.026  0.00  0.00    +0.080 C 
BRANCH  23  14
ATOM     14  C   UNL     1      -1.614   4.297  25.782  0.00  0.00    -0.004 C 
ATOM     20  C   UNL     1      -1.198   2.997  26.484  0.00  0.00    +0.004 C 
ATOM     21  C   UNL     1      -1.316   4.226  24.279  0.00  0.00    +0.004 C 
ATOM     24  C   UNL     1       0.264   2.653  26.211  0.00  0.00    +0.000 C 
ATOM     25  C   UNL     1       0.146   3.878  24.010  0.00  0.00    +0.000 C 
ATOM     27  C   UNL     1       0.558   2.591  24.716  0.00  0.00    +0.000 C 
ENDBRANCH  23  14
ENDBRANCH  28  23
ENDBRANCH  11  22
ENDBRANCH   7  11
TORSDOF 8
ENDMDL
MODEL 3
REMARK VINA RESULT:       3.4      1.450      5.982
REMARK  Name = 25313771
REMARK  8 active torsions:
REMARK  status: ('A' for Active; 'I' for Inactive)
REMARK    1  A    between atoms: C_6  and  C_9
REMARK    2  A    between atoms: C_7  and  C_11
REMARK    3  A    between atoms: C_9  and  C_17
REMARK    4  A    between atoms: C_11  and  C_22
REMARK    5  A    between atoms: C_13  and  C_26
REMARK    6  A    between atoms: C_14  and  C_23
REMARK    7  A    between atoms: C_23  and  C_28
REMARK    8  A    between atoms: C_26  and  C_30
REMARK                            x       y       z     vdW  Elec       q    Type
REMARK                         _______ _______ _______ _____ _____    ______ ____
ROOT
ATOM      4  N   UNL     1      -0.923   6.355  24.380  0.00  0.00    -0.316 NA
ATOM      6  C   UNL     1      -1.474   3.512  24.949  0.00  0.00    +0.004 C 
ATOM      7  C   UNL     1      -2.535   4.624  25.136  0.00  0.00    +0.012 C 
ATOM      8  C   UNL     1      -0.435   3.979  23.914  0.00  0.00    +0.019 C 
ATOM     10  C   UNL     1      -1.884   5.988  25.421  0.00  0.00    +0.085 C 
ATOM     12  C   UNL     1       0.136   5.357  24.242  0.00  0.00    +0.081 C 
ATOM     36  H   UNL     1      -0.508   7.259  24.608  0.00  0.00    +0.122 HD
ENDROOT
BRANCH   6   9
ATOM      9  C   UNL     1      -0.789   3.078  26.250  0.00  0.00    +0.100 C 
BRANCH   9  17
ATOM      2  O   UNL     1      -0.560   1.001  27.367  0.00  0.00    -0.276 OA
ATOM      3  N   UNL     1      -0.605   0.930  25.045  0.00  0.00    -0.301 N 
ATOM     13  C   UNL     1       0.613  -0.328  22.732  0.00  0.00    -0.004 C 
ATOM     15  C   UNL     1       0.480   1.199  22.848  0.00  0.00    +0.023 C 
ATOM     16  C   UNL     1       0.681  -0.962  24.129  0.00  0.00    +0.023 C 
ATOM     17  C   UNL     1      -0.641   1.578  26.279  0.00  0.00    +0.216 C 
ATOM     18  C   UNL     1      -0.700   1.588  23.737  0.00  0.00    +0.108 C 
ATOM     19  C   UNL     1      -0.504  -0.529  24.990  0.00  0.00    +0.108 C 
BRANCH  13  26
ATOM     26  C   UNL     1       1.838  -0.705  21.904  0.00  0.00    +0.038 C 
BRANCH  26  30
ATOM     30  C   UNL     1       3.118  -0.399  22.635  0.00  0.00    -0.047 A 
ATOM     31  C   UNL     1       3.683   0.872  22.549  0.00  0.00    +0.003 A 
ATOM     32  C   UNL     1       3.738  -1.389  23.398  0.00  0.00    +0.003 A 
ATOM     33  C   UNL     1       4.869   1.156  23.226  0.00  0.00    +0.000 A 
ATOM     34  C   UNL     1       4.924  -1.105  24.075  0.00  0.00    +0.000 A 
ATOM     35  C   UNL     1       5.489   0.167  23.989  0.00  0.00    +0.000 A 
ENDBRANCH  26  30
ENDBRANCH  13  26
ENDBRANCH   9  17
ENDBRANCH   6   9
BRANCH   7  11
ATOM     11  C   UNL     1      -3.572   4.288  26.209  0.00  0.00    +0.064 C 
BRANCH  11  22
ATOM      1  O   UNL     1      -6.163   1.850  25.660  0.00  0.00    -0.359 OA
ATOM      5  N   UNL     1      -5.689   3.043  26.193  0.00  0.00    -0.083 NA
ATOM     22  C   UNL     1      -4.411   3.110  25.808  0.00  0.00    +0.084 A 
ATOM     28  C   UNL     1      -5.164   1.238  24.973  0.00  0.00    +0.138 A 
ATOM     29  C   UNL     1      -4.028   1.999  25.037  0.00  0.00    +0.071 A 
BRANCH  28  23
ATOM     23  C   UNL     1      -5.494  -0.045  24.340  0.00  0.00    +0.080 C 
BRANCH  23  14
ATOM     14  C   UNL     1      -4.313  -1.012  24.288  0.00  0.00    -0.004 C 
ATOM     20  C   UNL     1      -3.787  -1.301  25.701  0.00  0.00    +0.004 C 
ATOM     21  C   UNL     1      -4.707  -2.312  23.575  0.00  0.00    +0.004 C 
ATOM     24  C   UNL     1      -2.639  -2.307  25.679  0.00  0.00    +0.000 C 
ATOM     25  C   UNL     1      -3.558  -3.317  23.559  0.00  0.00    +0.000 C 
ATOM     27  C   UNL     1      -3.032  -3.595  24.963  0.00  0.00    +0.000 C 
ENDBRANCH  23  14
ENDBRANCH  28  23
ENDBRANCH  11  22
ENDBRANCH   7  11
TORSDOF 8
ENDMDL
MODEL 4
REMARK VINA RESULT:       3.4      1.522      5.515
REMARK  Name = 25313771
REMARK  8 active torsions:
REMARK  status: ('A' for Active; 'I' for Inactive)
REMARK    1  A    between atoms: C_6  and  C_9
REMARK    2  A    between atoms: C_7  and  C_11
REMARK    3  A    between atoms: C_9  and  C_17
REMARK    4  A    between atoms: C_11  and  C_22
REMARK    5  A    between atoms: C_13  and  C_26
REMARK    6  A    between atoms: C_14  and  C_23
REMARK    7  A    between atoms: C_23  and  C_28
REMARK    8  A    between atoms: C_26  and  C_30
REMARK                            x       y       z     vdW  Elec       q    Type
REMARK                         _______ _______ _______ _____ _____    ______ ____
ROOT
ATOM      4  N   UNL     1      -3.492   3.836  27.371  0.00  0.00    -0.316 NA
ATOM      6  C   UNL     1      -3.637   4.884  24.616  0.00  0.00    +0.004 C 
ATOM      7  C   UNL     1      -4.768   4.038  25.250  0.00  0.00    +0.012 C 
ATOM      8  C   UNL     1      -2.832   5.566  25.735  0.00  0.00    +0.019 C 
ATOM     10  C   UNL     1      -4.230   3.100  26.344  0.00  0.00    +0.085 C 
ATOM     12  C   UNL     1      -2.368   4.578  26.805  0.00  0.00    +0.081 C 
ATOM     36  H   UNL     1      -3.146   3.182  28.073  0.00  0.00    +0.122 HD
ENDROOT
BRANCH   6   9
ATOM      9  C   UNL     1      -2.711   4.089  23.686  0.00  0.00    +0.100 C 
BRANCH   9  17
ATOM      2  O   UNL     1      -0.786   4.841  24.843  0.00  0.00    -0.276 OA
ATOM      3  N   UNL     1      -0.884   2.571  24.360  0.00  0.00    -0.301 N 
ATOM     13  C   UNL     1       0.701   0.315  23.458  0.00  0.00    -0.004 C 
ATOM     15  C   UNL     1      -0.642   0.675  22.803  0.00  0.00    +0.023 C 
ATOM     16  C   UNL     1       1.348   1.567  24.067  0.00  0.00    +0.023 C 
ATOM     17  C   UNL     1      -1.375   3.876  24.350  0.00  0.00    +0.216 C 
ATOM     18  C   UNL     1      -1.560   1.404  23.783  0.00  0.00    +0.108 C 
ATOM     19  C   UNL     1       0.388   2.276  25.021  0.00  0.00    +0.108 C 
BRANCH  13  26
ATOM     26  C   UNL     1       1.638  -0.345  22.450  0.00  0.00    +0.038 C 
BRANCH  26  30
ATOM     30  C   UNL     1       3.066  -0.322  22.921  0.00  0.00    -0.047 A 
ATOM     31  C   UNL     1       3.860   0.800  22.686  0.00  0.00    +0.003 A 
ATOM     32  C   UNL     1       3.596  -1.423  23.594  0.00  0.00    +0.003 A 
ATOM     33  C   UNL     1       5.184   0.822  23.122  0.00  0.00    +0.000 A 
ATOM     34  C   UNL     1       4.921  -1.401  24.032  0.00  0.00    +0.000 A 
ATOM     35  C   UNL     1       5.715  -0.279  23.796  0.00  0.00    +0.000 A 
ENDBRANCH  26  30
ENDBRANCH  13  26
ENDBRANCH   9  17
ENDBRANCH   6   9
BRANCH   7  11
ATOM     11  C   UNL     1      -5.579   3.252  24.219  0.00  0.00    +0.064 C 
BRANCH  11  22
ATOM      1  O   UNL     1      -5.744  -0.200  25.224  0.00  0.00    -0.359 OA
ATOM      5  N   UNL     1      -6.141   1.129  25.317  0.00  0.00    -0.083 NA
ATOM     22  C   UNL     1      -5.411   1.773  24.403  0.00  0.00    +0.084 A 
ATOM     28  C   UNL     1      -4.792  -0.318  24.263  0.00  0.00    +0.138 A 
ATOM     29  C   UNL     1      -4.544   0.910  23.709  0.00  0.00    +0.071 A 
BRANCH  28  23
ATOM     23  C   UNL     1      -4.257  -1.665  24.031  0.00  0.00    +0.080 C 
BRANCH  23  14
ATOM     14  C   UNL     1      -3.054  -1.994  24.913  0.00  0.00    -0.004 C 
ATOM     20  C   UNL     1      -1.890  -2.528  24.067  0.00  0.00    +0.004 C 
ATOM     21  C   UNL     1      -2.623  -0.764  25.723  0.00  0.00    +0.004 C 
ATOM     24  C   UNL     1      -0.659  -2.814  24.921  0.00  0.00    +0.000 C 
ATOM     25  C   UNL     1      -1.389  -1.053  26.573  0.00  0.00    +0.000 C 
ATOM     27  C   UNL     1      -0.237  -1.592  25.730  0.00  0.00    +0.000 C 
ENDBRANCH  23  14
ENDBRANCH  28  23
ENDBRANCH  11  22
ENDBRANCH   7  11
TORSDOF 8
ENDMDL
MODEL 5
REMARK VINA RESULT:       3.7      1.483      7.106
REMARK  Name = 25313771
REMARK  8 active torsions:
REMARK  status: ('A' for Active; 'I' for Inactive)
REMARK    1  A    between atoms: C_6  and  C_9
REMARK    2  A    between atoms: C_7  and  C_11
REMARK    3  A    between atoms: C_9  and  C_17
REMARK    4  A    between atoms: C_11  and  C_22
REMARK    5  A    between atoms: C_13  and  C_26
REMARK    6  A    between atoms: C_14  and  C_23
REMARK    7  A    between atoms: C_23  and  C_28
REMARK    8  A    between atoms: C_26  and  C_30
REMARK                            x       y       z     vdW  Elec       q    Type
REMARK                         _______ _______ _______ _____ _____    ______ ____
ROOT
ATOM      4  N   UNL     1      -3.753  -3.413  24.336  0.00  0.00    -0.316 NA
ATOM      6  C   UNL     1      -3.256  -0.514  24.582  0.00  0.00    +0.004 C 
ATOM      7  C   UNL     1      -4.673  -1.131  24.677  0.00  0.00    +0.012 C 
ATOM      8  C   UNL     1      -2.217  -1.582  24.962  0.00  0.00    +0.019 C 
ATOM     10  C   UNL     1      -4.769  -2.454  23.898  0.00  0.00    +0.085 C 
ATOM     12  C   UNL     1      -2.401  -2.880  24.178  0.00  0.00    +0.081 C 
ATOM     36  H   UNL     1      -3.844  -4.271  23.794  0.00  0.00    +0.122 HD
ENDROOT
BRANCH   6   9
ATOM      9  C   UNL     1      -2.933   0.098  23.213  0.00  0.00    +0.100 C 
BRANCH   9  17
ATOM      2  O   UNL     1      -2.636   2.448  23.200  0.00  0.00    -0.276 OA
ATOM      3  N   UNL     1      -0.778   1.172  23.763  0.00  0.00    -0.301 N 
ATOM     13  C   UNL     1       2.087   0.940  23.377  0.00  0.00    -0.004 C 
ATOM     15  C   UNL     1       1.141  -0.249  23.150  0.00  0.00    +0.023 C 
ATOM     16  C   UNL     1       1.343   2.263  23.146  0.00  0.00    +0.023 C 
ATOM     17  C   UNL     1      -2.110   1.348  23.390  0.00  0.00    +0.216 C 
ATOM     18  C   UNL     1      -0.125  -0.121  23.996  0.00  0.00    +0.108 C 
ATOM     19  C   UNL     1       0.075   2.339  23.993  0.00  0.00    +0.108 C 
BRANCH  13  26
ATOM     26  C   UNL     1       3.313   0.840  22.472  0.00  0.00    +0.038 C 
BRANCH  26  30
ATOM     30  C   UNL     1       4.429   0.075  23.130  0.00  0.00    -0.047 A 
ATOM     31  C   UNL     1       4.221  -1.238  23.549  0.00  0.00    +0.003 A 
ATOM     32  C   UNL     1       5.671   0.680  23.321  0.00  0.00    +0.003 A 
ATOM     33  C   UNL     1       5.255  -1.948  24.160  0.00  0.00    +0.000 A 
ATOM     34  C   UNL     1       6.705  -0.029  23.931  0.00  0.00    +0.000 A 
ATOM     35  C   UNL     1       6.498  -1.343  24.351  0.00  0.00    +0.000 A 
ENDBRANCH  26  30
ENDBRANCH  13  26
ENDBRANCH   9  17
ENDBRANCH   6   9
BRANCH   7  11
ATOM     11  C   UNL     1      -5.777  -0.168  24.238  0.00  0.00    +0.064 C 
BRANCH  11  22
ATOM      1  O   UNL     1      -5.952   2.568  26.571  0.00  0.00    -0.359 OA
ATOM      5  N   UNL     1      -6.210   1.256  26.192  0.00  0.00    -0.083 NA
ATOM     22  C   UNL     1      -5.685   1.139  24.969  0.00  0.00    +0.084 A 
ATOM     28  C   UNL     1      -5.282   3.200  25.572  0.00  0.00    +0.138 A 
ATOM     29  C   UNL     1      -5.087   2.334  24.530  0.00  0.00    +0.071 A 
BRANCH  28  23
ATOM     23  C   UNL     1      -4.926   4.604  25.808  0.00  0.00    +0.080 C 
BRANCH  23  14
ATOM     14  C   UNL     1      -3.427   4.820  26.004  0.00  0.00    -0.004 C 
ATOM     20  C   UNL     1      -2.721   3.488  26.296  0.00  0.00    +0.004 C 
ATOM     21  C   UNL     1      -2.813   5.506  24.777  0.00  0.00    +0.004 C 
ATOM     24  C   UNL     1      -1.213   3.671  26.443  0.00  0.00    +0.000 C 
ATOM     25  C   UNL     1      -1.304   5.684  24.927  0.00  0.00    +0.000 C 
ATOM     27  C   UNL     1      -0.607   4.360  25.225  0.00  0.00    +0.000 C 
ENDBRANCH  23  14
ENDBRANCH  28  23
ENDBRANCH  11  22
ENDBRANCH   7  11
TORSDOF 8
ENDMDL
