MODEL 1
REMARK VINA RESULT:      -3.5      0.000      0.000
REMARK  Name = 56775669
REMARK  9 active torsions:
REMARK  status: ('A' for Active; 'I' for Inactive)
REMARK    1  A    between atoms: N_4  and  C_7
REMARK    2  A    between atoms: N_4  and  C_8
REMARK    3  A    between atoms: C_7  and  C_11
REMARK    4  A    between atoms: C_11  and  C_16
REMARK    5  A    between atoms: C_17  and  C_21
REMARK    6  A    between atoms: C_19  and  C_20
REMARK    7  A    between atoms: C_20  and  C_22
REMARK    8  A    between atoms: C_22  and  C_23
REMARK    9  A    between atoms: C_22  and  C_24
REMARK                            x       y       z     vdW  Elec       q    Type
REMARK                         _______ _______ _______ _____ _____    ______ ____
ROOT
ATOM      1  O   UNL     1      -2.061   5.170  26.021  0.00  0.00    -0.376 OA
ATOM      7  C   UNL     1      -2.214   3.336  24.940  0.00  0.00    +0.072 C 
ATOM      9  C   UNL     1      -1.436   4.643  24.829  0.00  0.00    +0.184 C 
ATOM     10  C   UNL     1      -2.898   3.996  26.130  0.00  0.00    +0.184 C 
ENDROOT
BRANCH   7   4
ATOM      4  N   UNL     1      -1.311   2.291  25.432  0.00  0.00    -0.304 NA
ATOM     25  H   UNL     1      -1.760   1.544  25.961  0.00  0.00    +0.123 HD
BRANCH   4   8
ATOM      3  O   UNL     1       3.178  -1.430  23.478  0.00  0.00    -0.276 OA
ATOM      5  N   UNL     1       1.805   0.432  23.265  0.00  0.00    -0.302 N 
ATOM      8  C   UNL     1      -0.560   1.735  24.309  0.00  0.00    +0.057 C 
ATOM     12  C   UNL     1       0.761   2.492  24.132  0.00  0.00    +0.037 C 
ATOM     13  C   UNL     1      -0.295   0.242  24.541  0.00  0.00    +0.037 C 
ATOM     14  C   UNL     1       1.608   1.867  23.023  0.00  0.00    +0.109 C 
ATOM     15  C   UNL     1       0.570  -0.339  23.424  0.00  0.00    +0.109 C 
ATOM     17  C   UNL     1       3.039  -0.215  23.309  0.00  0.00    +0.212 C 
ATOM     21  C   UNL     1       4.263   0.649  23.140  0.00  0.00    +0.109 C 
ENDBRANCH   4   8
ENDBRANCH   7   4
BRANCH   7  11
ATOM     11  C   UNL     1      -3.047   2.887  23.779  0.00  0.00    +0.085 C 
BRANCH  11  16
ATOM      2  O   UNL     1      -4.901   0.021  24.967  0.00  0.00    -0.359 OA
ATOM      6  N   UNL     1      -4.575   1.372  24.990  0.00  0.00    -0.083 NA
ATOM     16  C   UNL     1      -3.644   1.520  24.043  0.00  0.00    +0.086 A 
ATOM     18  C   UNL     1      -3.345   0.309  23.396  0.00  0.00    +0.071 A 
ATOM     19  C   UNL     1      -4.163  -0.601  24.014  0.00  0.00    +0.138 A 
BRANCH  19  20
ATOM     20  C   UNL     1      -4.381  -2.043  23.852  0.00  0.00    +0.080 C 
BRANCH  20  22
ATOM     22  C   UNL     1      -3.382  -2.958  24.623  0.00  0.00    -0.010 C 
ATOM     23  C   UNL     1      -3.181  -2.470  26.059  0.00  0.00    +0.007 C 
ATOM     24  C   UNL     1      -2.029  -3.035  23.911  0.00  0.00    +0.007 C 
ENDBRANCH  20  22
ENDBRANCH  19  20
ENDBRANCH  11  16
ENDBRANCH   7  11
TORSDOF 6
ENDMDL
MODEL 2
REMARK VINA RESULT:      -3.3      2.128      7.162
REMARK  Name = 56775669
REMARK  9 active torsions:
REMARK  status: ('A' for Active; 'I' for Inactive)
REMARK    1  A    between atoms: N_4  and  C_7
REMARK    2  A    between atoms: N_4  and  C_8
REMARK    3  A    between atoms: C_7  and  C_11
REMARK    4  A    between atoms: C_11  and  C_16
REMARK    5  A    between atoms: C_17  and  C_21
REMARK    6  A    between atoms: C_19  and  C_20
REMARK    7  A    between atoms: C_20  and  C_22
REMARK    8  A    between atoms: C_22  and  C_23
REMARK    9  A    between atoms: C_22  and  C_24
REMARK                            x       y       z     vdW  Elec       q    Type
REMARK                         _______ _______ _______ _____ _____    ______ ____
ROOT
ATOM      1  O   UNL     1      -0.909  -2.987  25.379  0.00  0.00    -0.376 OA
ATOM      7  C   UNL     1      -0.820  -1.069  24.448  0.00  0.00    +0.072 C 
ATOM      9  C   UNL     1      -1.838  -2.192  24.609  0.00  0.00    +0.184 C 
ATOM     10  C   UNL     1       0.133  -2.003  25.184  0.00  0.00    +0.184 C 
ENDROOT
BRANCH   7   4
ATOM      4  N   UNL     1      -1.188   0.032  25.344  0.00  0.00    -0.304 NA
ATOM     25  H   UNL     1      -0.419   0.644  25.618  0.00  0.00    +0.123 HD
BRANCH   4   8
ATOM      3  O   UNL     1      -5.476   4.397  25.953  0.00  0.00    -0.276 OA
ATOM      5  N   UNL     1      -4.625   2.466  24.982  0.00  0.00    -0.302 N 
ATOM      8  C   UNL     1      -2.261   0.812  24.733  0.00  0.00    +0.057 C 
ATOM     12  C   UNL     1      -3.624   0.214  25.102  0.00  0.00    +0.037 C 
ATOM     13  C   UNL     1      -2.176   2.275  25.189  0.00  0.00    +0.037 C 
ATOM     14  C   UNL     1      -4.766   1.069  24.552  0.00  0.00    +0.109 C 
ATOM     15  C   UNL     1      -3.345   3.088  24.636  0.00  0.00    +0.109 C 
ATOM     17  C   UNL     1      -5.606   3.212  25.633  0.00  0.00    +0.212 C 
ATOM     21  C   UNL     1      -6.895   2.499  25.957  0.00  0.00    +0.109 C 
ENDBRANCH   4   8
ENDBRANCH   7   4
BRANCH   7  11
ATOM     11  C   UNL     1      -0.463  -0.604  23.070  0.00  0.00    +0.085 C 
BRANCH  11  16
ATOM      2  O   UNL     1       2.459   1.479  23.496  0.00  0.00    -0.359 OA
ATOM      6  N   UNL     1       1.118   1.179  23.711  0.00  0.00    -0.083 NA
ATOM     16  C   UNL     1       0.911   0.034  23.055  0.00  0.00    +0.086 A 
ATOM     18  C   UNL     1       2.072  -0.432  22.414  0.00  0.00    +0.071 A 
ATOM     19  C   UNL     1       3.015   0.512  22.723  0.00  0.00    +0.138 A 
BRANCH  19  20
ATOM     20  C   UNL     1       4.437   0.672  22.396  0.00  0.00    +0.080 C 
BRANCH  20  22
ATOM     22  C   UNL     1       5.424  -0.092  23.327  0.00  0.00    -0.010 C 
ATOM     23  C   UNL     1       4.833  -1.428  23.784  0.00  0.00    +0.007 C 
ATOM     24  C   UNL     1       5.805   0.748  24.549  0.00  0.00    +0.007 C 
ENDBRANCH  20  22
ENDBRANCH  19  20
ENDBRANCH  11  16
ENDBRANCH   7  11
TORSDOF 6
ENDMDL
MODEL 3
REMARK VINA RESULT:      -3.0      2.122      5.291
REMARK  Name = 56775669
REMARK  9 active torsions:
REMARK  status: ('A' for Active; 'I' for Inactive)
REMARK    1  A    between atoms: N_4  and  C_7
REMARK    2  A    between atoms: N_4  and  C_8
REMARK    3  A    between atoms: C_7  and  C_11
REMARK    4  A    between atoms: C_11  and  C_16
REMARK    5  A    between atoms: C_17  and  C_21
REMARK    6  A    between atoms: C_19  and  C_20
REMARK    7  A    between atoms: C_20  and  C_22
REMARK    8  A    between atoms: C_22  and  C_23
REMARK    9  A    between atoms: C_22  and  C_24
REMARK                            x       y       z     vdW  Elec       q    Type
REMARK                         _______ _______ _______ _____ _____    ______ ____
ROOT
ATOM      1  O   UNL     1       0.073   2.355  27.013  0.00  0.00    -0.376 OA
ATOM      7  C   UNL     1      -0.447   2.990  25.043  0.00  0.00    +0.072 C 
ATOM      9  C   UNL     1      -1.139   2.323  26.226  0.00  0.00    +0.184 C 
ATOM     10  C   UNL     1       0.812   2.902  25.896  0.00  0.00    +0.184 C 
ENDROOT
BRANCH   7   4
ATOM      4  N   UNL     1      -0.876   4.390  24.976  0.00  0.00    -0.304 NA
ATOM     25  H   UNL     1      -0.468   4.932  24.214  0.00  0.00    +0.123 HD
BRANCH   4   8
ATOM      3  O   UNL     1      -6.281   2.158  26.877  0.00  0.00    -0.276 OA
ATOM      5  N   UNL     1      -4.919   3.205  25.313  0.00  0.00    -0.302 N 
ATOM      8  C   UNL     1      -2.334   4.446  24.911  0.00  0.00    +0.057 C 
ATOM     12  C   UNL     1      -2.862   3.364  23.961  0.00  0.00    +0.037 C 
ATOM     13  C   UNL     1      -2.931   4.266  26.313  0.00  0.00    +0.037 C 
ATOM     14  C   UNL     1      -4.390   3.340  23.950  0.00  0.00    +0.109 C 
ATOM     15  C   UNL     1      -4.457   4.227  26.255  0.00  0.00    +0.109 C 
ATOM     17  C   UNL     1      -5.823   2.230  25.734  0.00  0.00    +0.212 C 
ATOM     21  C   UNL     1      -6.248   1.212  24.705  0.00  0.00    +0.109 C 
ENDBRANCH   4   8
ENDBRANCH   7   4
BRANCH   7  11
ATOM     11  C   UNL     1      -0.472   2.309  23.710  0.00  0.00    +0.085 C 
BRANCH  11  16
ATOM      2  O   UNL     1       0.063  -1.259  23.916  0.00  0.00    -0.359 OA
ATOM      6  N   UNL     1       0.501   0.040  23.688  0.00  0.00    -0.083 NA
ATOM     16  C   UNL     1      -0.577   0.807  23.875  0.00  0.00    +0.086 A 
ATOM     18  C   UNL     1      -1.713   0.054  24.219  0.00  0.00    +0.071 A 
ATOM     19  C   UNL     1      -1.256  -1.238  24.231  0.00  0.00    +0.138 A 
BRANCH  19  20
ATOM     20  C   UNL     1      -1.887  -2.534  24.505  0.00  0.00    +0.080 C 
BRANCH  20  22
ATOM     22  C   UNL     1      -3.371  -2.467  24.975  0.00  0.00    -0.010 C 
ATOM     23  C   UNL     1      -4.311  -2.190  23.800  0.00  0.00    +0.007 C 
ATOM     24  C   UNL     1      -3.568  -1.401  26.056  0.00  0.00    +0.007 C 
ENDBRANCH  20  22
ENDBRANCH  19  20
ENDBRANCH  11  16
ENDBRANCH   7  11
TORSDOF 6
ENDMDL
MODEL 4
REMARK VINA RESULT:      -2.9      1.463      4.458
REMARK  Name = 56775669
REMARK  9 active torsions:
REMARK  status: ('A' for Active; 'I' for Inactive)
REMARK    1  A    between atoms: N_4  and  C_7
REMARK    2  A    between atoms: N_4  and  C_8
REMARK    3  A    between atoms: C_7  and  C_11
REMARK    4  A    between atoms: C_11  and  C_16
REMARK    5  A    between atoms: C_17  and  C_21
REMARK    6  A    between atoms: C_19  and  C_20
REMARK    7  A    between atoms: C_20  and  C_22
REMARK    8  A    between atoms: C_22  and  C_23
REMARK    9  A    between atoms: C_22  and  C_24
REMARK                            x       y       z     vdW  Elec       q    Type
REMARK                         _______ _______ _______ _____ _____    ______ ____
ROOT
ATOM      1  O   UNL     1      -3.332  -2.970  25.727  0.00  0.00    -0.376 OA
ATOM      7  C   UNL     1      -2.911  -1.117  24.754  0.00  0.00    +0.072 C 
ATOM      9  C   UNL     1      -3.778  -1.607  25.908  0.00  0.00    +0.184 C 
ATOM     10  C   UNL     1      -2.562  -2.588  24.564  0.00  0.00    +0.184 C 
ENDROOT
BRANCH   7   4
ATOM      4  N   UNL     1      -1.745  -0.421  25.303  0.00  0.00    -0.304 NA
ATOM     25  H   UNL     1      -1.157  -0.980  25.921  0.00  0.00    +0.123 HD
BRANCH   4   8
ATOM      3  O   UNL     1       3.474  -0.560  22.054  0.00  0.00    -0.276 OA
ATOM      5  N   UNL     1       1.608   0.527  22.911  0.00  0.00    -0.302 N 
ATOM      8  C   UNL     1      -0.949   0.127  24.207  0.00  0.00    +0.057 C 
ATOM     12  C   UNL     1       0.078   1.128  24.750  0.00  0.00    +0.037 C 
ATOM     13  C   UNL     1      -0.245  -1.006  23.449  0.00  0.00    +0.037 C 
ATOM     14  C   UNL     1       0.986   1.644  23.633  0.00  0.00    +0.109 C 
ATOM     15  C   UNL     1       0.666  -0.448  22.357  0.00  0.00    +0.109 C 
ATOM     17  C   UNL     1       2.977   0.369  22.696  0.00  0.00    +0.212 C 
ATOM     21  C   UNL     1       3.881   1.414  23.300  0.00  0.00    +0.109 C 
ENDBRANCH   4   8
ENDBRANCH   7   4
BRANCH   7  11
ATOM     11  C   UNL     1      -3.557  -0.372  23.627  0.00  0.00    +0.085 C 
BRANCH  11  16
ATOM      2  O   UNL     1      -4.917   2.708  24.939  0.00  0.00    -0.359 OA
ATOM      6  N   UNL     1      -4.948   1.332  24.748  0.00  0.00    -0.083 NA
ATOM     16  C   UNL     1      -3.856   1.058  24.028  0.00  0.00    +0.086 A 
ATOM     18  C   UNL     1      -3.106   2.211  23.737  0.00  0.00    +0.071 A 
ATOM     19  C   UNL     1      -3.816   3.220  24.333  0.00  0.00    +0.138 A 
BRANCH  19  20
ATOM     20  C   UNL     1      -3.625   4.671  24.435  0.00  0.00    +0.080 C 
BRANCH  20  22
ATOM     22  C   UNL     1      -2.581   5.132  25.495  0.00  0.00    -0.010 C 
ATOM     23  C   UNL     1      -1.174   5.194  24.896  0.00  0.00    +0.007 C 
ATOM     24  C   UNL     1      -2.580   4.212  26.718  0.00  0.00    +0.007 C 
ENDBRANCH  20  22
ENDBRANCH  19  20
ENDBRANCH  11  16
ENDBRANCH   7  11
TORSDOF 6
ENDMDL
MODEL 5
REMARK VINA RESULT:      -2.7      2.221      6.726
REMARK  Name = 56775669
REMARK  9 active torsions:
REMARK  status: ('A' for Active; 'I' for Inactive)
REMARK    1  A    between atoms: N_4  and  C_7
REMARK    2  A    between atoms: N_4  and  C_8
REMARK    3  A    between atoms: C_7  and  C_11
REMARK    4  A    between atoms: C_11  and  C_16
REMARK    5  A    between atoms: C_17  and  C_21
REMARK    6  A    between atoms: C_19  and  C_20
REMARK    7  A    between atoms: C_20  and  C_22
REMARK    8  A    between atoms: C_22  and  C_23
REMARK    9  A    between atoms: C_22  and  C_24
REMARK                            x       y       z     vdW  Elec       q    Type
REMARK                         _______ _______ _______ _____ _____    ______ ____
ROOT
ATOM      1  O   UNL     1      -4.271  -3.016  23.738  0.00  0.00    -0.376 OA
ATOM      7  C   UNL     1      -2.814  -1.955  24.881  0.00  0.00    +0.072 C 
ATOM      9  C   UNL     1      -3.491  -1.818  23.523  0.00  0.00    +0.184 C 
ATOM     10  C   UNL     1      -3.598  -3.257  24.995  0.00  0.00    +0.184 C 
ENDROOT
BRANCH   7   4
ATOM      4  N   UNL     1      -3.395  -0.971  25.799  0.00  0.00    -0.304 NA
ATOM     25  H   UNL     1      -2.726  -0.486  26.396  0.00  0.00    +0.123 HD
BRANCH   4   8
ATOM      3  O   UNL     1      -4.192   4.847  23.973  0.00  0.00    -0.276 OA
ATOM      5  N   UNL     1      -4.979   2.725  24.496  0.00  0.00    -0.302 N 
ATOM      8  C   UNL     1      -4.182  -0.006  25.035  0.00  0.00    +0.057 C 
ATOM     12  C   UNL     1      -5.138   0.750  25.966  0.00  0.00    +0.037 C 
ATOM     13  C   UNL     1      -3.253   0.976  24.309  0.00  0.00    +0.037 C 
ATOM     14  C   UNL     1      -5.905   1.832  25.205  0.00  0.00    +0.109 C 
ATOM     15  C   UNL     1      -4.057   2.051  23.580  0.00  0.00    +0.109 C 
ATOM     17  C   UNL     1      -4.956   4.115  24.608  0.00  0.00    +0.212 C 
ATOM     21  C   UNL     1      -5.935   4.733  25.573  0.00  0.00    +0.109 C 
ENDBRANCH   4   8
ENDBRANCH   7   4
BRANCH   7  11
ATOM     11  C   UNL     1      -1.318  -1.999  24.945  0.00  0.00    +0.085 C 
BRANCH  11  16
ATOM      2  O   UNL     1       0.398   0.968  23.802  0.00  0.00    -0.359 OA
ATOM      6  N   UNL     1       0.034  -0.367  23.679  0.00  0.00    -0.083 NA
ATOM     16  C   UNL     1      -0.730  -0.617  24.746  0.00  0.00    +0.086 A 
ATOM     18  C   UNL     1      -0.881   0.512  25.570  0.00  0.00    +0.071 A 
ATOM     19  C   UNL     1      -0.152   1.481  24.931  0.00  0.00    +0.138 A 
BRANCH  19  20
ATOM     20  C   UNL     1       0.133   2.891  25.219  0.00  0.00    +0.080 C 
BRANCH  20  22
ATOM     22  C   UNL     1      -1.077   3.860  25.064  0.00  0.00    -0.010 C 
ATOM     23  C   UNL     1      -0.608   5.296  24.818  0.00  0.00    +0.007 C 
ATOM     24  C   UNL     1      -1.989   3.819  26.292  0.00  0.00    +0.007 C 
ENDBRANCH  20  22
ENDBRANCH  19  20
ENDBRANCH  11  16
ENDBRANCH   7  11
TORSDOF 6
ENDMDL
MODEL 6
REMARK VINA RESULT:      -2.5      1.759      4.642
REMARK  Name = 56775669
REMARK  9 active torsions:
REMARK  status: ('A' for Active; 'I' for Inactive)
REMARK    1  A    between atoms: N_4  and  C_7
REMARK    2  A    between atoms: N_4  and  C_8
REMARK    3  A    between atoms: C_7  and  C_11
REMARK    4  A    between atoms: C_11  and  C_16
REMARK    5  A    between atoms: C_17  and  C_21
REMARK    6  A    between atoms: C_19  and  C_20
REMARK    7  A    between atoms: C_20  and  C_22
REMARK    8  A    between atoms: C_22  and  C_23
REMARK    9  A    between atoms: C_22  and  C_24
REMARK                            x       y       z     vdW  Elec       q    Type
REMARK                         _______ _______ _______ _____ _____    ______ ____
ROOT
ATOM      1  O   UNL     1      -3.514  -2.529  25.323  0.00  0.00    -0.376 OA
ATOM      7  C   UNL     1      -4.142  -0.724  24.373  0.00  0.00    +0.072 C 
ATOM      9  C   UNL     1      -3.396  -1.124  25.641  0.00  0.00    +0.184 C 
ATOM     10  C   UNL     1      -4.309  -2.223  24.155  0.00  0.00    +0.184 C 
ENDROOT
BRANCH   7   4
ATOM      4  N   UNL     1      -3.174  -0.210  23.399  0.00  0.00    -0.304 NA
ATOM     25  H   UNL     1      -3.450   0.651  22.927  0.00  0.00    +0.123 HD
BRANCH   4   8
ATOM      3  O   UNL     1       2.666   1.674  23.009  0.00  0.00    -0.276 OA
ATOM      5  N   UNL     1       0.988   0.335  23.896  0.00  0.00    -0.302 N 
ATOM      8  C   UNL     1      -1.879  -0.036  24.053  0.00  0.00    +0.057 C 
ATOM     12  C   UNL     1      -0.940  -1.189  23.678  0.00  0.00    +0.037 C 
ATOM     13  C   UNL     1      -1.262   1.310  23.651  0.00  0.00    +0.037 C 
ATOM     14  C   UNL     1       0.452  -0.979  24.274  0.00  0.00    +0.109 C 
ATOM     15  C   UNL     1       0.134   1.471  24.249  0.00  0.00    +0.109 C 
ATOM     17  C   UNL     1       2.222   0.557  23.285  0.00  0.00    +0.212 C 
ATOM     21  C   UNL     1       3.041  -0.665  22.951  0.00  0.00    +0.109 C 
ENDBRANCH   4   8
ENDBRANCH   7   4
BRANCH   7  11
ATOM     11  C   UNL     1      -5.363   0.135  24.490  0.00  0.00    +0.085 C 
BRANCH  11  16
ATOM      2  O   UNL     1      -5.036   3.450  25.889  0.00  0.00    -0.359 OA
ATOM      6  N   UNL     1      -5.614   2.187  25.839  0.00  0.00    -0.083 NA
ATOM     16  C   UNL     1      -4.987   1.560  24.839  0.00  0.00    +0.086 A 
ATOM     18  C   UNL     1      -4.015   2.370  24.228  0.00  0.00    +0.071 A 
ATOM     19  C   UNL     1      -4.086   3.547  24.926  0.00  0.00    +0.138 A 
BRANCH  19  20
ATOM     20  C   UNL     1      -3.370   4.825  24.836  0.00  0.00    +0.080 C 
BRANCH  20  22
ATOM     22  C   UNL     1      -2.006   4.878  25.587  0.00  0.00    -0.010 C 
ATOM     23  C   UNL     1      -0.851   5.142  24.617  0.00  0.00    +0.007 C 
ATOM     24  C   UNL     1      -1.742   3.585  26.362  0.00  0.00    +0.007 C 
ENDBRANCH  20  22
ENDBRANCH  19  20
ENDBRANCH  11  16
ENDBRANCH   7  11
TORSDOF 6
ENDMDL
MODEL 7
REMARK VINA RESULT:      -2.5      1.716      6.277
REMARK  Name = 56775669
REMARK  9 active torsions:
REMARK  status: ('A' for Active; 'I' for Inactive)
REMARK    1  A    between atoms: N_4  and  C_7
REMARK    2  A    between atoms: N_4  and  C_8
REMARK    3  A    between atoms: C_7  and  C_11
REMARK    4  A    between atoms: C_11  and  C_16
REMARK    5  A    between atoms: C_17  and  C_21
REMARK    6  A    between atoms: C_19  and  C_20
REMARK    7  A    between atoms: C_20  and  C_22
REMARK    8  A    between atoms: C_22  and  C_23
REMARK    9  A    between atoms: C_22  and  C_24
REMARK                            x       y       z     vdW  Elec       q    Type
REMARK                         _______ _______ _______ _____ _____    ______ ____
ROOT
ATOM      1  O   UNL     1      -3.004  -3.294  24.979  0.00  0.00    -0.376 OA
ATOM      7  C   UNL     1      -2.717  -1.211  24.610  0.00  0.00    +0.072 C 
ATOM      9  C   UNL     1      -1.993  -2.516  24.299  0.00  0.00    +0.184 C 
ATOM     10  C   UNL     1      -3.690  -2.088  25.388  0.00  0.00    +0.184 C 
ENDROOT
BRANCH   7   4
ATOM      4  N   UNL     1      -3.378  -0.738  23.390  0.00  0.00    -0.304 NA
ATOM     25  H   UNL     1      -4.122  -1.341  23.039  0.00  0.00    +0.123 HD
BRANCH   4   8
ATOM      3  O   UNL     1      -2.212   5.082  24.994  0.00  0.00    -0.276 OA
ATOM      5  N   UNL     1      -3.613   3.239  24.802  0.00  0.00    -0.302 N 
ATOM      8  C   UNL     1      -3.885   0.614  23.610  0.00  0.00    +0.057 C 
ATOM     12  C   UNL     1      -4.136   0.847  25.105  0.00  0.00    +0.037 C 
ATOM     13  C   UNL     1      -2.886   1.646  23.067  0.00  0.00    +0.037 C 
ATOM     14  C   UNL     1      -4.576   2.287  25.370  0.00  0.00    +0.109 C 
ATOM     15  C   UNL     1      -3.352   3.068  23.371  0.00  0.00    +0.109 C 
ATOM     17  C   UNL     1      -2.992   4.272  25.502  0.00  0.00    +0.212 C 
ATOM     21  C   UNL     1      -3.310   4.380  26.972  0.00  0.00    +0.109 C 
ENDBRANCH   4   8
ENDBRANCH   7   4
BRANCH   7  11
ATOM     11  C   UNL     1      -1.979  -0.126  25.331  0.00  0.00    +0.085 C 
BRANCH  11  16
ATOM      2  O   UNL     1       0.956   1.431  23.909  0.00  0.00    -0.359 OA
ATOM      6  N   UNL     1      -0.219   1.466  24.652  0.00  0.00    -0.083 NA
ATOM     16  C   UNL     1      -0.689   0.216  24.614  0.00  0.00    +0.086 A 
ATOM     18  C   UNL     1       0.138  -0.643  23.869  0.00  0.00    +0.071 A 
ATOM     19  C   UNL     1       1.157   0.171  23.449  0.00  0.00    +0.138 A 
BRANCH  19  20
ATOM     20  C   UNL     1       2.361  -0.047  22.638  0.00  0.00    +0.080 C 
BRANCH  20  22
ATOM     22  C   UNL     1       3.706  -0.024  23.424  0.00  0.00    -0.010 C 
ATOM     23  C   UNL     1       4.777   0.763  22.665  0.00  0.00    +0.007 C 
ATOM     24  C   UNL     1       4.213  -1.440  23.710  0.00  0.00    +0.007 C 
ENDBRANCH  20  22
ENDBRANCH  19  20
ENDBRANCH  11  16
ENDBRANCH   7  11
TORSDOF 6
ENDMDL
MODEL 8
REMARK VINA RESULT:      -1.9      2.109      5.203
REMARK  Name = 56775669
REMARK  9 active torsions:
REMARK  status: ('A' for Active; 'I' for Inactive)
REMARK    1  A    between atoms: N_4  and  C_7
REMARK    2  A    between atoms: N_4  and  C_8
REMARK    3  A    between atoms: C_7  and  C_11
REMARK    4  A    between atoms: C_11  and  C_16
REMARK    5  A    between atoms: C_17  and  C_21
REMARK    6  A    between atoms: C_19  and  C_20
REMARK    7  A    between atoms: C_20  and  C_22
REMARK    8  A    between atoms: C_22  and  C_23
REMARK    9  A    between atoms: C_22  and  C_24
REMARK                            x       y       z     vdW  Elec       q    Type
REMARK                         _______ _______ _______ _____ _____    ______ ____
ROOT
ATOM      1  O   UNL     1       0.753   0.935  22.836  0.00  0.00    -0.376 OA
ATOM      7  C   UNL     1      -0.132   1.997  24.463  0.00  0.00    +0.072 C 
ATOM      9  C   UNL     1       1.263   1.550  24.040  0.00  0.00    +0.184 C 
ATOM     10  C   UNL     1      -0.605   1.245  23.225  0.00  0.00    +0.184 C 
ENDROOT
BRANCH   7   4
ATOM      4  N   UNL     1      -0.259   3.437  24.219  0.00  0.00    -0.304 NA
ATOM     25  H   UNL     1       0.142   3.765  23.341  0.00  0.00    +0.123 HD
BRANCH   4   8
ATOM      3  O   UNL     1      -5.741   2.623  26.885  0.00  0.00    -0.276 OA
ATOM      5  N   UNL     1      -4.389   3.225  25.094  0.00  0.00    -0.302 N 
ATOM      8  C   UNL     1      -1.667   3.817  24.305  0.00  0.00    +0.057 C 
ATOM     12  C   UNL     1      -2.531   2.822  23.522  0.00  0.00    +0.037 C 
ATOM     13  C   UNL     1      -2.110   3.872  25.773  0.00  0.00    +0.037 C 
ATOM     14  C   UNL     1      -4.018   3.146  23.675  0.00  0.00    +0.109 C 
ATOM     15  C   UNL     1      -3.602   4.177  25.882  0.00  0.00    +0.109 C 
ATOM     17  C   UNL     1      -5.424   2.512  25.697  0.00  0.00    +0.212 C 
ATOM     21  C   UNL     1      -6.185   1.551  24.819  0.00  0.00    +0.109 C 
ENDBRANCH   4   8
ENDBRANCH   7   4
BRANCH   7  11
ATOM     11  C   UNL     1      -0.649   1.585  25.807  0.00  0.00    +0.085 C 
BRANCH  11  16
ATOM      2  O   UNL     1      -1.221  -1.981  25.688  0.00  0.00    -0.359 OA
ATOM      6  N   UNL     1      -0.389  -0.868  25.726  0.00  0.00    -0.083 NA
ATOM     16  C   UNL     1      -1.215   0.181  25.758  0.00  0.00    +0.086 A 
ATOM     18  C   UNL     1      -2.567  -0.204  25.742  0.00  0.00    +0.071 A 
ATOM     19  C   UNL     1      -2.515  -1.573  25.699  0.00  0.00    +0.138 A 
BRANCH  19  20
ATOM     20  C   UNL     1      -3.536  -2.626  25.662  0.00  0.00    +0.080 C 
BRANCH  20  22
ATOM     22  C   UNL     1      -3.987  -3.067  24.238  0.00  0.00    -0.010 C 
ATOM     23  C   UNL     1      -2.816  -3.649  23.442  0.00  0.00    +0.007 C 
ATOM     24  C   UNL     1      -4.609  -1.903  23.462  0.00  0.00    +0.007 C 
ENDBRANCH  20  22
ENDBRANCH  19  20
ENDBRANCH  11  16
ENDBRANCH   7  11
TORSDOF 6
ENDMDL
MODEL 9
REMARK VINA RESULT:      -1.4      2.560      4.625
REMARK  Name = 56775669
REMARK  9 active torsions:
REMARK  status: ('A' for Active; 'I' for Inactive)
REMARK    1  A    between atoms: N_4  and  C_7
REMARK    2  A    between atoms: N_4  and  C_8
REMARK    3  A    between atoms: C_7  and  C_11
REMARK    4  A    between atoms: C_11  and  C_16
REMARK    5  A    between atoms: C_17  and  C_21
REMARK    6  A    between atoms: C_19  and  C_20
REMARK    7  A    between atoms: C_20  and  C_22
REMARK    8  A    between atoms: C_22  and  C_23
REMARK    9  A    between atoms: C_22  and  C_24
REMARK                            x       y       z     vdW  Elec       q    Type
REMARK                         _______ _______ _______ _____ _____    ______ ____
ROOT
ATOM      1  O   UNL     1       0.865   2.416  27.231  0.00  0.00    -0.376 OA
ATOM      7  C   UNL     1      -0.307   3.097  25.582  0.00  0.00    +0.072 C 
ATOM      9  C   UNL     1       1.156   3.129  26.008  0.00  0.00    +0.184 C 
ATOM     10  C   UNL     1      -0.550   2.434  26.932  0.00  0.00    +0.184 C 
ENDROOT
BRANCH   7   4
ATOM      4  N   UNL     1      -0.468   2.093  24.526  0.00  0.00    -0.304 NA
ATOM     25  H   UNL     1       0.376   1.884  23.994  0.00  0.00    +0.123 HD
BRANCH   4   8
ATOM      3  O   UNL     1      -2.303  -3.717  23.692  0.00  0.00    -0.276 OA
ATOM      5  N   UNL     1      -2.368  -1.673  24.795  0.00  0.00    -0.302 N 
ATOM      8  C   UNL     1      -1.018   0.869  25.104  0.00  0.00    +0.057 C 
ATOM     12  C   UNL     1      -2.525   0.788  24.834  0.00  0.00    +0.037 C 
ATOM     13  C   UNL     1      -0.302  -0.357  24.522  0.00  0.00    +0.037 C 
ATOM     14  C   UNL     1      -3.105  -0.530  25.347  0.00  0.00    +0.109 C 
ATOM     15  C   UNL     1      -0.925  -1.651  25.043  0.00  0.00    +0.109 C 
ATOM     17  C   UNL     1      -2.939  -2.749  24.116  0.00  0.00    +0.212 C 
ATOM     21  C   UNL     1      -4.431  -2.696  23.899  0.00  0.00    +0.109 C 
ENDBRANCH   4   8
ENDBRANCH   7   4
BRANCH   7  11
ATOM     11  C   UNL     1      -1.001   4.387  25.270  0.00  0.00    +0.085 C 
BRANCH  11  16
ATOM      2  O   UNL     1      -4.314   3.823  23.942  0.00  0.00    -0.359 OA
ATOM      6  N   UNL     1      -2.944   4.011  23.795  0.00  0.00    -0.083 NA
ATOM     16  C   UNL     1      -2.481   4.160  25.040  0.00  0.00    +0.086 A 
ATOM     18  C   UNL     1      -3.501   4.079  26.003  0.00  0.00    +0.071 A 
ATOM     19  C   UNL     1      -4.633   3.865  25.260  0.00  0.00    +0.138 A 
BRANCH  19  20
ATOM     20  C   UNL     1      -6.049   3.685  25.599  0.00  0.00    +0.080 C 
BRANCH  20  22
ATOM     22  C   UNL     1      -6.543   2.207  25.631  0.00  0.00    -0.010 C 
ATOM     23  C   UNL     1      -6.282   1.567  26.997  0.00  0.00    +0.007 C 
ATOM     24  C   UNL     1      -5.879   1.370  24.535  0.00  0.00    +0.007 C 
ENDBRANCH  20  22
ENDBRANCH  19  20
ENDBRANCH  11  16
ENDBRANCH   7  11
TORSDOF 6
ENDMDL
MODEL 10
REMARK VINA RESULT:      -1.4      1.564      5.327
REMARK  Name = 56775669
REMARK  9 active torsions:
REMARK  status: ('A' for Active; 'I' for Inactive)
REMARK    1  A    between atoms: N_4  and  C_7
REMARK    2  A    between atoms: N_4  and  C_8
REMARK    3  A    between atoms: C_7  and  C_11
REMARK    4  A    between atoms: C_11  and  C_16
REMARK    5  A    between atoms: C_17  and  C_21
REMARK    6  A    between atoms: C_19  and  C_20
REMARK    7  A    between atoms: C_20  and  C_22
REMARK    8  A    between atoms: C_22  and  C_23
REMARK    9  A    between atoms: C_22  and  C_24
REMARK                            x       y       z     vdW  Elec       q    Type
REMARK                         _______ _______ _______ _____ _____    ______ ____
ROOT
ATOM      1  O   UNL     1      -1.676   5.312  25.391  0.00  0.00    -0.376 OA
ATOM      7  C   UNL     1      -2.268   3.334  24.851  0.00  0.00    +0.072 C 
ATOM      9  C   UNL     1      -2.600   4.346  25.941  0.00  0.00    +0.184 C 
ATOM     10  C   UNL     1      -1.247   4.365  24.386  0.00  0.00    +0.184 C 
ENDROOT
BRANCH   7   4
ATOM      4  N   UNL     1      -3.374   3.298  23.890  0.00  0.00    -0.304 NA
ATOM     25  H   UNL     1      -3.133   3.579  22.940  0.00  0.00    +0.123 HD
BRANCH   4   8
ATOM      3  O   UNL     1      -3.455  -2.391  26.222  0.00  0.00    -0.276 OA
ATOM      5  N   UNL     1      -3.811  -0.860  24.512  0.00  0.00    -0.302 N 
ATOM      8  C   UNL     1      -3.967   1.962  23.886  0.00  0.00    +0.057 C 
ATOM     12  C   UNL     1      -3.101   1.003  23.060  0.00  0.00    +0.037 C 
ATOM     13  C   UNL     1      -4.115   1.448  25.323  0.00  0.00    +0.037 C 
ATOM     14  C   UNL     1      -3.649  -0.422  23.120  0.00  0.00    +0.109 C 
ATOM     15  C   UNL     1      -4.646   0.015  25.338  0.00  0.00    +0.109 C 
ATOM     17  C   UNL     1      -3.275  -2.026  25.058  0.00  0.00    +0.212 C 
ATOM     21  C   UNL     1      -2.425  -2.872  24.144  0.00  0.00    +0.109 C 
ENDBRANCH   4   8
ENDBRANCH   7   4
BRANCH   7  11
ATOM     11  C   UNL     1      -1.796   1.969  25.247  0.00  0.00    +0.085 C 
BRANCH  11  16
ATOM      2  O   UNL     1       1.573   1.942  23.939  0.00  0.00    -0.359 OA
ATOM      6  N   UNL     1       0.520   2.547  24.615  0.00  0.00    -0.083 NA
ATOM     16  C   UNL     1      -0.468   1.648  24.591  0.00  0.00    +0.086 A 
ATOM     18  C   UNL     1      -0.100   0.468  23.922  0.00  0.00    +0.071 A 
ATOM     19  C   UNL     1       1.192   0.705  23.532  0.00  0.00    +0.138 A 
BRANCH  19  20
ATOM     20  C   UNL     1       2.191  -0.080  22.797  0.00  0.00    +0.080 C 
BRANCH  20  22
ATOM     22  C   UNL     1       3.632  -0.043  23.387  0.00  0.00    -0.010 C 
ATOM     23  C   UNL     1       4.606   0.643  22.425  0.00  0.00    +0.007 C 
ATOM     24  C   UNL     1       4.140  -1.450  23.716  0.00  0.00    +0.007 C 
ENDBRANCH  20  22
ENDBRANCH  19  20
ENDBRANCH  11  16
ENDBRANCH   7  11
TORSDOF 6
ENDMDL
