MODEL 1
REMARK VINA RESULT:      -0.4      0.000      0.000
REMARK  Name = 71694202
REMARK  6 active torsions:
REMARK  status: ('A' for Active; 'I' for Inactive)
REMARK    1  A    between atoms: N_3  and  C_11
REMARK    2  A    between atoms: N_6  and  C_22
REMARK    3  A    between atoms: C_8  and  C_13
REMARK    4  A    between atoms: C_11  and  C_14
REMARK    5  A    between atoms: C_15  and  C_19
REMARK    6  A    between atoms: C_27  and  C_28
REMARK                            x       y       z     vdW  Elec       q    Type
REMARK                         _______ _______ _______ _____ _____    ______ ____
ROOT
ATOM      1  O   UNL     1      -3.141  -2.781  24.918  0.00  0.00    -0.377 OA
ATOM      3  N   UNL     1      -2.972  -0.199  23.689  0.00  0.00    -0.285 NA
ATOM      8  C   UNL     1      -1.759  -0.904  24.179  0.00  0.00    +0.149 C 
ATOM      9  C   UNL     1      -4.158  -0.643  24.442  0.00  0.00    +0.113 C 
ATOM     10  C   UNL     1      -1.987  -2.428  24.155  0.00  0.00    +0.186 C 
ATOM     12  C   UNL     1      -4.304  -2.158  24.376  0.00  0.00    +0.175 C 
ENDROOT
BRANCH   8  13
ATOM      4  N   UNL     1       0.738  -0.653  23.950  0.00  0.00    -0.341 N 
ATOM      5  N   UNL     1      -0.443  -0.209  22.123  0.00  0.00    -0.238 NA
ATOM     13  C   UNL     1      -0.503  -0.580  23.383  0.00  0.00    +0.127 A 
ATOM     15  C   UNL     1       1.648  -0.307  22.992  0.00  0.00    +0.066 A 
ATOM     16  C   UNL     1       0.896  -0.037  21.873  0.00  0.00    +0.139 A 
ATOM     29  H   UNL     1       0.938  -0.925  24.904  0.00  0.00    +0.167 HD
BRANCH  15  19
ATOM      7  N   UNL     1       5.827  -0.193  23.672  0.00  0.00    -0.263 NA
ATOM     19  C   UNL     1       3.068  -0.269  23.224  0.00  0.00    +0.003 A 
ATOM     23  C   UNL     1       3.717  -1.368  23.775  0.00  0.00    +0.029 A 
ATOM     24  C   UNL     1       3.798   0.869  22.897  0.00  0.00    +0.029 A 
ATOM     25  C   UNL     1       5.084  -1.281  23.976  0.00  0.00    +0.111 A 
ATOM     26  C   UNL     1       5.162   0.857  23.138  0.00  0.00    +0.111 A 
ENDBRANCH  15  19
ENDBRANCH   8  13
BRANCH   3  11
ATOM     11  C   UNL     1      -2.848   1.259  23.804  0.00  0.00    +0.120 C 
BRANCH  11  14
ATOM     14  C   UNL     1      -1.716   1.655  24.715  0.00  0.00    -0.033 A 
ATOM     17  C   UNL     1      -1.521   0.978  25.918  0.00  0.00    +0.007 A 
ATOM     18  C   UNL     1      -0.864   2.698  24.354  0.00  0.00    +0.007 A 
ATOM     20  C   UNL     1      -0.474   1.345  26.763  0.00  0.00    +0.023 A 
ATOM     21  C   UNL     1       0.184   3.065  25.199  0.00  0.00    +0.023 A 
ATOM     22  C   UNL     1       0.379   2.389  26.404  0.00  0.00    +0.033 A 
BRANCH  22   6
ATOM      2  O   UNL     1       0.586   2.318  29.406  0.00  0.00    -0.276 OA
ATOM      6  N   UNL     1       1.427   2.756  27.248  0.00  0.00    -0.286 N 
ATOM     27  C   UNL     1       1.469   2.703  28.647  0.00  0.00    +0.214 C 
ATOM     28  C   UNL     1       2.791   3.193  29.185  0.00  0.00    +0.109 C 
ATOM     30  H   UNL     1       2.261   3.104  26.778  0.00  0.00    +0.155 HD
ENDBRANCH  22   6
ENDBRANCH  11  14
ENDBRANCH   3  11
TORSDOF 5
ENDMDL
MODEL 2
REMARK VINA RESULT:       0.5      2.720      5.797
REMARK  Name = 71694202
REMARK  6 active torsions:
REMARK  status: ('A' for Active; 'I' for Inactive)
REMARK    1  A    between atoms: N_3  and  C_11
REMARK    2  A    between atoms: N_6  and  C_22
REMARK    3  A    between atoms: C_8  and  C_13
REMARK    4  A    between atoms: C_11  and  C_14
REMARK    5  A    between atoms: C_15  and  C_19
REMARK    6  A    between atoms: C_27  and  C_28
REMARK                            x       y       z     vdW  Elec       q    Type
REMARK                         _______ _______ _______ _____ _____    ______ ____
ROOT
ATOM      1  O   UNL     1      -4.382  -2.968  23.190  0.00  0.00    -0.377 OA
ATOM      3  N   UNL     1      -3.451  -1.687  25.577  0.00  0.00    -0.285 NA
ATOM      8  C   UNL     1      -3.651  -0.925  24.318  0.00  0.00    +0.149 C 
ATOM      9  C   UNL     1      -3.174  -3.103  25.277  0.00  0.00    +0.113 C 
ATOM     10  C   UNL     1      -4.728  -1.607  23.452  0.00  0.00    +0.186 C 
ATOM     12  C   UNL     1      -4.278  -3.697  24.411  0.00  0.00    +0.175 C 
ENDROOT
BRANCH   8  13
ATOM      4  N   UNL     1      -3.147   1.544  24.374  0.00  0.00    -0.341 N 
ATOM      5  N   UNL     1      -5.227   0.976  24.903  0.00  0.00    -0.238 NA
ATOM     13  C   UNL     1      -4.045   0.528  24.542  0.00  0.00    +0.127 A 
ATOM     15  C   UNL     1      -3.795   2.715  24.646  0.00  0.00    +0.066 A 
ATOM     16  C   UNL     1      -5.078   2.339  24.970  0.00  0.00    +0.139 A 
ATOM     29  H   UNL     1      -2.181   1.439  24.090  0.00  0.00    +0.167 HD
BRANCH  15  19
ATOM      7  N   UNL     1      -1.937   6.514  24.441  0.00  0.00    -0.263 NA
ATOM     19  C   UNL     1      -3.164   4.006  24.575  0.00  0.00    +0.003 A 
ATOM     23  C   UNL     1      -3.730   5.020  23.812  0.00  0.00    +0.029 A 
ATOM     24  C   UNL     1      -1.983   4.245  25.271  0.00  0.00    +0.029 A 
ATOM     25  C   UNL     1      -3.085   6.245  23.779  0.00  0.00    +0.111 A 
ATOM     26  C   UNL     1      -1.415   5.504  25.172  0.00  0.00    +0.111 A 
ENDBRANCH  15  19
ENDBRANCH   8  13
BRANCH   3  11
ATOM     11  C   UNL     1      -2.351  -1.144  26.383  0.00  0.00    +0.120 C 
BRANCH  11  14
ATOM     14  C   UNL     1      -1.234  -0.616  25.522  0.00  0.00    -0.033 A 
ATOM     17  C   UNL     1      -0.769   0.686  25.704  0.00  0.00    +0.007 A 
ATOM     18  C   UNL     1      -0.665  -1.429  24.542  0.00  0.00    +0.007 A 
ATOM     20  C   UNL     1       0.265   1.176  24.906  0.00  0.00    +0.023 A 
ATOM     21  C   UNL     1       0.369  -0.940  23.744  0.00  0.00    +0.023 A 
ATOM     22  C   UNL     1       0.834   0.363  23.926  0.00  0.00    +0.033 A 
BRANCH  22   6
ATOM      2  O   UNL     1       3.561  -0.773  23.346  0.00  0.00    -0.276 OA
ATOM      6  N   UNL     1       1.868   0.853  23.128  0.00  0.00    -0.286 N 
ATOM     27  C   UNL     1       3.125   0.280  22.893  0.00  0.00    +0.214 C 
ATOM     28  C   UNL     1       3.960   1.126  21.965  0.00  0.00    +0.109 C 
ATOM     30  H   UNL     1       1.675   1.737  22.662  0.00  0.00    +0.155 HD
ENDBRANCH  22   6
ENDBRANCH  11  14
ENDBRANCH   3  11
TORSDOF 5
ENDMDL
MODEL 3
REMARK VINA RESULT:       0.7      3.058      5.629
REMARK  Name = 71694202
REMARK  6 active torsions:
REMARK  status: ('A' for Active; 'I' for Inactive)
REMARK    1  A    between atoms: N_3  and  C_11
REMARK    2  A    between atoms: N_6  and  C_22
REMARK    3  A    between atoms: C_8  and  C_13
REMARK    4  A    between atoms: C_11  and  C_14
REMARK    5  A    between atoms: C_15  and  C_19
REMARK    6  A    between atoms: C_27  and  C_28
REMARK                            x       y       z     vdW  Elec       q    Type
REMARK                         _______ _______ _______ _____ _____    ______ ____
ROOT
ATOM      1  O   UNL     1      -6.655   4.783  25.488  0.00  0.00    -0.377 OA
ATOM      3  N   UNL     1      -3.966   3.836  25.766  0.00  0.00    -0.285 NA
ATOM      8  C   UNL     1      -5.126   2.911  25.860  0.00  0.00    +0.149 C 
ATOM      9  C   UNL     1      -4.370   5.200  26.149  0.00  0.00    +0.113 C 
ATOM     10  C   UNL     1      -6.312   3.468  25.049  0.00  0.00    +0.186 C 
ATOM     12  C   UNL     1      -5.552   5.669  25.310  0.00  0.00    +0.175 C 
ENDROOT
BRANCH   8  13
ATOM      4  N   UNL     1      -3.579   0.948  25.537  0.00  0.00    -0.341 N 
ATOM      5  N   UNL     1      -5.651   0.671  24.789  0.00  0.00    -0.238 NA
ATOM     13  C   UNL     1      -4.819   1.500  25.381  0.00  0.00    +0.127 A 
ATOM     15  C   UNL     1      -3.621  -0.312  25.013  0.00  0.00    +0.066 A 
ATOM     16  C   UNL     1      -4.910  -0.461  24.557  0.00  0.00    +0.139 A 
ATOM     29  H   UNL     1      -2.782   1.396  25.973  0.00  0.00    +0.167 HD
BRANCH  15  19
ATOM      7  N   UNL     1      -0.293  -2.931  24.966  0.00  0.00    -0.263 NA
ATOM     19  C   UNL     1      -2.491  -1.203  24.997  0.00  0.00    +0.003 A 
ATOM     23  C   UNL     1      -2.548  -2.393  24.281  0.00  0.00    +0.029 A 
ATOM     24  C   UNL     1      -1.334  -0.876  25.698  0.00  0.00    +0.029 A 
ATOM     25  C   UNL     1      -1.433  -3.214  24.296  0.00  0.00    +0.111 A 
ATOM     26  C   UNL     1      -0.274  -1.766  25.651  0.00  0.00    +0.111 A 
ENDBRANCH  15  19
ENDBRANCH   8  13
BRANCH   3  11
ATOM     11  C   UNL     1      -2.849   3.409  26.618  0.00  0.00    +0.120 C 
BRANCH  11  14
ATOM     14  C   UNL     1      -1.669   2.947  25.804  0.00  0.00    -0.033 A 
ATOM     17  C   UNL     1      -1.735   2.961  24.411  0.00  0.00    +0.007 A 
ATOM     18  C   UNL     1      -0.512   2.505  26.444  0.00  0.00    +0.007 A 
ATOM     20  C   UNL     1      -0.642   2.532  23.658  0.00  0.00    +0.023 A 
ATOM     21  C   UNL     1       0.581   2.077  25.690  0.00  0.00    +0.023 A 
ATOM     22  C   UNL     1       0.516   2.090  24.297  0.00  0.00    +0.033 A 
BRANCH  22   6
ATOM      2  O   UNL     1       0.990  -0.503  22.842  0.00  0.00    -0.276 OA
ATOM      6  N   UNL     1       1.608   1.661  23.543  0.00  0.00    -0.286 N 
ATOM     27  C   UNL     1       1.778   0.436  22.885  0.00  0.00    +0.214 C 
ATOM     28  C   UNL     1       3.108   0.362  22.176  0.00  0.00    +0.109 C 
ATOM     30  H   UNL     1       2.372   2.330  23.467  0.00  0.00    +0.155 HD
ENDBRANCH  22   6
ENDBRANCH  11  14
ENDBRANCH   3  11
TORSDOF 5
ENDMDL
MODEL 4
REMARK VINA RESULT:       1.1      2.742      5.664
REMARK  Name = 71694202
REMARK  6 active torsions:
REMARK  status: ('A' for Active; 'I' for Inactive)
REMARK    1  A    between atoms: N_3  and  C_11
REMARK    2  A    between atoms: N_6  and  C_22
REMARK    3  A    between atoms: C_8  and  C_13
REMARK    4  A    between atoms: C_11  and  C_14
REMARK    5  A    between atoms: C_15  and  C_19
REMARK    6  A    between atoms: C_27  and  C_28
REMARK                            x       y       z     vdW  Elec       q    Type
REMARK                         _______ _______ _______ _____ _____    ______ ____
ROOT
ATOM      1  O   UNL     1      -3.633  -3.101  25.361  0.00  0.00    -0.377 OA
ATOM      3  N   UNL     1      -1.953  -1.149  24.107  0.00  0.00    -0.285 NA
ATOM      8  C   UNL     1      -3.380  -0.864  24.407  0.00  0.00    +0.149 C 
ATOM      9  C   UNL     1      -1.748  -2.599  23.937  0.00  0.00    +0.113 C 
ATOM     10  C   UNL     1      -3.848  -1.711  25.606  0.00  0.00    +0.186 C 
ATOM     12  C   UNL     1      -2.245  -3.361  25.159  0.00  0.00    +0.175 C 
ENDROOT
BRANCH   8  13
ATOM      4  N   UNL     1      -2.669   1.544  24.630  0.00  0.00    -0.341 N 
ATOM      5  N   UNL     1      -4.813   1.133  25.038  0.00  0.00    -0.238 NA
ATOM     13  C   UNL     1      -3.658   0.603  24.700  0.00  0.00    +0.127 A 
ATOM     15  C   UNL     1      -3.227   2.751  24.944  0.00  0.00    +0.066 A 
ATOM     16  C   UNL     1      -4.551   2.472  25.192  0.00  0.00    +0.139 A 
ATOM     29  H   UNL     1      -1.704   1.371  24.381  0.00  0.00    +0.167 HD
BRANCH  15  19
ATOM      7  N   UNL     1      -1.042   6.377  25.039  0.00  0.00    -0.263 NA
ATOM     19  C   UNL     1      -2.486   3.983  24.976  0.00  0.00    +0.003 A 
ATOM     23  C   UNL     1      -3.127   5.177  25.283  0.00  0.00    +0.029 A 
ATOM     24  C   UNL     1      -1.122   3.985  24.699  0.00  0.00    +0.029 A 
ATOM     25  C   UNL     1      -2.368   6.336  25.303  0.00  0.00    +0.111 A 
ATOM     26  C   UNL     1      -0.453   5.197  24.744  0.00  0.00    +0.111 A 
ENDBRANCH  15  19
ENDBRANCH   8  13
BRANCH   3  11
ATOM     11  C   UNL     1      -1.493  -0.455  22.899  0.00  0.00    +0.120 C 
BRANCH  11  14
ATOM     14  C   UNL     1      -0.026  -0.120  22.969  0.00  0.00    -0.033 A 
ATOM     17  C   UNL     1       0.875  -0.750  22.110  0.00  0.00    +0.007 A 
ATOM     18  C   UNL     1       0.431   0.819  23.894  0.00  0.00    +0.007 A 
ATOM     20  C   UNL     1       2.233  -0.441  22.177  0.00  0.00    +0.023 A 
ATOM     21  C   UNL     1       1.790   1.128  23.960  0.00  0.00    +0.023 A 
ATOM     22  C   UNL     1       2.691   0.498  23.101  0.00  0.00    +0.033 A 
BRANCH  22   6
ATOM      2  O   UNL     1       5.016  -1.120  24.121  0.00  0.00    -0.276 OA
ATOM      6  N   UNL     1       4.050   0.807  23.167  0.00  0.00    -0.286 N 
ATOM     27  C   UNL     1       5.095   0.012  23.656  0.00  0.00    +0.214 C 
ATOM     28  C   UNL     1       6.426   0.714  23.552  0.00  0.00    +0.109 C 
ATOM     30  H   UNL     1       4.303   1.727  22.813  0.00  0.00    +0.155 HD
ENDBRANCH  22   6
ENDBRANCH  11  14
ENDBRANCH   3  11
TORSDOF 5
ENDMDL
MODEL 5
REMARK VINA RESULT:       1.2      2.680      5.183
REMARK  Name = 71694202
REMARK  6 active torsions:
REMARK  status: ('A' for Active; 'I' for Inactive)
REMARK    1  A    between atoms: N_3  and  C_11
REMARK    2  A    between atoms: N_6  and  C_22
REMARK    3  A    between atoms: C_8  and  C_13
REMARK    4  A    between atoms: C_11  and  C_14
REMARK    5  A    between atoms: C_15  and  C_19
REMARK    6  A    between atoms: C_27  and  C_28
REMARK                            x       y       z     vdW  Elec       q    Type
REMARK                         _______ _______ _______ _____ _____    ______ ____
ROOT
ATOM      1  O   UNL     1      -5.719   3.437  26.165  0.00  0.00    -0.377 OA
ATOM      3  N   UNL     1      -3.998   1.746  24.622  0.00  0.00    -0.285 NA
ATOM      8  C   UNL     1      -3.554   3.087  25.084  0.00  0.00    +0.149 C 
ATOM      9  C   UNL     1      -5.466   1.712  24.495  0.00  0.00    +0.113 C 
ATOM     10  C   UNL     1      -4.306   3.478  26.370  0.00  0.00    +0.186 C 
ATOM     12  C   UNL     1      -6.130   2.121  25.804  0.00  0.00    +0.175 C 
ENDROOT
BRANCH   8  13
ATOM      4  N   UNL     1      -1.525   2.883  26.565  0.00  0.00    -0.341 N 
ATOM      5  N   UNL     1      -1.129   3.527  24.477  0.00  0.00    -0.238 NA
ATOM     13  C   UNL     1      -2.056   3.177  25.341  0.00  0.00    +0.127 A 
ATOM     15  C   UNL     1      -0.173   3.056  26.478  0.00  0.00    +0.066 A 
ATOM     16  C   UNL     1       0.048   3.454  25.180  0.00  0.00    +0.139 A 
ATOM     29  H   UNL     1      -2.045   2.582  27.380  0.00  0.00    +0.167 HD
BRANCH  15  19
ATOM      7  N   UNL     1       2.478   2.416  29.717  0.00  0.00    -0.263 NA
ATOM     19  C   UNL     1       0.727   2.839  27.579  0.00  0.00    +0.003 A 
ATOM     23  C   UNL     1       0.241   2.391  28.802  0.00  0.00    +0.029 A 
ATOM     24  C   UNL     1       2.089   3.075  27.425  0.00  0.00    +0.029 A 
ATOM     25  C   UNL     1       1.149   2.196  29.830  0.00  0.00    +0.111 A 
ATOM     26  C   UNL     1       2.915   2.850  28.514  0.00  0.00    +0.111 A 
ENDBRANCH  15  19
ENDBRANCH   8  13
BRANCH   3  11
ATOM     11  C   UNL     1      -3.396   1.378  23.334  0.00  0.00    +0.120 C 
BRANCH  11  14
ATOM     14  C   UNL     1      -2.026   0.779  23.507  0.00  0.00    -0.033 A 
ATOM     17  C   UNL     1      -1.785  -0.120  24.546  0.00  0.00    +0.007 A 
ATOM     18  C   UNL     1      -0.998   1.123  22.630  0.00  0.00    +0.007 A 
ATOM     20  C   UNL     1      -0.515  -0.675  24.707  0.00  0.00    +0.023 A 
ATOM     21  C   UNL     1       0.271   0.569  22.791  0.00  0.00    +0.023 A 
ATOM     22  C   UNL     1       0.514  -0.331  23.830  0.00  0.00    +0.033 A 
BRANCH  22   6
ATOM      2  O   UNL     1       3.131   0.364  22.515  0.00  0.00    -0.276 OA
ATOM      6  N   UNL     1       1.783  -0.885  23.991  0.00  0.00    -0.286 N 
ATOM     27  C   UNL     1       2.973  -0.522  23.348  0.00  0.00    +0.214 C 
ATOM     28  C   UNL     1       4.135  -1.371  23.802  0.00  0.00    +0.109 C 
ATOM     30  H   UNL     1       1.841  -1.648  24.662  0.00  0.00    +0.155 HD
ENDBRANCH  22   6
ENDBRANCH  11  14
ENDBRANCH   3  11
TORSDOF 5
ENDMDL
MODEL 6
REMARK VINA RESULT:       1.6      1.995      5.209
REMARK  Name = 71694202
REMARK  6 active torsions:
REMARK  status: ('A' for Active; 'I' for Inactive)
REMARK    1  A    between atoms: N_3  and  C_11
REMARK    2  A    between atoms: N_6  and  C_22
REMARK    3  A    between atoms: C_8  and  C_13
REMARK    4  A    between atoms: C_11  and  C_14
REMARK    5  A    between atoms: C_15  and  C_19
REMARK    6  A    between atoms: C_27  and  C_28
REMARK                            x       y       z     vdW  Elec       q    Type
REMARK                         _______ _______ _______ _____ _____    ______ ____
ROOT
ATOM      1  O   UNL     1      -1.140   5.090  23.635  0.00  0.00    -0.377 OA
ATOM      3  N   UNL     1      -0.366   3.068  25.510  0.00  0.00    -0.285 NA
ATOM      8  C   UNL     1      -0.578   2.751  24.074  0.00  0.00    +0.149 C 
ATOM      9  C   UNL     1      -1.167   4.244  25.896  0.00  0.00    +0.113 C 
ATOM     10  C   UNL     1      -0.318   4.002  23.212  0.00  0.00    +0.186 C 
ATOM     12  C   UNL     1      -0.857   5.429  24.991  0.00  0.00    +0.175 C 
ENDROOT
BRANCH   8  13
ATOM      4  N   UNL     1       1.621   1.536  23.882  0.00  0.00    -0.341 N 
ATOM      5  N   UNL     1      -0.085   0.609  22.806  0.00  0.00    -0.238 NA
ATOM     13  C   UNL     1       0.294   1.612  23.567  0.00  0.00    +0.127 A 
ATOM     15  C   UNL     1       2.122   0.414  23.285  0.00  0.00    +0.066 A 
ATOM     16  C   UNL     1       1.050  -0.141  22.626  0.00  0.00    +0.139 A 
ATOM     29  H   UNL     1       2.131   2.191  24.462  0.00  0.00    +0.167 HD
BRANCH  15  19
ATOM      7  N   UNL     1       6.168  -0.794  23.605  0.00  0.00    -0.263 NA
ATOM     19  C   UNL     1       3.497   0.005  23.393  0.00  0.00    +0.003 A 
ATOM     23  C   UNL     1       4.519   0.911  23.135  0.00  0.00    +0.029 A 
ATOM     24  C   UNL     1       3.810  -1.301  23.757  0.00  0.00    +0.029 A 
ATOM     25  C   UNL     1       5.826   0.467  23.255  0.00  0.00    +0.111 A 
ATOM     26  C   UNL     1       5.148  -1.647  23.848  0.00  0.00    +0.111 A 
ENDBRANCH  15  19
ENDBRANCH   8  13
BRANCH   3  11
ATOM     11  C   UNL     1      -0.716   1.941  26.382  0.00  0.00    +0.120 C 
BRANCH  11  14
ATOM     14  C   UNL     1      -1.690   1.002  25.720  0.00  0.00    -0.033 A 
ATOM     17  C   UNL     1      -1.427  -0.367  25.690  0.00  0.00    +0.007 A 
ATOM     18  C   UNL     1      -2.854   1.502  25.138  0.00  0.00    +0.007 A 
ATOM     20  C   UNL     1      -2.328  -1.236  25.076  0.00  0.00    +0.023 A 
ATOM     21  C   UNL     1      -3.755   0.633  24.524  0.00  0.00    +0.023 A 
ATOM     22  C   UNL     1      -3.492  -0.737  24.492  0.00  0.00    +0.033 A 
BRANCH  22   6
ATOM      2  O   UNL     1      -3.499  -3.742  24.318  0.00  0.00    -0.276 OA
ATOM      6  N   UNL     1      -4.394  -1.606  23.878  0.00  0.00    -0.286 N 
ATOM     27  C   UNL     1      -4.347  -3.005  23.826  0.00  0.00    +0.214 C 
ATOM     28  C   UNL     1      -5.516  -3.576  23.062  0.00  0.00    +0.109 C 
ATOM     30  H   UNL     1      -5.180  -1.158  23.413  0.00  0.00    +0.155 HD
ENDBRANCH  22   6
ENDBRANCH  11  14
ENDBRANCH   3  11
TORSDOF 5
ENDMDL
MODEL 7
REMARK VINA RESULT:       2.2      2.896      6.747
REMARK  Name = 71694202
REMARK  6 active torsions:
REMARK  status: ('A' for Active; 'I' for Inactive)
REMARK    1  A    between atoms: N_3  and  C_11
REMARK    2  A    between atoms: N_6  and  C_22
REMARK    3  A    between atoms: C_8  and  C_13
REMARK    4  A    between atoms: C_11  and  C_14
REMARK    5  A    between atoms: C_15  and  C_19
REMARK    6  A    between atoms: C_27  and  C_28
REMARK                            x       y       z     vdW  Elec       q    Type
REMARK                         _______ _______ _______ _____ _____    ______ ____
ROOT
ATOM      1  O   UNL     1       3.395   1.049  22.266  0.00  0.00    -0.377 OA
ATOM      3  N   UNL     1       0.993  -0.212  23.185  0.00  0.00    -0.285 NA
ATOM      8  C   UNL     1       1.680   0.827  23.995  0.00  0.00    +0.149 C 
ATOM      9  C   UNL     1       1.959  -0.891  22.303  0.00  0.00    +0.113 C 
ATOM     10  C   UNL     1       2.471   1.777  23.075  0.00  0.00    +0.186 C 
ATOM     12  C   UNL     1       2.703   0.117  21.438  0.00  0.00    +0.175 C 
ENDROOT
BRANCH   8  13
ATOM      4  N   UNL     1      -0.419   2.175  24.350  0.00  0.00    -0.341 N 
ATOM      5  N   UNL     1       0.889   1.947  26.130  0.00  0.00    -0.238 NA
ATOM     13  C   UNL     1       0.735   1.649  24.859  0.00  0.00    +0.127 A 
ATOM     15  C   UNL     1      -1.042   2.851  25.361  0.00  0.00    +0.066 A 
ATOM     16  C   UNL     1      -0.216   2.697  26.449  0.00  0.00    +0.139 A 
ATOM     29  H   UNL     1      -0.750   2.069  23.400  0.00  0.00    +0.167 HD
BRANCH  15  19
ATOM      7  N   UNL     1      -4.727   4.882  24.886  0.00  0.00    -0.263 NA
ATOM     19  C   UNL     1      -2.294   3.542  25.199  0.00  0.00    +0.003 A 
ATOM     23  C   UNL     1      -2.740   3.893  23.930  0.00  0.00    +0.029 A 
ATOM     24  C   UNL     1      -3.064   3.861  26.312  0.00  0.00    +0.029 A 
ATOM     25  C   UNL     1      -3.953   4.555  23.828  0.00  0.00    +0.111 A 
ATOM     26  C   UNL     1      -4.262   4.525  26.104  0.00  0.00    +0.111 A 
ENDBRANCH  15  19
ENDBRANCH   8  13
BRANCH   3  11
ATOM     11  C   UNL     1       0.322  -1.212  24.023  0.00  0.00    +0.120 C 
BRANCH  11  14
ATOM     14  C   UNL     1      -1.044  -0.751  24.460  0.00  0.00    -0.033 A 
ATOM     17  C   UNL     1      -1.933  -0.224  23.524  0.00  0.00    +0.007 A 
ATOM     18  C   UNL     1      -1.419  -0.852  25.799  0.00  0.00    +0.007 A 
ATOM     20  C   UNL     1      -3.198   0.204  23.928  0.00  0.00    +0.023 A 
ATOM     21  C   UNL     1      -2.683  -0.425  26.203  0.00  0.00    +0.023 A 
ATOM     22  C   UNL     1      -3.574   0.104  25.268  0.00  0.00    +0.033 A 
BRANCH  22   6
ATOM      2  O   UNL     1      -5.476   2.058  23.992  0.00  0.00    -0.276 OA
ATOM      6  N   UNL     1      -4.838   0.531  25.671  0.00  0.00    -0.286 N 
ATOM     27  C   UNL     1      -5.684   1.449  25.036  0.00  0.00    +0.214 C 
ATOM     28  C   UNL     1      -6.973   1.641  25.798  0.00  0.00    +0.109 C 
ATOM     30  H   UNL     1      -5.180   0.118  26.537  0.00  0.00    +0.155 HD
ENDBRANCH  22   6
ENDBRANCH  11  14
ENDBRANCH   3  11
TORSDOF 5
ENDMDL
MODEL 8
REMARK VINA RESULT:       2.8      2.674      6.170
REMARK  Name = 71694202
REMARK  6 active torsions:
REMARK  status: ('A' for Active; 'I' for Inactive)
REMARK    1  A    between atoms: N_3  and  C_11
REMARK    2  A    between atoms: N_6  and  C_22
REMARK    3  A    between atoms: C_8  and  C_13
REMARK    4  A    between atoms: C_11  and  C_14
REMARK    5  A    between atoms: C_15  and  C_19
REMARK    6  A    between atoms: C_27  and  C_28
REMARK                            x       y       z     vdW  Elec       q    Type
REMARK                         _______ _______ _______ _____ _____    ______ ____
ROOT
ATOM      1  O   UNL     1       5.048  -0.954  23.592  0.00  0.00    -0.377 OA
ATOM      3  N   UNL     1       2.581   0.462  23.259  0.00  0.00    -0.285 NA
ATOM      8  C   UNL     1       2.607  -1.007  23.476  0.00  0.00    +0.149 C 
ATOM      9  C   UNL     1       3.842   0.907  22.638  0.00  0.00    +0.113 C 
ATOM     10  C   UNL     1       3.871  -1.404  24.262  0.00  0.00    +0.186 C 
ATOM     12  C   UNL     1       5.039   0.467  23.470  0.00  0.00    +0.175 C 
ENDROOT
BRANCH   8  13
ATOM      4  N   UNL     1       0.126  -1.086  23.915  0.00  0.00    -0.341 N 
ATOM      5  N   UNL     1       1.366  -2.438  25.165  0.00  0.00    -0.238 NA
ATOM     13  C   UNL     1       1.383  -1.536  24.210  0.00  0.00    +0.127 A 
ATOM     15  C   UNL     1      -0.748  -1.742  24.734  0.00  0.00    +0.066 A 
ATOM     16  C   UNL     1       0.041  -2.572  25.497  0.00  0.00    +0.139 A 
ATOM     29  H   UNL     1      -0.106  -0.398  23.210  0.00  0.00    +0.167 HD
BRANCH  15  19
ATOM      7  N   UNL     1      -4.934  -1.108  24.667  0.00  0.00    -0.263 NA
ATOM     19  C   UNL     1      -2.170  -1.527  24.712  0.00  0.00    +0.003 A 
ATOM     23  C   UNL     1      -2.736  -0.519  25.484  0.00  0.00    +0.029 A 
ATOM     24  C   UNL     1      -2.985  -2.326  23.917  0.00  0.00    +0.029 A 
ATOM     25  C   UNL     1      -4.110  -0.351  25.425  0.00  0.00    +0.111 A 
ATOM     26  C   UNL     1      -4.348  -2.079  23.930  0.00  0.00    +0.111 A 
ENDBRANCH  15  19
ENDBRANCH   8  13
BRANCH   3  11
ATOM     11  C   UNL     1       1.456   0.876  22.412  0.00  0.00    +0.120 C 
BRANCH  11  14
ATOM     14  C   UNL     1       0.349   1.503  23.218  0.00  0.00    -0.033 A 
ATOM     17  C   UNL     1      -0.954   1.515  22.721  0.00  0.00    +0.007 A 
ATOM     18  C   UNL     1       0.627   2.070  24.461  0.00  0.00    +0.007 A 
ATOM     20  C   UNL     1      -1.979   2.096  23.467  0.00  0.00    +0.023 A 
ATOM     21  C   UNL     1      -0.398   2.651  25.207  0.00  0.00    +0.023 A 
ATOM     22  C   UNL     1      -1.702   2.664  24.710  0.00  0.00    +0.033 A 
BRANCH  22   6
ATOM      2  O   UNL     1      -4.657   2.840  24.166  0.00  0.00    -0.276 OA
ATOM      6  N   UNL     1      -2.727   3.245  25.456  0.00  0.00    -0.286 N 
ATOM     27  C   UNL     1      -4.094   3.299  25.153  0.00  0.00    +0.214 C 
ATOM     28  C   UNL     1      -4.876   4.021  26.223  0.00  0.00    +0.109 C 
ATOM     30  H   UNL     1      -2.435   3.681  26.329  0.00  0.00    +0.155 HD
ENDBRANCH  22   6
ENDBRANCH  11  14
ENDBRANCH   3  11
TORSDOF 5
ENDMDL
