MODEL 1
REMARK VINA RESULT:      -1.0      0.000      0.000
REMARK  Name = 45783374
REMARK  9 active torsions:
REMARK  status: ('A' for Active; 'I' for Inactive)
REMARK    1  A    between atoms: O_2  and  C_29
REMARK    2  A    between atoms: O_2  and  C_30
REMARK    3  A    between atoms: N_3  and  C_13
REMARK    4  A    between atoms: N_6  and  C_26
REMARK    5  A    between atoms: C_9  and  C_14
REMARK    6  A    between atoms: C_13  and  C_15
REMARK    7  A    between atoms: C_18  and  C_19
REMARK    8  A    between atoms: C_20  and  C_25
REMARK    9  A    between atoms: C_26  and  C_29
REMARK                            x       y       z     vdW  Elec       q    Type
REMARK                         _______ _______ _______ _____ _____    ______ ____
ROOT
ATOM      1  O   UNL     1      -0.666  -2.749  25.380  0.00  0.00    -0.336 OA
ATOM      4  N   UNL     1      -1.080  -0.997  24.048  0.00  0.00    -0.190 NA
ATOM      5  N   UNL     1       0.577  -2.164  25.109  0.00  0.00    -0.056 NA
ATOM     14  C   UNL     1      -1.587  -2.001  24.718  0.00  0.00    +0.245 A 
ATOM     18  C   UNL     1       0.250  -1.138  24.318  0.00  0.00    +0.205 A 
ENDROOT
BRANCH  18  19
ATOM      6  N   UNL     1       0.102   1.667  24.746  0.00  0.00    -0.326 N 
ATOM      7  N   UNL     1       2.076   2.009  23.486  0.00  0.00    -0.240 NA
ATOM     19  C   UNL     1       1.226  -0.236  23.780  0.00  0.00    +0.062 A 
ATOM     23  C   UNL     1       1.171   1.135  23.980  0.00  0.00    +0.130 A 
ATOM     24  C   UNL     1       2.280  -0.741  23.025  0.00  0.00    +0.016 A 
ATOM     27  C   UNL     1       3.231   0.126  22.501  0.00  0.00    +0.020 A 
ATOM     28  C   UNL     1       3.085   1.480  22.757  0.00  0.00    +0.113 A 
ATOM     31  H   UNL     1      -0.343   1.027  25.394  0.00  0.00    +0.148 HD
BRANCH   6  26
ATOM     26  C   UNL     1      -0.038   3.062  25.004  0.00  0.00    +0.131 C 
BRANCH  26  29
ATOM     29  C   UNL     1      -1.161   3.296  26.001  0.00  0.00    +0.178 C 
BRANCH  29   2
ATOM      2  O   UNL     1      -1.791   4.538  25.721  0.00  0.00    -0.381 OA
ATOM     30  C   UNL     1      -1.011   5.332  24.839  0.00  0.00    +0.194 C 
ENDBRANCH  29   2
ENDBRANCH  26  29
ENDBRANCH   6  26
ENDBRANCH  18  19
BRANCH  14   9
ATOM      3  N   UNL     1      -3.977  -1.420  24.347  0.00  0.00    -0.287 NA
ATOM      9  C   UNL     1      -3.032  -2.434  24.853  0.00  0.00    +0.146 C 
ATOM     10  C   UNL     1      -3.351  -3.705  24.045  0.00  0.00    +0.030 C 
ATOM     11  C   UNL     1      -4.526  -3.326  23.155  0.00  0.00    +0.017 C 
ATOM     12  C   UNL     1      -5.155  -2.151  23.876  0.00  0.00    +0.085 C 
BRANCH   3  13
ATOM     13  C   UNL     1      -4.320  -0.408  25.337  0.00  0.00    +0.120 C 
BRANCH  13  15
ATOM     15  C   UNL     1      -4.238   0.984  24.770  0.00  0.00    -0.032 A 
ATOM     16  C   UNL     1      -4.982   2.017  25.340  0.00  0.00    +0.023 A 
ATOM     17  C   UNL     1      -3.415   1.240  23.673  0.00  0.00    +0.005 A 
ATOM     20  C   UNL     1      -4.904   3.305  24.815  0.00  0.00    +0.052 A 
ATOM     21  C   UNL     1      -3.336   2.530  23.148  0.00  0.00    +0.002 A 
ATOM     22  C   UNL     1      -4.081   3.563  23.718  0.00  0.00    +0.019 A 
BRANCH  20  25
ATOM      8  N   UNL     1      -6.284   5.224  25.873  0.00  0.00    -0.191 NA
ATOM     25  C   UNL     1      -5.665   4.364  25.399  0.00  0.00    +0.099 C 
ENDBRANCH  20  25
ENDBRANCH  13  15
ENDBRANCH   3  13
ENDBRANCH  14   9
TORSDOF 8
ENDMDL
MODEL 2
REMARK VINA RESULT:       0.8      2.146      4.688
REMARK  Name = 45783374
REMARK  9 active torsions:
REMARK  status: ('A' for Active; 'I' for Inactive)
REMARK    1  A    between atoms: O_2  and  C_29
REMARK    2  A    between atoms: O_2  and  C_30
REMARK    3  A    between atoms: N_3  and  C_13
REMARK    4  A    between atoms: N_6  and  C_26
REMARK    5  A    between atoms: C_9  and  C_14
REMARK    6  A    between atoms: C_13  and  C_15
REMARK    7  A    between atoms: C_18  and  C_19
REMARK    8  A    between atoms: C_20  and  C_25
REMARK    9  A    between atoms: C_26  and  C_29
REMARK                            x       y       z     vdW  Elec       q    Type
REMARK                         _______ _______ _______ _____ _____    ______ ____
ROOT
ATOM      1  O   UNL     1      -3.362   2.241  22.200  0.00  0.00    -0.336 OA
ATOM      4  N   UNL     1      -2.275   1.697  24.081  0.00  0.00    -0.190 NA
ATOM      5  N   UNL     1      -2.071   1.865  21.809  0.00  0.00    -0.056 NA
ATOM     14  C   UNL     1      -3.399   2.113  23.553  0.00  0.00    +0.245 A 
ATOM     18  C   UNL     1      -1.491   1.559  22.974  0.00  0.00    +0.205 A 
ENDROOT
BRANCH  18  19
ATOM      6  N   UNL     1       0.271   2.511  24.989  0.00  0.00    -0.326 N 
ATOM      7  N   UNL     1       2.028   1.166  24.151  0.00  0.00    -0.240 NA
ATOM     19  C   UNL     1      -0.131   1.114  23.065  0.00  0.00    +0.062 A 
ATOM     23  C   UNL     1       0.742   1.567  24.041  0.00  0.00    +0.130 A 
ATOM     24  C   UNL     1       0.348   0.189  22.143  0.00  0.00    +0.016 A 
ATOM     27  C   UNL     1       1.664  -0.249  22.224  0.00  0.00    +0.020 A 
ATOM     28  C   UNL     1       2.457   0.266  23.237  0.00  0.00    +0.113 A 
ATOM     31  H   UNL     1      -0.732   2.533  25.135  0.00  0.00    +0.148 HD
BRANCH   6  26
ATOM     26  C   UNL     1       1.095   3.034  26.027  0.00  0.00    +0.131 C 
BRANCH  26  29
ATOM     29  C   UNL     1       0.683   2.441  27.365  0.00  0.00    +0.178 C 
BRANCH  29   2
ATOM      2  O   UNL     1       1.723   2.645  28.313  0.00  0.00    -0.381 OA
ATOM     30  C   UNL     1       1.280   2.382  29.637  0.00  0.00    +0.194 C 
ENDBRANCH  29   2
ENDBRANCH  26  29
ENDBRANCH   6  26
ENDBRANCH  18  19
BRANCH  14   9
ATOM      3  N   UNL     1      -4.970   1.632  25.420  0.00  0.00    -0.287 NA
ATOM      9  C   UNL     1      -4.707   2.464  24.229  0.00  0.00    +0.146 C 
ATOM     10  C   UNL     1      -4.739   3.913  24.749  0.00  0.00    +0.030 C 
ATOM     11  C   UNL     1      -5.086   3.798  26.226  0.00  0.00    +0.017 C 
ATOM     12  C   UNL     1      -5.775   2.452  26.327  0.00  0.00    +0.085 C 
BRANCH   3  13
ATOM     13  C   UNL     1      -5.618   0.366  25.105  0.00  0.00    +0.120 C 
BRANCH  13  15
ATOM     15  C   UNL     1      -4.619  -0.707  24.764  0.00  0.00    -0.032 A 
ATOM     16  C   UNL     1      -3.321  -0.639  25.268  0.00  0.00    +0.023 A 
ATOM     17  C   UNL     1      -4.994  -1.771  23.944  0.00  0.00    +0.005 A 
ATOM     20  C   UNL     1      -2.397  -1.634  24.953  0.00  0.00    +0.052 A 
ATOM     21  C   UNL     1      -4.070  -2.767  23.629  0.00  0.00    +0.002 A 
ATOM     22  C   UNL     1      -2.771  -2.699  24.133  0.00  0.00    +0.019 A 
BRANCH  20  25
ATOM      8  N   UNL     1       0.015  -1.510  25.889  0.00  0.00    -0.191 NA
ATOM     25  C   UNL     1      -1.066  -1.565  25.469  0.00  0.00    +0.099 C 
ENDBRANCH  20  25
ENDBRANCH  13  15
ENDBRANCH   3  13
ENDBRANCH  14   9
TORSDOF 8
ENDMDL
MODEL 3
REMARK VINA RESULT:       0.8      1.558      2.062
REMARK  Name = 45783374
REMARK  9 active torsions:
REMARK  status: ('A' for Active; 'I' for Inactive)
REMARK    1  A    between atoms: O_2  and  C_29
REMARK    2  A    between atoms: O_2  and  C_30
REMARK    3  A    between atoms: N_3  and  C_13
REMARK    4  A    between atoms: N_6  and  C_26
REMARK    5  A    between atoms: C_9  and  C_14
REMARK    6  A    between atoms: C_13  and  C_15
REMARK    7  A    between atoms: C_18  and  C_19
REMARK    8  A    between atoms: C_20  and  C_25
REMARK    9  A    between atoms: C_26  and  C_29
REMARK                            x       y       z     vdW  Elec       q    Type
REMARK                         _______ _______ _______ _____ _____    ______ ____
ROOT
ATOM      1  O   UNL     1      -0.809  -2.723  25.157  0.00  0.00    -0.336 OA
ATOM      4  N   UNL     1      -1.162  -0.817  24.036  0.00  0.00    -0.190 NA
ATOM      5  N   UNL     1       0.458  -2.218  24.839  0.00  0.00    -0.056 NA
ATOM     14  C   UNL     1      -1.706  -1.839  24.648  0.00  0.00    +0.245 A 
ATOM     18  C   UNL     1       0.166  -1.094  24.178  0.00  0.00    +0.205 A 
ENDROOT
BRANCH  18  19
ATOM      6  N   UNL     1       0.544   1.546  25.156  0.00  0.00    -0.326 N 
ATOM      7  N   UNL     1       2.320   1.904  23.632  0.00  0.00    -0.240 NA
ATOM     19  C   UNL     1       1.177  -0.226  23.648  0.00  0.00    +0.062 A 
ATOM     23  C   UNL     1       1.376   1.064  24.113  0.00  0.00    +0.130 A 
ATOM     24  C   UNL     1       2.001  -0.683  22.624  0.00  0.00    +0.016 A 
ATOM     27  C   UNL     1       2.983   0.151  22.105  0.00  0.00    +0.020 A 
ATOM     28  C   UNL     1       3.101   1.425  22.638  0.00  0.00    +0.113 A 
ATOM     31  H   UNL     1       0.111   0.842  25.741  0.00  0.00    +0.148 HD
BRANCH   6  26
ATOM     26  C   UNL     1       0.675   2.858  25.697  0.00  0.00    +0.131 C 
BRANCH  26  29
ATOM     29  C   UNL     1       0.508   2.816  27.207  0.00  0.00    +0.178 C 
BRANCH  29   2
ATOM      2  O   UNL     1       1.785   2.882  27.827  0.00  0.00    -0.381 OA
ATOM     30  C   UNL     1       1.731   2.452  29.180  0.00  0.00    +0.194 C 
ENDBRANCH  29   2
ENDBRANCH  26  29
ENDBRANCH   6  26
ENDBRANCH  18  19
BRANCH  14   9
ATOM      3  N   UNL     1      -4.041  -0.982  24.697  0.00  0.00    -0.287 NA
ATOM      9  C   UNL     1      -3.170  -2.162  24.863  0.00  0.00    +0.146 C 
ATOM     10  C   UNL     1      -3.707  -3.190  23.851  0.00  0.00    +0.030 C 
ATOM     11  C   UNL     1      -4.914  -2.524  23.208  0.00  0.00    +0.017 C 
ATOM     12  C   UNL     1      -5.334  -1.485  24.229  0.00  0.00    +0.085 C 
BRANCH   3  13
ATOM     13  C   UNL     1      -4.169  -0.187  25.911  0.00  0.00    +0.120 C 
BRANCH  13  15
ATOM     15  C   UNL     1      -4.373   1.273  25.607  0.00  0.00    -0.032 A 
ATOM     16  C   UNL     1      -3.273   2.119  25.467  0.00  0.00    +0.023 A 
ATOM     17  C   UNL     1      -5.665   1.780  25.463  0.00  0.00    +0.005 A 
ATOM     20  C   UNL     1      -3.463   3.470  25.184  0.00  0.00    +0.052 A 
ATOM     21  C   UNL     1      -5.855   3.132  25.179  0.00  0.00    +0.002 A 
ATOM     22  C   UNL     1      -4.755   3.978  25.040  0.00  0.00    +0.019 A 
BRANCH  20  25
ATOM      8  N   UNL     1      -1.421   5.042  24.924  0.00  0.00    -0.191 NA
ATOM     25  C   UNL     1      -2.336   4.338  25.040  0.00  0.00    +0.099 C 
ENDBRANCH  20  25
ENDBRANCH  13  15
ENDBRANCH   3  13
ENDBRANCH  14   9
TORSDOF 8
ENDMDL
MODEL 4
REMARK VINA RESULT:       0.9      2.130      5.540
REMARK  Name = 45783374
REMARK  9 active torsions:
REMARK  status: ('A' for Active; 'I' for Inactive)
REMARK    1  A    between atoms: O_2  and  C_29
REMARK    2  A    between atoms: O_2  and  C_30
REMARK    3  A    between atoms: N_3  and  C_13
REMARK    4  A    between atoms: N_6  and  C_26
REMARK    5  A    between atoms: C_9  and  C_14
REMARK    6  A    between atoms: C_13  and  C_15
REMARK    7  A    between atoms: C_18  and  C_19
REMARK    8  A    between atoms: C_20  and  C_25
REMARK    9  A    between atoms: C_26  and  C_29
REMARK                            x       y       z     vdW  Elec       q    Type
REMARK                         _______ _______ _______ _____ _____    ______ ____
ROOT
ATOM      1  O   UNL     1      -2.008   2.048  22.451  0.00  0.00    -0.336 OA
ATOM      4  N   UNL     1      -0.892   1.864  24.385  0.00  0.00    -0.190 NA
ATOM      5  N   UNL     1      -1.682   0.692  22.586  0.00  0.00    -0.056 NA
ATOM     14  C   UNL     1      -1.506   2.667  23.552  0.00  0.00    +0.245 A 
ATOM     18  C   UNL     1      -1.026   0.664  23.749  0.00  0.00    +0.205 A 
ENDROOT
BRANCH  18  19
ATOM      6  N   UNL     1       1.663  -0.135  23.299  0.00  0.00    -0.326 N 
ATOM      7  N   UNL     1       1.350  -2.084  24.605  0.00  0.00    -0.240 NA
ATOM     19  C   UNL     1      -0.490  -0.545  24.304  0.00  0.00    +0.062 A 
ATOM     23  C   UNL     1       0.819  -0.950  24.096  0.00  0.00    +0.130 A 
ATOM     24  C   UNL     1      -1.305  -1.356  25.087  0.00  0.00    +0.016 A 
ATOM     27  C   UNL     1      -0.795  -2.530  25.629  0.00  0.00    +0.020 A 
ATOM     28  C   UNL     1       0.527  -2.846  25.361  0.00  0.00    +0.113 A 
ATOM     31  H   UNL     1       1.402   0.842  23.228  0.00  0.00    +0.148 HD
BRANCH   6  26
ATOM     26  C   UNL     1       3.022  -0.470  23.030  0.00  0.00    +0.131 C 
BRANCH  26  29
ATOM     29  C   UNL     1       3.809   0.785  22.690  0.00  0.00    +0.178 C 
BRANCH  29   2
ATOM      2  O   UNL     1       4.972   0.850  23.506  0.00  0.00    -0.381 OA
ATOM     30  C   UNL     1       5.358  -0.437  23.966  0.00  0.00    +0.194 C 
ENDBRANCH  29   2
ENDBRANCH  26  29
ENDBRANCH   6  26
ENDBRANCH  18  19
BRANCH  14   9
ATOM      3  N   UNL     1      -2.630   4.531  24.757  0.00  0.00    -0.287 NA
ATOM      9  C   UNL     1      -1.730   4.161  23.647  0.00  0.00    +0.146 C 
ATOM     10  C   UNL     1      -0.431   4.941  23.920  0.00  0.00    +0.030 C 
ATOM     11  C   UNL     1      -0.716   5.765  25.167  0.00  0.00    +0.017 C 
ATOM     12  C   UNL     1      -2.228   5.871  25.187  0.00  0.00    +0.085 C 
BRANCH   3  13
ATOM     13  C   UNL     1      -4.041   4.470  24.397  0.00  0.00    +0.120 C 
BRANCH  13  15
ATOM     15  C   UNL     1      -4.699   3.220  24.917  0.00  0.00    -0.032 A 
ATOM     16  C   UNL     1      -4.361   1.977  24.382  0.00  0.00    +0.023 A 
ATOM     17  C   UNL     1      -5.648   3.306  25.936  0.00  0.00    +0.005 A 
ATOM     20  C   UNL     1      -4.970   0.821  24.865  0.00  0.00    +0.052 A 
ATOM     21  C   UNL     1      -6.257   2.149  26.420  0.00  0.00    +0.002 A 
ATOM     22  C   UNL     1      -5.919   0.906  25.885  0.00  0.00    +0.019 A 
BRANCH  20  25
ATOM      8  N   UNL     1      -4.342  -1.488  23.874  0.00  0.00    -0.191 NA
ATOM     25  C   UNL     1      -4.624  -0.453  24.318  0.00  0.00    +0.099 C 
ENDBRANCH  20  25
ENDBRANCH  13  15
ENDBRANCH   3  13
ENDBRANCH  14   9
TORSDOF 8
ENDMDL
MODEL 5
REMARK VINA RESULT:       0.9      1.795      5.920
REMARK  Name = 45783374
REMARK  9 active torsions:
REMARK  status: ('A' for Active; 'I' for Inactive)
REMARK    1  A    between atoms: O_2  and  C_29
REMARK    2  A    between atoms: O_2  and  C_30
REMARK    3  A    between atoms: N_3  and  C_13
REMARK    4  A    between atoms: N_6  and  C_26
REMARK    5  A    between atoms: C_9  and  C_14
REMARK    6  A    between atoms: C_13  and  C_15
REMARK    7  A    between atoms: C_18  and  C_19
REMARK    8  A    between atoms: C_20  and  C_25
REMARK    9  A    between atoms: C_26  and  C_29
REMARK                            x       y       z     vdW  Elec       q    Type
REMARK                         _______ _______ _______ _____ _____    ______ ____
ROOT
ATOM      1  O   UNL     1      -1.275   0.816  22.616  0.00  0.00    -0.336 OA
ATOM      4  N   UNL     1      -1.591   1.416  24.750  0.00  0.00    -0.190 NA
ATOM      5  N   UNL     1      -2.604   1.250  22.706  0.00  0.00    -0.056 NA
ATOM     14  C   UNL     1      -0.751   0.946  23.862  0.00  0.00    +0.245 A 
ATOM     18  C   UNL     1      -2.714   1.586  23.994  0.00  0.00    +0.205 A 
ENDROOT
BRANCH  18  19
ATOM      6  N   UNL     1      -2.879   4.194  25.108  0.00  0.00    -0.326 N 
ATOM      7  N   UNL     1      -5.162   3.870  25.643  0.00  0.00    -0.240 NA
ATOM     19  C   UNL     1      -3.931   2.095  24.558  0.00  0.00    +0.062 A 
ATOM     23  C   UNL     1      -4.030   3.364  25.105  0.00  0.00    +0.130 A 
ATOM     24  C   UNL     1      -5.068   1.293  24.564  0.00  0.00    +0.016 A 
ATOM     27  C   UNL     1      -6.251   1.779  25.108  0.00  0.00    +0.020 A 
ATOM     28  C   UNL     1      -6.246   3.062  25.630  0.00  0.00    +0.113 A 
ATOM     31  H   UNL     1      -2.172   3.979  24.414  0.00  0.00    +0.148 HD
BRANCH   6  26
ATOM     26  C   UNL     1      -2.886   5.513  25.648  0.00  0.00    +0.131 C 
BRANCH  26  29
ATOM     29  C   UNL     1      -1.705   6.303  25.105  0.00  0.00    +0.178 C 
BRANCH  29   2
ATOM      2  O   UNL     1      -0.550   5.474  25.088  0.00  0.00    -0.381 OA
ATOM     30  C   UNL     1      -0.454   4.740  23.875  0.00  0.00    +0.194 C 
ENDBRANCH  29   2
ENDBRANCH  26  29
ENDBRANCH   6  26
ENDBRANCH  18  19
BRANCH  14   9
ATOM      3  N   UNL     1       0.947  -0.853  23.605  0.00  0.00    -0.287 NA
ATOM      9  C   UNL     1       0.697   0.537  24.032  0.00  0.00    +0.146 C 
ATOM     10  C   UNL     1       1.659   1.387  23.181  0.00  0.00    +0.030 C 
ATOM     11  C   UNL     1       2.449   0.385  22.353  0.00  0.00    +0.017 C 
ATOM     12  C   UNL     1       2.337  -0.901  23.147  0.00  0.00    +0.085 C 
BRANCH   3  13
ATOM     13  C   UNL     1       0.681  -1.832  24.650  0.00  0.00    +0.120 C 
BRANCH  13  15
ATOM     15  C   UNL     1      -0.743  -1.765  25.133  0.00  0.00    -0.032 A 
ATOM     16  C   UNL     1      -1.780  -2.218  24.318  0.00  0.00    +0.023 A 
ATOM     17  C   UNL     1      -1.025  -1.250  26.399  0.00  0.00    +0.005 A 
ATOM     20  C   UNL     1      -3.098  -2.156  24.766  0.00  0.00    +0.052 A 
ATOM     21  C   UNL     1      -2.344  -1.190  26.848  0.00  0.00    +0.002 A 
ATOM     22  C   UNL     1      -3.381  -1.642  26.032  0.00  0.00    +0.019 A 
BRANCH  20  25
ATOM      8  N   UNL     1      -5.025  -2.998  23.253  0.00  0.00    -0.191 NA
ATOM     25  C   UNL     1      -4.161  -2.621  23.932  0.00  0.00    +0.099 C 
ENDBRANCH  20  25
ENDBRANCH  13  15
ENDBRANCH   3  13
ENDBRANCH  14   9
TORSDOF 8
ENDMDL
MODEL 6
REMARK VINA RESULT:       1.1      1.749      3.466
REMARK  Name = 45783374
REMARK  9 active torsions:
REMARK  status: ('A' for Active; 'I' for Inactive)
REMARK    1  A    between atoms: O_2  and  C_29
REMARK    2  A    between atoms: O_2  and  C_30
REMARK    3  A    between atoms: N_3  and  C_13
REMARK    4  A    between atoms: N_6  and  C_26
REMARK    5  A    between atoms: C_9  and  C_14
REMARK    6  A    between atoms: C_13  and  C_15
REMARK    7  A    between atoms: C_18  and  C_19
REMARK    8  A    between atoms: C_20  and  C_25
REMARK    9  A    between atoms: C_26  and  C_29
REMARK                            x       y       z     vdW  Elec       q    Type
REMARK                         _______ _______ _______ _____ _____    ______ ____
ROOT
ATOM      1  O   UNL     1      -1.226  -0.667  26.499  0.00  0.00    -0.336 OA
ATOM      4  N   UNL     1      -2.256   0.661  25.018  0.00  0.00    -0.190 NA
ATOM      5  N   UNL     1      -0.459   0.503  26.425  0.00  0.00    -0.056 NA
ATOM     14  C   UNL     1      -2.265  -0.492  25.640  0.00  0.00    +0.245 A 
ATOM     18  C   UNL     1      -1.131   1.235  25.532  0.00  0.00    +0.205 A 
ENDROOT
BRANCH  18  19
ATOM      6  N   UNL     1       1.152   1.634  23.889  0.00  0.00    -0.326 N 
ATOM      7  N   UNL     1       0.833   3.979  23.935  0.00  0.00    -0.240 NA
ATOM     19  C   UNL     1      -0.704   2.545  25.130  0.00  0.00    +0.062 A 
ATOM     23  C   UNL     1       0.407   2.758  24.329  0.00  0.00    +0.130 A 
ATOM     24  C   UNL     1      -1.423   3.657  25.554  0.00  0.00    +0.016 A 
ATOM     27  C   UNL     1      -1.017   4.929  25.170  0.00  0.00    +0.020 A 
ATOM     28  C   UNL     1       0.108   5.036  24.367  0.00  0.00    +0.113 A 
ATOM     31  H   UNL     1       0.656   0.750  23.868  0.00  0.00    +0.148 HD
BRANCH   6  26
ATOM     26  C   UNL     1       2.308   1.755  23.063  0.00  0.00    +0.131 C 
BRANCH  26  29
ATOM     29  C   UNL     1       2.914   0.384  22.814  0.00  0.00    +0.178 C 
BRANCH  29   2
ATOM      2  O   UNL     1       4.272   0.531  22.419  0.00  0.00    -0.381 OA
ATOM     30  C   UNL     1       5.161   0.191  23.473  0.00  0.00    +0.194 C 
ENDBRANCH  29   2
ENDBRANCH  26  29
ENDBRANCH   6  26
ENDBRANCH  18  19
BRANCH  14   9
ATOM      3  N   UNL     1      -3.995  -1.625  24.259  0.00  0.00    -0.287 NA
ATOM      9  C   UNL     1      -3.254  -1.633  25.536  0.00  0.00    +0.146 C 
ATOM     10  C   UNL     1      -2.577  -3.014  25.587  0.00  0.00    +0.030 C 
ATOM     11  C   UNL     1      -3.044  -3.734  24.330  0.00  0.00    +0.017 C 
ATOM     12  C   UNL     1      -4.331  -3.020  23.968  0.00  0.00    +0.085 C 
BRANCH   3  13
ATOM     13  C   UNL     1      -5.176  -0.772  24.285  0.00  0.00    +0.120 C 
BRANCH  13  15
ATOM     15  C   UNL     1      -4.827   0.675  24.058  0.00  0.00    -0.032 A 
ATOM     16  C   UNL     1      -5.426   1.669  24.832  0.00  0.00    +0.023 A 
ATOM     17  C   UNL     1      -3.902   1.021  23.073  0.00  0.00    +0.005 A 
ATOM     20  C   UNL     1      -5.101   3.008  24.621  0.00  0.00    +0.052 A 
ATOM     21  C   UNL     1      -3.576   2.361  22.863  0.00  0.00    +0.002 A 
ATOM     22  C   UNL     1      -4.176   3.355  23.637  0.00  0.00    +0.019 A 
BRANCH  20  25
ATOM      8  N   UNL     1      -6.212   4.854  26.059  0.00  0.00    -0.191 NA
ATOM     25  C   UNL     1      -5.714   4.026  25.414  0.00  0.00    +0.099 C 
ENDBRANCH  20  25
ENDBRANCH  13  15
ENDBRANCH   3  13
ENDBRANCH  14   9
TORSDOF 8
ENDMDL
MODEL 7
REMARK VINA RESULT:       1.3      1.877      5.788
REMARK  Name = 45783374
REMARK  9 active torsions:
REMARK  status: ('A' for Active; 'I' for Inactive)
REMARK    1  A    between atoms: O_2  and  C_29
REMARK    2  A    between atoms: O_2  and  C_30
REMARK    3  A    between atoms: N_3  and  C_13
REMARK    4  A    between atoms: N_6  and  C_26
REMARK    5  A    between atoms: C_9  and  C_14
REMARK    6  A    between atoms: C_13  and  C_15
REMARK    7  A    between atoms: C_18  and  C_19
REMARK    8  A    between atoms: C_20  and  C_25
REMARK    9  A    between atoms: C_26  and  C_29
REMARK                            x       y       z     vdW  Elec       q    Type
REMARK                         _______ _______ _______ _____ _____    ______ ____
ROOT
ATOM      1  O   UNL     1      -4.060   2.218  23.830  0.00  0.00    -0.336 OA
ATOM      4  N   UNL     1      -4.141   0.657  25.434  0.00  0.00    -0.190 NA
ATOM      5  N   UNL     1      -3.504   1.058  23.274  0.00  0.00    -0.056 NA
ATOM     14  C   UNL     1      -4.409   1.895  25.103  0.00  0.00    +0.245 A 
ATOM     18  C   UNL     1      -3.587   0.184  24.281  0.00  0.00    +0.205 A 
ENDROOT
BRANCH  18  19
ATOM      6  N   UNL     1      -0.825  -0.448  24.066  0.00  0.00    -0.326 N 
ATOM      7  N   UNL     1      -1.317  -2.760  23.954  0.00  0.00    -0.240 NA
ATOM     19  C   UNL     1      -3.124  -1.169  24.167  0.00  0.00    +0.062 A 
ATOM     23  C   UNL     1      -1.782  -1.496  24.062  0.00  0.00    +0.130 A 
ATOM     24  C   UNL     1      -4.049  -2.208  24.161  0.00  0.00    +0.016 A 
ATOM     27  C   UNL     1      -3.610  -3.522  24.052  0.00  0.00    +0.020 A 
ATOM     28  C   UNL     1      -2.245  -3.743  23.951  0.00  0.00    +0.113 A 
ATOM     31  H   UNL     1      -1.119   0.422  24.497  0.00  0.00    +0.148 HD
BRANCH   6  26
ATOM     26  C   UNL     1       0.576  -0.687  23.962  0.00  0.00    +0.131 C 
BRANCH  26  29
ATOM     29  C   UNL     1       1.141   0.052  22.760  0.00  0.00    +0.178 C 
BRANCH  29   2
ATOM      2  O   UNL     1       2.508  -0.300  22.588  0.00  0.00    -0.381 OA
ATOM     30  C   UNL     1       3.360   0.826  22.748  0.00  0.00    +0.194 C 
ENDBRANCH  29   2
ENDBRANCH  26  29
ENDBRANCH   6  26
ENDBRANCH  18  19
BRANCH  14   9
ATOM      3  N   UNL     1      -4.395   4.304  25.722  0.00  0.00    -0.287 NA
ATOM      9  C   UNL     1      -5.044   2.995  25.928  0.00  0.00    +0.146 C 
ATOM     10  C   UNL     1      -6.523   3.229  25.570  0.00  0.00    +0.030 C 
ATOM     11  C   UNL     1      -6.621   4.710  25.235  0.00  0.00    +0.017 C 
ATOM     12  C   UNL     1      -5.428   5.317  25.946  0.00  0.00    +0.085 C 
BRANCH   3  13
ATOM     13  C   UNL     1      -3.232   4.510  26.574  0.00  0.00    +0.120 C 
BRANCH  13  15
ATOM     15  C   UNL     1      -1.967   4.010  25.928  0.00  0.00    -0.032 A 
ATOM     16  C   UNL     1      -1.426   4.685  24.835  0.00  0.00    +0.023 A 
ATOM     17  C   UNL     1      -1.336   2.870  26.427  0.00  0.00    +0.005 A 
ATOM     20  C   UNL     1      -0.254   4.222  24.239  0.00  0.00    +0.052 A 
ATOM     21  C   UNL     1      -0.163   2.407  25.831  0.00  0.00    +0.002 A 
ATOM     22  C   UNL     1       0.378   3.083  24.737  0.00  0.00    +0.019 A 
BRANCH  20  25
ATOM      8  N   UNL     1       0.753   5.476  22.209  0.00  0.00    -0.191 NA
ATOM     25  C   UNL     1       0.301   4.914  23.119  0.00  0.00    +0.099 C 
ENDBRANCH  20  25
ENDBRANCH  13  15
ENDBRANCH   3  13
ENDBRANCH  14   9
TORSDOF 8
ENDMDL
MODEL 8
REMARK VINA RESULT:       1.4      2.182      5.401
REMARK  Name = 45783374
REMARK  9 active torsions:
REMARK  status: ('A' for Active; 'I' for Inactive)
REMARK    1  A    between atoms: O_2  and  C_29
REMARK    2  A    between atoms: O_2  and  C_30
REMARK    3  A    between atoms: N_3  and  C_13
REMARK    4  A    between atoms: N_6  and  C_26
REMARK    5  A    between atoms: C_9  and  C_14
REMARK    6  A    between atoms: C_13  and  C_15
REMARK    7  A    between atoms: C_18  and  C_19
REMARK    8  A    between atoms: C_20  and  C_25
REMARK    9  A    between atoms: C_26  and  C_29
REMARK                            x       y       z     vdW  Elec       q    Type
REMARK                         _______ _______ _______ _____ _____    ______ ____
ROOT
ATOM      1  O   UNL     1      -0.270   2.791  25.260  0.00  0.00    -0.336 OA
ATOM      4  N   UNL     1      -1.106   1.838  23.414  0.00  0.00    -0.190 NA
ATOM      5  N   UNL     1       0.747   1.976  24.747  0.00  0.00    -0.056 NA
ATOM     14  C   UNL     1      -1.325   2.652  24.416  0.00  0.00    +0.245 A 
ATOM     18  C   UNL     1       0.178   1.448  23.660  0.00  0.00    +0.205 A 
ENDROOT
BRANCH  18  19
ATOM      6  N   UNL     1       2.993   1.547  23.291  0.00  0.00    -0.326 N 
ATOM      7  N   UNL     1       2.909  -0.292  21.804  0.00  0.00    -0.240 NA
ATOM     19  C   UNL     1       0.863   0.528  22.800  0.00  0.00    +0.062 A 
ATOM     23  C   UNL     1       2.235   0.561  22.608  0.00  0.00    +0.130 A 
ATOM     24  C   UNL     1       0.135  -0.444  22.121  0.00  0.00    +0.016 A 
ATOM     27  C   UNL     1       0.792  -1.340  21.286  0.00  0.00    +0.020 A 
ATOM     28  C   UNL     1       2.167  -1.223  21.162  0.00  0.00    +0.113 A 
ATOM     31  H   UNL     1       2.574   1.927  24.133  0.00  0.00    +0.148 HD
BRANCH   6  26
ATOM     26  C   UNL     1       4.407   1.659  23.157  0.00  0.00    +0.131 C 
BRANCH  26  29
ATOM     29  C   UNL     1       5.098   0.755  24.165  0.00  0.00    +0.178 C 
BRANCH  29   2
ATOM      2  O   UNL     1       5.612  -0.391  23.500  0.00  0.00    -0.381 OA
ATOM     30  C   UNL     1       4.986  -1.582  23.955  0.00  0.00    +0.194 C 
ENDBRANCH  29   2
ENDBRANCH  26  29
ENDBRANCH   6  26
ENDBRANCH  18  19
BRANCH  14   9
ATOM      3  N   UNL     1      -3.558   2.653  25.512  0.00  0.00    -0.287 NA
ATOM      9  C   UNL     1      -2.570   3.445  24.754  0.00  0.00    +0.146 C 
ATOM     10  C   UNL     1      -2.275   4.662  25.650  0.00  0.00    +0.030 C 
ATOM     11  C   UNL     1      -3.186   4.499  26.857  0.00  0.00    +0.017 C 
ATOM     12  C   UNL     1      -4.296   3.602  26.348  0.00  0.00    +0.085 C 
BRANCH   3  13
ATOM     13  C   UNL     1      -4.443   1.870  24.660  0.00  0.00    +0.120 C 
BRANCH  13  15
ATOM     15  C   UNL     1      -4.006   0.432  24.567  0.00  0.00    -0.032 A 
ATOM     16  C   UNL     1      -2.734   0.058  25.001  0.00  0.00    +0.023 A 
ATOM     17  C   UNL     1      -4.876  -0.527  24.048  0.00  0.00    +0.005 A 
ATOM     20  C   UNL     1      -2.332  -1.273  24.916  0.00  0.00    +0.052 A 
ATOM     21  C   UNL     1      -4.473  -1.860  23.963  0.00  0.00    +0.002 A 
ATOM     22  C   UNL     1      -3.201  -2.233  24.397  0.00  0.00    +0.019 A 
BRANCH  20  25
ATOM      8  N   UNL     1       0.029  -1.969  25.722  0.00  0.00    -0.191 NA
ATOM     25  C   UNL     1      -1.029  -1.657  25.361  0.00  0.00    +0.099 C 
ENDBRANCH  20  25
ENDBRANCH  13  15
ENDBRANCH   3  13
ENDBRANCH  14   9
TORSDOF 8
ENDMDL
MODEL 9
REMARK VINA RESULT:       1.9      1.927      5.845
REMARK  Name = 45783374
REMARK  9 active torsions:
REMARK  status: ('A' for Active; 'I' for Inactive)
REMARK    1  A    between atoms: O_2  and  C_29
REMARK    2  A    between atoms: O_2  and  C_30
REMARK    3  A    between atoms: N_3  and  C_13
REMARK    4  A    between atoms: N_6  and  C_26
REMARK    5  A    between atoms: C_9  and  C_14
REMARK    6  A    between atoms: C_13  and  C_15
REMARK    7  A    between atoms: C_18  and  C_19
REMARK    8  A    between atoms: C_20  and  C_25
REMARK    9  A    between atoms: C_26  and  C_29
REMARK                            x       y       z     vdW  Elec       q    Type
REMARK                         _______ _______ _______ _____ _____    ______ ____
ROOT
ATOM      1  O   UNL     1      -4.193   2.105  23.746  0.00  0.00    -0.336 OA
ATOM      4  N   UNL     1      -4.208   0.609  25.412  0.00  0.00    -0.190 NA
ATOM      5  N   UNL     1      -3.602   0.943  23.232  0.00  0.00    -0.056 NA
ATOM     14  C   UNL     1      -4.521   1.823  25.034  0.00  0.00    +0.245 A 
ATOM     18  C   UNL     1      -3.646   0.109  24.275  0.00  0.00    +0.205 A 
ENDROOT
BRANCH  18  19
ATOM      6  N   UNL     1      -0.863  -0.439  24.117  0.00  0.00    -0.326 N 
ATOM      7  N   UNL     1      -1.278  -2.769  24.075  0.00  0.00    -0.240 NA
ATOM     19  C   UNL     1      -3.139  -1.231  24.212  0.00  0.00    +0.062 A 
ATOM     23  C   UNL     1      -1.785  -1.517  24.135  0.00  0.00    +0.130 A 
ATOM     24  C   UNL     1      -4.030  -2.300  24.228  0.00  0.00    +0.016 A 
ATOM     27  C   UNL     1      -3.546  -3.602  24.168  0.00  0.00    +0.020 A 
ATOM     28  C   UNL     1      -2.174  -3.781  24.093  0.00  0.00    +0.113 A 
ATOM     31  H   UNL     1      -1.191   0.434  24.515  0.00  0.00    +0.148 HD
BRANCH   6  26
ATOM     26  C   UNL     1       0.546  -0.636  24.040  0.00  0.00    +0.131 C 
BRANCH  26  29
ATOM     29  C   UNL     1       1.108   0.104  22.837  0.00  0.00    +0.178 C 
BRANCH  29   2
ATOM      2  O   UNL     1       2.459  -0.287  22.629  0.00  0.00    -0.381 OA
ATOM     30  C   UNL     1       3.335   0.831  22.646  0.00  0.00    +0.194 C 
ENDBRANCH  29   2
ENDBRANCH  26  29
ENDBRANCH   6  26
ENDBRANCH  18  19
BRANCH  14   9
ATOM      3  N   UNL     1      -4.465   4.217  25.709  0.00  0.00    -0.287 NA
ATOM      9  C   UNL     1      -5.186   2.933  25.819  0.00  0.00    +0.146 C 
ATOM     10  C   UNL     1      -6.611   3.241  25.325  0.00  0.00    +0.030 C 
ATOM     11  C   UNL     1      -6.612   4.731  25.017  0.00  0.00    +0.017 C 
ATOM     12  C   UNL     1      -5.471   5.270  25.856  0.00  0.00    +0.085 C 
BRANCH   3  13
ATOM     13  C   UNL     1      -3.383   4.353  26.675  0.00  0.00    +0.120 C 
BRANCH  13  15
ATOM     15  C   UNL     1      -2.085   3.807  26.145  0.00  0.00    -0.032 A 
ATOM     16  C   UNL     1      -1.059   3.463  27.025  0.00  0.00    +0.023 A 
ATOM     17  C   UNL     1      -1.909   3.642  24.771  0.00  0.00    +0.005 A 
ATOM     20  C   UNL     1       0.142   2.955  26.533  0.00  0.00    +0.052 A 
ATOM     21  C   UNL     1      -0.707   3.133  24.279  0.00  0.00    +0.002 A 
ATOM     22  C   UNL     1       0.319   2.790  25.159  0.00  0.00    +0.019 A 
BRANCH  20  25
ATOM      8  N   UNL     1       2.047   2.315  28.167  0.00  0.00    -0.191 NA
ATOM     25  C   UNL     1       1.193   2.602  27.435  0.00  0.00    +0.099 C 
ENDBRANCH  20  25
ENDBRANCH  13  15
ENDBRANCH   3  13
ENDBRANCH  14   9
TORSDOF 8
ENDMDL
MODEL 10
REMARK VINA RESULT:       2.0      1.487      5.470
REMARK  Name = 45783374
REMARK  9 active torsions:
REMARK  status: ('A' for Active; 'I' for Inactive)
REMARK    1  A    between atoms: O_2  and  C_29
REMARK    2  A    between atoms: O_2  and  C_30
REMARK    3  A    between atoms: N_3  and  C_13
REMARK    4  A    between atoms: N_6  and  C_26
REMARK    5  A    between atoms: C_9  and  C_14
REMARK    6  A    between atoms: C_13  and  C_15
REMARK    7  A    between atoms: C_18  and  C_19
REMARK    8  A    between atoms: C_20  and  C_25
REMARK    9  A    between atoms: C_26  and  C_29
REMARK                            x       y       z     vdW  Elec       q    Type
REMARK                         _______ _______ _______ _____ _____    ______ ____
ROOT
ATOM      1  O   UNL     1       1.049  -1.313  24.615  0.00  0.00    -0.336 OA
ATOM      4  N   UNL     1      -0.473  -0.723  23.081  0.00  0.00    -0.190 NA
ATOM      5  N   UNL     1      -0.171  -1.848  25.050  0.00  0.00    -0.056 NA
ATOM     14  C   UNL     1       0.782  -0.667  23.449  0.00  0.00    +0.245 A 
ATOM     18  C   UNL     1      -1.018  -1.456  24.094  0.00  0.00    +0.205 A 
ENDROOT
BRANCH  18  19
ATOM      6  N   UNL     1      -3.016   0.529  24.463  0.00  0.00    -0.326 N 
ATOM      7  N   UNL     1      -4.726  -1.102  24.330  0.00  0.00    -0.240 NA
ATOM     19  C   UNL     1      -2.415  -1.781  24.121  0.00  0.00    +0.062 A 
ATOM     23  C   UNL     1      -3.403  -0.826  24.300  0.00  0.00    +0.130 A 
ATOM     24  C   UNL     1      -2.811  -3.105  23.963  0.00  0.00    +0.016 A 
ATOM     27  C   UNL     1      -4.162  -3.428  23.987  0.00  0.00    +0.020 A 
ATOM     28  C   UNL     1      -5.072  -2.400  24.173  0.00  0.00    +0.113 A 
ATOM     31  H   UNL     1      -2.108   0.781  24.091  0.00  0.00    +0.148 HD
BRANCH   6  26
ATOM     26  C   UNL     1      -3.961   1.579  24.653  0.00  0.00    +0.131 C 
BRANCH  26  29
ATOM     29  C   UNL     1      -3.735   2.673  23.622  0.00  0.00    +0.178 C 
BRANCH  29   2
ATOM      2  O   UNL     1      -4.412   3.855  24.030  0.00  0.00    -0.381 OA
ATOM     30  C   UNL     1      -4.880   3.753  25.367  0.00  0.00    +0.194 C 
ENDBRANCH  29   2
ENDBRANCH  26  29
ENDBRANCH   6  26
ENDBRANCH  18  19
BRANCH  14   9
ATOM      3  N   UNL     1       2.439   1.187  23.506  0.00  0.00    -0.287 NA
ATOM      9  C   UNL     1       1.955   0.005  22.767  0.00  0.00    +0.146 C 
ATOM     10  C   UNL     1       3.183  -0.915  22.651  0.00  0.00    +0.030 C 
ATOM     11  C   UNL     1       4.323  -0.141  23.299  0.00  0.00    +0.017 C 
ATOM     12  C   UNL     1       3.869   1.302  23.211  0.00  0.00    +0.085 C 
BRANCH   3  13
ATOM     13  C   UNL     1       1.713   2.407  23.179  0.00  0.00    +0.120 C 
BRANCH  13  15
ATOM     15  C   UNL     1       0.686   2.746  24.226  0.00  0.00    -0.032 A 
ATOM     16  C   UNL     1      -0.008   3.955  24.160  0.00  0.00    +0.023 A 
ATOM     17  C   UNL     1       0.426   1.849  25.262  0.00  0.00    +0.005 A 
ATOM     20  C   UNL     1      -0.960   4.267  25.129  0.00  0.00    +0.052 A 
ATOM     21  C   UNL     1      -0.527   2.161  26.231  0.00  0.00    +0.002 A 
ATOM     22  C   UNL     1      -1.220   3.370  26.165  0.00  0.00    +0.019 A 
BRANCH  20  25
ATOM      8  N   UNL     1      -2.249   6.509  25.007  0.00  0.00    -0.191 NA
ATOM     25  C   UNL     1      -1.671   5.504  25.062  0.00  0.00    +0.099 C 
ENDBRANCH  20  25
ENDBRANCH  13  15
ENDBRANCH   3  13
ENDBRANCH  14   9
TORSDOF 8
ENDMDL
