MODEL 1
REMARK VINA RESULT:       3.3      0.000      0.000
REMARK  Name = 7134442
REMARK  15 active torsions:
REMARK  status: ('A' for Active; 'I' for Inactive)
REMARK    1  A    between atoms: O_2  and  C_20
REMARK    2  A    between atoms: O_4  and  C_22
REMARK    3  A    between atoms: O_5  and  C_23
REMARK    4  A    between atoms: O_8  and  C_36
REMARK    5  A    between atoms: O_8  and  C_37
REMARK    6  A    between atoms: N_9  and  C_21
REMARK    7  A    between atoms: N_10  and  C_28
REMARK    8  A    between atoms: C_12  and  C_17
REMARK    9  A    between atoms: C_12  and  C_18
REMARK   10  A    between atoms: C_17  and  C_19
REMARK   11  A    between atoms: C_18  and  C_20
REMARK   12  A    between atoms: C_26  and  C_27
REMARK   13  A    between atoms: C_28  and  C_29
REMARK   14  A    between atoms: C_28  and  C_30
REMARK   15  A    between atoms: C_29  and  C_31
REMARK                            x       y       z     vdW  Elec       q    Type
REMARK                         _______ _______ _______ _____ _____    ______ ____
ROOT
ATOM     21  C   UNL     1      -0.215   2.655  25.199  0.00  0.00    +0.127 C 
ATOM     22  C   UNL     1       0.323   3.867  24.415  0.00  0.00    +0.167 C 
ATOM     23  C   UNL     1      -0.697   5.011  24.380  0.00  0.00    +0.149 C 
ATOM     24  C   UNL     1      -1.644   2.319  24.868  0.00  0.00    +0.006 C 
ATOM     25  C   UNL     1      -2.050   4.563  23.803  0.00  0.00    +0.074 C 
ATOM     26  C   UNL     1      -2.454   3.181  24.234  0.00  0.00    +0.015 C 
ENDROOT
BRANCH  21   9
ATOM      1  O   UNL     1      -0.314   0.826  22.958  0.00  0.00    -0.276 OA
ATOM      9  N   UNL     1       0.599   1.482  24.992  0.00  0.00    -0.306 N 
ATOM     19  C   UNL     1       0.479   0.659  23.880  0.00  0.00    +0.214 C 
ATOM     38  H   UNL     1       1.338   1.303  25.666  0.00  0.00    +0.149 HD
BRANCH  19  17
ATOM     17  C   UNL     1       1.464  -0.494  23.929  0.00  0.00    +0.103 C 
BRANCH  17  12
ATOM     12  C   UNL     1       2.754  -0.199  23.159  0.00  0.00    -0.011 C 
ATOM     13  C   UNL     1       3.179   1.268  23.308  0.00  0.00    +0.008 C 
ATOM     14  C   UNL     1       2.545  -0.311  21.643  0.00  0.00    +0.008 C 
ATOM     15  C   UNL     1       4.064   1.550  22.096  0.00  0.00    +0.001 C 
ATOM     16  C   UNL     1       3.656   0.537  21.026  0.00  0.00    +0.001 C 
BRANCH  12  18
ATOM     18  C   UNL     1       3.861  -1.151  23.643  0.00  0.00    +0.127 C 
BRANCH  18  20
ATOM      3  O   UNL     1       6.116  -0.459  23.026  0.00  0.00    -0.251 OA
ATOM     20  C   UNL     1       5.170  -0.432  23.798  0.00  0.00    +0.305 C 
BRANCH  20   2
ATOM      2  O   UNL     1       5.158   0.278  24.955  0.00  0.00    -0.481 OA
ATOM     39  H   UNL     1       4.288   0.230  25.405  0.00  0.00    +0.295 HD
ENDBRANCH  20   2
ENDBRANCH  18  20
ENDBRANCH  12  18
ENDBRANCH  17  12
ENDBRANCH  19  17
ENDBRANCH  21   9
BRANCH  26  27
ATOM      6  O   UNL     1      -4.341   2.919  22.860  0.00  0.00    -0.271 OA
ATOM     10  N   UNL     1      -4.431   2.156  25.061  0.00  0.00    -0.300 N 
ATOM     27  C   UNL     1      -3.828   2.747  23.965  0.00  0.00    +0.241 C 
ATOM     42  H   UNL     1      -3.940   2.147  25.951  0.00  0.00    +0.150 HD
BRANCH  10  28
ATOM     28  C   UNL     1      -5.785   1.650  25.041  0.00  0.00    +0.163 C 
BRANCH  28  30
ATOM      7  O   UNL     1      -7.155   1.841  27.039  0.00  0.00    -0.274 OA
ATOM     11  N   UNL     1      -6.476   3.766  25.984  0.00  0.00    -0.328 N 
ATOM     30  C   UNL     1      -6.558   2.396  26.119  0.00  0.00    +0.231 C 
ATOM     43  H   UNL     1      -6.935   4.383  26.647  0.00  0.00    +0.145 HD
ATOM     44  H   UNL     1      -5.976   4.211  25.221  0.00  0.00    +0.145 HD
ENDBRANCH  28  30
BRANCH  28  29
ATOM     29  C   UNL     1      -5.844   0.139  25.290  0.00  0.00    +0.067 C 
BRANCH  29  31
ATOM     31  C   UNL     1      -4.513  -0.541  25.077  0.00  0.00    -0.045 A 
ATOM     32  C   UNL     1      -4.279  -1.263  23.907  0.00  0.00    +0.007 A 
ATOM     33  C   UNL     1      -3.518  -0.447  26.051  0.00  0.00    +0.007 A 
ATOM     34  C   UNL     1      -3.048  -1.892  23.711  0.00  0.00    +0.046 A 
ATOM     35  C   UNL     1      -2.289  -1.075  25.855  0.00  0.00    +0.046 A 
ATOM     36  C   UNL     1      -2.054  -1.798  24.684  0.00  0.00    +0.120 A 
BRANCH  36   8
ATOM      8  O   UNL     1      -0.854  -2.411  24.493  0.00  0.00    -0.495 OA
ATOM     37  C   UNL     1      -0.026  -2.590  25.641  0.00  0.00    +0.277 C 
ENDBRANCH  36   8
ENDBRANCH  29  31
ENDBRANCH  28  29
ENDBRANCH  10  28
ENDBRANCH  26  27
BRANCH  22   4
ATOM      4  O   UNL     1       0.622   3.477  23.074  0.00  0.00    -0.387 OA
ATOM     40  H   UNL     1       1.585   3.536  22.958  0.00  0.00    +0.210 HD
ENDBRANCH  22   4
BRANCH  23   5
ATOM      5  O   UNL     1      -0.877   5.550  25.688  0.00  0.00    -0.389 OA
ATOM     41  H   UNL     1      -0.301   5.051  26.293  0.00  0.00    +0.210 HD
ENDBRANCH  23   5
TORSDOF 14
ENDMDL
MODEL 2
REMARK VINA RESULT:       3.6      2.067      8.386
REMARK  Name = 7134442
REMARK  15 active torsions:
REMARK  status: ('A' for Active; 'I' for Inactive)
REMARK    1  A    between atoms: O_2  and  C_20
REMARK    2  A    between atoms: O_4  and  C_22
REMARK    3  A    between atoms: O_5  and  C_23
REMARK    4  A    between atoms: O_8  and  C_36
REMARK    5  A    between atoms: O_8  and  C_37
REMARK    6  A    between atoms: N_9  and  C_21
REMARK    7  A    between atoms: N_10  and  C_28
REMARK    8  A    between atoms: C_12  and  C_17
REMARK    9  A    between atoms: C_12  and  C_18
REMARK   10  A    between atoms: C_17  and  C_19
REMARK   11  A    between atoms: C_18  and  C_20
REMARK   12  A    between atoms: C_26  and  C_27
REMARK   13  A    between atoms: C_28  and  C_29
REMARK   14  A    between atoms: C_28  and  C_30
REMARK   15  A    between atoms: C_29  and  C_31
REMARK                            x       y       z     vdW  Elec       q    Type
REMARK                         _______ _______ _______ _____ _____    ______ ____
ROOT
ATOM     21  C   UNL     1      -3.469  -0.501  25.347  0.00  0.00    +0.127 C 
ATOM     22  C   UNL     1      -4.211  -1.549  24.496  0.00  0.00    +0.167 C 
ATOM     23  C   UNL     1      -3.487  -2.901  24.513  0.00  0.00    +0.149 C 
ATOM     24  C   UNL     1      -1.979  -0.508  25.134  0.00  0.00    +0.006 C 
ATOM     25  C   UNL     1      -2.025  -2.779  24.052  0.00  0.00    +0.074 C 
ATOM     26  C   UNL     1      -1.345  -1.533  24.545  0.00  0.00    +0.015 C 
ENDROOT
BRANCH  21   9
ATOM      1  O   UNL     1      -2.885   1.206  23.084  0.00  0.00    -0.276 OA
ATOM      9  N   UNL     1      -3.968   0.831  25.106  0.00  0.00    -0.306 N 
ATOM     19  C   UNL     1      -3.630   1.579  23.985  0.00  0.00    +0.214 C 
ATOM     38  H   UNL     1      -4.652   1.199  25.761  0.00  0.00    +0.149 HD
BRANCH  19  17
ATOM     17  C   UNL     1      -4.303   2.938  23.997  0.00  0.00    +0.103 C 
BRANCH  17  12
ATOM     12  C   UNL     1      -3.517   3.978  24.798  0.00  0.00    -0.011 C 
ATOM     13  C   UNL     1      -3.324   5.277  24.004  0.00  0.00    +0.008 C 
ATOM     14  C   UNL     1      -2.066   3.536  25.028  0.00  0.00    +0.008 C 
ATOM     15  C   UNL     1      -2.101   5.946  24.627  0.00  0.00    +0.001 C 
ATOM     16  C   UNL     1      -1.292   4.828  25.284  0.00  0.00    +0.001 C 
BRANCH  12  18
ATOM     18  C   UNL     1      -4.238   4.242  26.131  0.00  0.00    +0.127 C 
BRANCH  18  20
ATOM      3  O   UNL     1      -6.008   2.582  26.371  0.00  0.00    -0.251 OA
ATOM     20  C   UNL     1      -5.644   3.717  26.103  0.00  0.00    +0.305 C 
BRANCH  20   2
ATOM      2  O   UNL     1      -6.489   4.712  25.729  0.00  0.00    -0.481 OA
ATOM     39  H   UNL     1      -7.346   4.361  25.405  0.00  0.00    +0.295 HD
ENDBRANCH  20   2
ENDBRANCH  18  20
ENDBRANCH  12  18
ENDBRANCH  17  12
ENDBRANCH  19  17
ENDBRANCH  21   9
BRANCH  26  27
ATOM      6  O   UNL     1       0.867  -2.125  25.069  0.00  0.00    -0.271 OA
ATOM     10  N   UNL     1       0.488  -0.503  23.439  0.00  0.00    -0.300 N 
ATOM     27  C   UNL     1       0.109  -1.432  24.392  0.00  0.00    +0.241 C 
ATOM     42  H   UNL     1      -0.225   0.076  23.002  0.00  0.00    +0.150 HD
BRANCH  10  28
ATOM     28  C   UNL     1       1.867  -0.224  23.111  0.00  0.00    +0.163 C 
BRANCH  28  30
ATOM      7  O   UNL     1       2.982   0.138  20.982  0.00  0.00    -0.274 OA
ATOM     11  N   UNL     1       0.829  -0.663  20.973  0.00  0.00    -0.328 N 
ATOM     30  C   UNL     1       1.972  -0.205  21.593  0.00  0.00    +0.231 C 
ATOM     43  H   UNL     1       0.771  -0.716  19.961  0.00  0.00    +0.145 HD
ATOM     44  H   UNL     1       0.003  -0.947  21.490  0.00  0.00    +0.145 HD
ENDBRANCH  28  30
BRANCH  28  29
ATOM     29  C   UNL     1       2.826  -1.266  23.700  0.00  0.00    +0.067 C 
BRANCH  29  31
ATOM     31  C   UNL     1       4.260  -0.797  23.713  0.00  0.00    -0.045 A 
ATOM     32  C   UNL     1       5.292  -1.717  23.901  0.00  0.00    +0.007 A 
ATOM     33  C   UNL     1       4.555   0.556  23.538  0.00  0.00    +0.007 A 
ATOM     34  C   UNL     1       6.619  -1.285  23.914  0.00  0.00    +0.046 A 
ATOM     35  C   UNL     1       5.880   0.988  23.551  0.00  0.00    +0.046 A 
ATOM     36  C   UNL     1       6.913   0.068  23.739  0.00  0.00    +0.120 A 
BRANCH  36   8
ATOM      8  O   UNL     1       8.206   0.491  23.752  0.00  0.00    -0.495 OA
ATOM     37  C   UNL     1       9.126  -0.211  22.918  0.00  0.00    +0.277 C 
ENDBRANCH  36   8
ENDBRANCH  29  31
ENDBRANCH  28  29
ENDBRANCH  10  28
ENDBRANCH  26  27
BRANCH  22   4
ATOM      4  O   UNL     1      -4.302  -1.093  23.146  0.00  0.00    -0.387 OA
ATOM     40  H   UNL     1      -5.243  -1.090  22.900  0.00  0.00    +0.210 HD
ENDBRANCH  22   4
BRANCH  23   5
ATOM      5  O   UNL     1      -3.543  -3.472  25.818  0.00  0.00    -0.389 OA
ATOM     41  H   UNL     1      -4.094  -2.892  26.370  0.00  0.00    +0.210 HD
ENDBRANCH  23   5
TORSDOF 14
ENDMDL
MODEL 3
REMARK VINA RESULT:       4.0      1.868      7.822
REMARK  Name = 7134442
REMARK  15 active torsions:
REMARK  status: ('A' for Active; 'I' for Inactive)
REMARK    1  A    between atoms: O_2  and  C_20
REMARK    2  A    between atoms: O_4  and  C_22
REMARK    3  A    between atoms: O_5  and  C_23
REMARK    4  A    between atoms: O_8  and  C_36
REMARK    5  A    between atoms: O_8  and  C_37
REMARK    6  A    between atoms: N_9  and  C_21
REMARK    7  A    between atoms: N_10  and  C_28
REMARK    8  A    between atoms: C_12  and  C_17
REMARK    9  A    between atoms: C_12  and  C_18
REMARK   10  A    between atoms: C_17  and  C_19
REMARK   11  A    between atoms: C_18  and  C_20
REMARK   12  A    between atoms: C_26  and  C_27
REMARK   13  A    between atoms: C_28  and  C_29
REMARK   14  A    between atoms: C_28  and  C_30
REMARK   15  A    between atoms: C_29  and  C_31
REMARK                            x       y       z     vdW  Elec       q    Type
REMARK                         _______ _______ _______ _____ _____    ______ ____
ROOT
ATOM     21  C   UNL     1      -3.978  -1.346  25.674  0.00  0.00    +0.127 C 
ATOM     22  C   UNL     1      -4.400  -2.367  24.600  0.00  0.00    +0.167 C 
ATOM     23  C   UNL     1      -3.317  -3.431  24.382  0.00  0.00    +0.149 C 
ATOM     24  C   UNL     1      -2.553  -0.885  25.530  0.00  0.00    +0.006 C 
ATOM     25  C   UNL     1      -1.958  -2.808  24.020  0.00  0.00    +0.074 C 
ATOM     26  C   UNL     1      -1.659  -1.546  24.779  0.00  0.00    +0.015 C 
ENDROOT
BRANCH  21   9
ATOM      1  O   UNL     1      -3.931   0.885  23.831  0.00  0.00    -0.276 OA
ATOM      9  N   UNL     1      -4.843  -0.190  25.678  0.00  0.00    -0.306 N 
ATOM     19  C   UNL     1      -4.745   0.837  24.749  0.00  0.00    +0.214 C 
ATOM     38  H   UNL     1      -5.599  -0.176  26.357  0.00  0.00    +0.149 HD
BRANCH  19  17
ATOM     17  C   UNL     1      -5.783   1.915  24.997  0.00  0.00    +0.103 C 
BRANCH  17  12
ATOM     12  C   UNL     1      -5.160   3.302  25.173  0.00  0.00    -0.011 C 
ATOM     13  C   UNL     1      -6.228   4.374  25.424  0.00  0.00    +0.008 C 
ATOM     14  C   UNL     1      -4.517   3.803  23.872  0.00  0.00    +0.008 C 
ATOM     15  C   UNL     1      -5.577   5.691  25.005  0.00  0.00    +0.001 C 
ATOM     16  C   UNL     1      -4.478   5.324  24.008  0.00  0.00    +0.001 C 
BRANCH  12  18
ATOM     18  C   UNL     1      -4.136   3.256  26.320  0.00  0.00    +0.127 C 
BRANCH  18  20
ATOM      3  O   UNL     1      -2.177   4.638  25.876  0.00  0.00    -0.251 OA
ATOM     20  C   UNL     1      -2.751   3.560  25.828  0.00  0.00    +0.305 C 
BRANCH  20   2
ATOM      2  O   UNL     1      -2.202   2.434  25.304  0.00  0.00    -0.481 OA
ATOM     39  H   UNL     1      -2.060   1.745  25.987  0.00  0.00    +0.295 HD
ENDBRANCH  20   2
ENDBRANCH  18  20
ENDBRANCH  12  18
ENDBRANCH  17  12
ENDBRANCH  19  17
ENDBRANCH  21   9
BRANCH  26  27
ATOM      6  O   UNL     1       0.680  -1.731  24.892  0.00  0.00    -0.271 OA
ATOM     10  N   UNL     1      -0.268   0.350  24.444  0.00  0.00    -0.300 N 
ATOM     27  C   UNL     1      -0.298  -1.007  24.714  0.00  0.00    +0.241 C 
ATOM     42  H   UNL     1      -1.144   0.866  24.402  0.00  0.00    +0.150 HD
BRANCH  10  28
ATOM     28  C   UNL     1       0.958   1.107  24.333  0.00  0.00    +0.163 C 
BRANCH  28  30
ATOM      7  O   UNL     1       0.264   3.279  23.492  0.00  0.00    -0.274 OA
ATOM     11  N   UNL     1       0.605   3.033  25.750  0.00  0.00    -0.328 N 
ATOM     30  C   UNL     1       0.588   2.578  24.448  0.00  0.00    +0.231 C 
ATOM     43  H   UNL     1       0.363   3.994  25.969  0.00  0.00    +0.145 HD
ATOM     44  H   UNL     1       0.870   2.442  26.532  0.00  0.00    +0.145 HD
ENDBRANCH  28  30
BRANCH  28  29
ATOM     29  C   UNL     1       1.687   0.842  23.011  0.00  0.00    +0.067 C 
BRANCH  29  31
ATOM     31  C   UNL     1       3.110   0.380  23.211  0.00  0.00    -0.045 A 
ATOM     32  C   UNL     1       3.371  -0.952  23.532  0.00  0.00    +0.007 A 
ATOM     33  C   UNL     1       4.163   1.285  23.076  0.00  0.00    +0.007 A 
ATOM     34  C   UNL     1       4.687  -1.380  23.718  0.00  0.00    +0.046 A 
ATOM     35  C   UNL     1       5.478   0.858  23.261  0.00  0.00    +0.046 A 
ATOM     36  C   UNL     1       5.740  -0.474  23.582  0.00  0.00    +0.120 A 
BRANCH  36   8
ATOM      8  O   UNL     1       7.022  -0.890  23.763  0.00  0.00    -0.495 OA
ATOM     37  C   UNL     1       7.965  -0.548  22.749  0.00  0.00    +0.277 C 
ENDBRANCH  36   8
ENDBRANCH  29  31
ENDBRANCH  28  29
ENDBRANCH  10  28
ENDBRANCH  26  27
BRANCH  22   4
ATOM      4  O   UNL     1      -4.638  -1.693  23.363  0.00  0.00    -0.387 OA
ATOM     40  H   UNL     1      -5.314  -1.014  23.524  0.00  0.00    +0.210 HD
ENDBRANCH  22   4
BRANCH  23   5
ATOM      5  O   UNL     1      -3.187  -4.246  25.545  0.00  0.00    -0.389 OA
ATOM     41  H   UNL     1      -3.757  -5.025  25.424  0.00  0.00    +0.210 HD
ENDBRANCH  23   5
TORSDOF 14
ENDMDL
MODEL 4
REMARK VINA RESULT:       4.1      1.722      2.291
REMARK  Name = 7134442
REMARK  15 active torsions:
REMARK  status: ('A' for Active; 'I' for Inactive)
REMARK    1  A    between atoms: O_2  and  C_20
REMARK    2  A    between atoms: O_4  and  C_22
REMARK    3  A    between atoms: O_5  and  C_23
REMARK    4  A    between atoms: O_8  and  C_36
REMARK    5  A    between atoms: O_8  and  C_37
REMARK    6  A    between atoms: N_9  and  C_21
REMARK    7  A    between atoms: N_10  and  C_28
REMARK    8  A    between atoms: C_12  and  C_17
REMARK    9  A    between atoms: C_12  and  C_18
REMARK   10  A    between atoms: C_17  and  C_19
REMARK   11  A    between atoms: C_18  and  C_20
REMARK   12  A    between atoms: C_26  and  C_27
REMARK   13  A    between atoms: C_28  and  C_29
REMARK   14  A    between atoms: C_28  and  C_30
REMARK   15  A    between atoms: C_29  and  C_31
REMARK                            x       y       z     vdW  Elec       q    Type
REMARK                         _______ _______ _______ _____ _____    ______ ____
ROOT
ATOM     21  C   UNL     1       0.189   3.003  25.151  0.00  0.00    +0.127 C 
ATOM     22  C   UNL     1       0.300   4.028  24.007  0.00  0.00    +0.167 C 
ATOM     23  C   UNL     1      -0.643   5.218  24.225  0.00  0.00    +0.149 C 
ATOM     24  C   UNL     1      -1.231   2.715  25.557  0.00  0.00    +0.006 C 
ATOM     25  C   UNL     1      -2.105   4.773  24.402  0.00  0.00    +0.074 C 
ATOM     26  C   UNL     1      -2.251   3.514  25.208  0.00  0.00    +0.015 C 
ENDROOT
BRANCH  21   9
ATOM      1  O   UNL     1      -0.719   1.002  23.268  0.00  0.00    -0.276 OA
ATOM      9  N   UNL     1       0.839   1.759  24.817  0.00  0.00    -0.306 N 
ATOM     19  C   UNL     1       0.326   0.855  23.897  0.00  0.00    +0.214 C 
ATOM     38  H   UNL     1       1.750   1.583  25.232  0.00  0.00    +0.149 HD
BRANCH  19  17
ATOM     17  C   UNL     1       1.222  -0.360  23.746  0.00  0.00    +0.103 C 
BRANCH  17  12
ATOM     12  C   UNL     1       2.514  -0.048  22.989  0.00  0.00    -0.011 C 
ATOM     13  C   UNL     1       3.697  -0.864  23.528  0.00  0.00    +0.008 C 
ATOM     14  C   UNL     1       2.986   1.390  23.244  0.00  0.00    +0.008 C 
ATOM     15  C   UNL     1       4.941  -0.073  23.129  0.00  0.00    +0.001 C 
ATOM     16  C   UNL     1       4.484   1.375  22.947  0.00  0.00    +0.001 C 
BRANCH  12  18
ATOM     18  C   UNL     1       2.297  -0.307  21.488  0.00  0.00    +0.127 C 
BRANCH  18  20
ATOM      3  O   UNL     1       0.352  -1.692  21.983  0.00  0.00    -0.251 OA
ATOM     20  C   UNL     1       0.963  -0.946  21.232  0.00  0.00    +0.305 C 
BRANCH  20   2
ATOM      2  O   UNL     1       0.511  -0.569  20.009  0.00  0.00    -0.481 OA
ATOM     39  H   UNL     1      -0.282  -1.079  19.740  0.00  0.00    +0.295 HD
ENDBRANCH  20   2
ENDBRANCH  18  20
ENDBRANCH  12  18
ENDBRANCH  17  12
ENDBRANCH  19  17
ENDBRANCH  21   9
BRANCH  26  27
ATOM      6  O   UNL     1      -4.010   3.483  26.765  0.00  0.00    -0.271 OA
ATOM     10  N   UNL     1      -4.283   2.377  24.731  0.00  0.00    -0.300 N 
ATOM     27  C   UNL     1      -3.593   3.136  25.661  0.00  0.00    +0.241 C 
ATOM     42  H   UNL     1      -3.804   2.076  23.886  0.00  0.00    +0.150 HD
BRANCH  10  28
ATOM     28  C   UNL     1      -5.623   1.885  24.951  0.00  0.00    +0.163 C 
BRANCH  28  30
ATOM      7  O   UNL     1      -6.514   4.080  25.493  0.00  0.00    -0.274 OA
ATOM     11  N   UNL     1      -6.818   2.369  26.996  0.00  0.00    -0.328 N 
ATOM     30  C   UNL     1      -6.339   2.908  25.821  0.00  0.00    +0.231 C 
ATOM     43  H   UNL     1      -7.329   2.941  27.661  0.00  0.00    +0.145 HD
ATOM     44  H   UNL     1      -6.669   1.398  27.252  0.00  0.00    +0.145 HD
ENDBRANCH  28  30
BRANCH  28  29
ATOM     29  C   UNL     1      -5.633   0.509  25.627  0.00  0.00    +0.067 C 
BRANCH  29  31
ATOM     31  C   UNL     1      -4.426  -0.324  25.273  0.00  0.00    -0.045 A 
ATOM     32  C   UNL     1      -3.301  -0.308  26.099  0.00  0.00    +0.007 A 
ATOM     33  C   UNL     1      -4.434  -1.111  24.121  0.00  0.00    +0.007 A 
ATOM     34  C   UNL     1      -2.184  -1.078  25.772  0.00  0.00    +0.046 A 
ATOM     35  C   UNL     1      -3.318  -1.881  23.794  0.00  0.00    +0.046 A 
ATOM     36  C   UNL     1      -2.193  -1.864  24.619  0.00  0.00    +0.120 A 
BRANCH  36   8
ATOM      8  O   UNL     1      -1.104  -2.615  24.300  0.00  0.00    -0.495 OA
ATOM     37  C   UNL     1      -0.112  -2.783  25.310  0.00  0.00    +0.277 C 
ENDBRANCH  36   8
ENDBRANCH  29  31
ENDBRANCH  28  29
ENDBRANCH  10  28
ENDBRANCH  26  27
BRANCH  22   4
ATOM      4  O   UNL     1      -0.032   3.401  22.767  0.00  0.00    -0.387 OA
ATOM     40  H   UNL     1       0.284   2.482  22.809  0.00  0.00    +0.210 HD
ENDBRANCH  22   4
BRANCH  23   5
ATOM      5  O   UNL     1      -0.222   5.977  25.357  0.00  0.00    -0.389 OA
ATOM     41  H   UNL     1       0.323   5.396  25.915  0.00  0.00    +0.210 HD
ENDBRANCH  23   5
TORSDOF 14
ENDMDL
MODEL 5
REMARK VINA RESULT:       4.2      1.777      4.526
REMARK  Name = 7134442
REMARK  15 active torsions:
REMARK  status: ('A' for Active; 'I' for Inactive)
REMARK    1  A    between atoms: O_2  and  C_20
REMARK    2  A    between atoms: O_4  and  C_22
REMARK    3  A    between atoms: O_5  and  C_23
REMARK    4  A    between atoms: O_8  and  C_36
REMARK    5  A    between atoms: O_8  and  C_37
REMARK    6  A    between atoms: N_9  and  C_21
REMARK    7  A    between atoms: N_10  and  C_28
REMARK    8  A    between atoms: C_12  and  C_17
REMARK    9  A    between atoms: C_12  and  C_18
REMARK   10  A    between atoms: C_17  and  C_19
REMARK   11  A    between atoms: C_18  and  C_20
REMARK   12  A    between atoms: C_26  and  C_27
REMARK   13  A    between atoms: C_28  and  C_29
REMARK   14  A    between atoms: C_28  and  C_30
REMARK   15  A    between atoms: C_29  and  C_31
REMARK                            x       y       z     vdW  Elec       q    Type
REMARK                         _______ _______ _______ _____ _____    ______ ____
ROOT
ATOM     21  C   UNL     1      -1.510  -1.486  24.210  0.00  0.00    +0.127 C 
ATOM     22  C   UNL     1      -2.058  -2.427  25.299  0.00  0.00    +0.167 C 
ATOM     23  C   UNL     1      -3.579  -2.587  25.188  0.00  0.00    +0.149 C 
ATOM     24  C   UNL     1      -2.340  -0.245  24.021  0.00  0.00    +0.006 C 
ATOM     25  C   UNL     1      -4.309  -1.234  25.237  0.00  0.00    +0.074 C 
ATOM     26  C   UNL     1      -3.591  -0.143  24.494  0.00  0.00    +0.015 C 
ENDROOT
BRANCH  21   9
ATOM      1  O   UNL     1      -0.102   0.814  23.158  0.00  0.00    -0.276 OA
ATOM      9  N   UNL     1      -0.146  -1.098  24.479  0.00  0.00    -0.306 N 
ATOM     19  C   UNL     1       0.448   0.029  23.925  0.00  0.00    +0.214 C 
ATOM     38  H   UNL     1       0.369  -1.646  25.162  0.00  0.00    +0.149 HD
BRANCH  19  17
ATOM     17  C   UNL     1       1.884   0.188  24.387  0.00  0.00    +0.103 C 
BRANCH  17  12
ATOM     12  C   UNL     1       2.891   0.027  23.245  0.00  0.00    -0.011 C 
ATOM     13  C   UNL     1       3.518   1.370  22.851  0.00  0.00    +0.008 C 
ATOM     14  C   UNL     1       2.202  -0.391  21.939  0.00  0.00    +0.008 C 
ATOM     15  C   UNL     1       4.002   1.177  21.416  0.00  0.00    +0.001 C 
ATOM     16  C   UNL     1       3.157   0.045  20.830  0.00  0.00    +0.001 C 
BRANCH  12  18
ATOM     18  C   UNL     1       3.968  -0.990  23.660  0.00  0.00    +0.127 C 
BRANCH  18  20
ATOM      3  O   UNL     1       6.273  -0.418  23.109  0.00  0.00    -0.251 OA
ATOM     20  C   UNL     1       5.302  -0.327  23.845  0.00  0.00    +0.305 C 
BRANCH  20   2
ATOM      2  O   UNL     1       5.282   0.416  24.981  0.00  0.00    -0.481 OA
ATOM     39  H   UNL     1       4.433   0.323  25.464  0.00  0.00    +0.295 HD
ENDBRANCH  20   2
ENDBRANCH  18  20
ENDBRANCH  12  18
ENDBRANCH  17  12
ENDBRANCH  19  17
ENDBRANCH  21   9
BRANCH  26  27
ATOM      6  O   UNL     1      -5.405   1.326  24.761  0.00  0.00    -0.271 OA
ATOM     10  N   UNL     1      -3.618   1.972  23.411  0.00  0.00    -0.300 N 
ATOM     27  C   UNL     1      -4.307   1.112  24.250  0.00  0.00    +0.241 C 
ATOM     42  H   UNL     1      -2.756   1.653  22.976  0.00  0.00    +0.150 HD
BRANCH  10  28
ATOM     28  C   UNL     1      -4.122   3.269  23.022  0.00  0.00    +0.163 C 
BRANCH  28  30
ATOM      7  O   UNL     1      -4.432   4.211  20.804  0.00  0.00    -0.274 OA
ATOM     11  N   UNL     1      -2.753   2.675  21.120  0.00  0.00    -0.328 N 
ATOM     30  C   UNL     1      -3.821   3.440  21.541  0.00  0.00    +0.231 C 
ATOM     43  H   UNL     1      -2.438   2.707  20.156  0.00  0.00    +0.145 HD
ATOM     44  H   UNL     1      -2.255   2.045  21.741  0.00  0.00    +0.145 HD
ENDBRANCH  28  30
BRANCH  28  29
ATOM     29  C   UNL     1      -3.487   4.405  23.831  0.00  0.00    +0.067 C 
BRANCH  29  31
ATOM     31  C   UNL     1      -2.293   3.954  24.635  0.00  0.00    -0.045 A 
ATOM     32  C   UNL     1      -2.464   3.507  25.946  0.00  0.00    +0.007 A 
ATOM     33  C   UNL     1      -1.018   3.984  24.068  0.00  0.00    +0.007 A 
ATOM     34  C   UNL     1      -1.359   3.089  26.690  0.00  0.00    +0.046 A 
ATOM     35  C   UNL     1       0.086   3.566  24.812  0.00  0.00    +0.046 A 
ATOM     36  C   UNL     1      -0.085   3.119  26.123  0.00  0.00    +0.120 A 
BRANCH  36   8
ATOM      8  O   UNL     1       0.992   2.713  26.847  0.00  0.00    -0.495 OA
ATOM     37  C   UNL     1       0.769   2.392  28.219  0.00  0.00    +0.277 C 
ENDBRANCH  36   8
ENDBRANCH  29  31
ENDBRANCH  28  29
ENDBRANCH  10  28
ENDBRANCH  26  27
BRANCH  22   4
ATOM      4  O   UNL     1      -1.744  -1.901  26.590  0.00  0.00    -0.387 OA
ATOM     40  H   UNL     1      -0.779  -1.946  26.698  0.00  0.00    +0.210 HD
ENDBRANCH  22   4
BRANCH  23   5
ATOM      5  O   UNL     1      -3.914  -3.282  23.989  0.00  0.00    -0.389 OA
ATOM     41  H   UNL     1      -4.814  -3.634  24.094  0.00  0.00    +0.210 HD
ENDBRANCH  23   5
TORSDOF 14
ENDMDL
MODEL 6
REMARK VINA RESULT:       4.4      1.889      5.775
REMARK  Name = 7134442
REMARK  15 active torsions:
REMARK  status: ('A' for Active; 'I' for Inactive)
REMARK    1  A    between atoms: O_2  and  C_20
REMARK    2  A    between atoms: O_4  and  C_22
REMARK    3  A    between atoms: O_5  and  C_23
REMARK    4  A    between atoms: O_8  and  C_36
REMARK    5  A    between atoms: O_8  and  C_37
REMARK    6  A    between atoms: N_9  and  C_21
REMARK    7  A    between atoms: N_10  and  C_28
REMARK    8  A    between atoms: C_12  and  C_17
REMARK    9  A    between atoms: C_12  and  C_18
REMARK   10  A    between atoms: C_17  and  C_19
REMARK   11  A    between atoms: C_18  and  C_20
REMARK   12  A    between atoms: C_26  and  C_27
REMARK   13  A    between atoms: C_28  and  C_29
REMARK   14  A    between atoms: C_28  and  C_30
REMARK   15  A    between atoms: C_29  and  C_31
REMARK                            x       y       z     vdW  Elec       q    Type
REMARK                         _______ _______ _______ _____ _____    ______ ____
ROOT
ATOM     21  C   UNL     1       1.052  -0.302  24.020  0.00  0.00    +0.127 C 
ATOM     22  C   UNL     1       1.987  -0.401  22.801  0.00  0.00    +0.167 C 
ATOM     23  C   UNL     1       2.911   0.820  22.701  0.00  0.00    +0.149 C 
ATOM     24  C   UNL     1       0.441   1.063  24.194  0.00  0.00    +0.006 C 
ATOM     25  C   UNL     1       2.122   2.140  22.662  0.00  0.00    +0.074 C 
ATOM     26  C   UNL     1       0.927   2.148  23.572  0.00  0.00    +0.015 C 
ENDROOT
BRANCH  21   9
ATOM      1  O   UNL     1       0.574  -2.481  25.864  0.00  0.00    -0.276 OA
ATOM      9  N   UNL     1      -0.006  -1.281  23.961  0.00  0.00    -0.306 N 
ATOM     19  C   UNL     1      -0.156  -2.297  24.895  0.00  0.00    +0.214 C 
ATOM     38  H   UNL     1      -0.707  -1.166  23.234  0.00  0.00    +0.149 HD
BRANCH  19  17
ATOM     17  C   UNL     1      -1.355  -3.172  24.581  0.00  0.00    +0.103 C 
BRANCH  17  12
ATOM     12  C   UNL     1      -2.675  -2.399  24.618  0.00  0.00    -0.011 C 
ATOM     13  C   UNL     1      -3.864  -3.292  24.241  0.00  0.00    +0.008 C 
ATOM     14  C   UNL     1      -2.732  -1.326  23.522  0.00  0.00    +0.008 C 
ATOM     15  C   UNL     1      -4.948  -2.329  23.760  0.00  0.00    +0.001 C 
ATOM     16  C   UNL     1      -4.220  -1.066  23.297  0.00  0.00    +0.001 C 
BRANCH  12  18
ATOM     18  C   UNL     1      -2.862  -1.782  26.014  0.00  0.00    +0.127 C 
BRANCH  18  20
ATOM      3  O   UNL     1      -2.247   0.535  25.568  0.00  0.00    -0.251 OA
ATOM     20  C   UNL     1      -2.068  -0.517  26.163  0.00  0.00    +0.305 C 
BRANCH  20   2
ATOM      2  O   UNL     1      -1.087  -0.706  27.083  0.00  0.00    -0.481 OA
ATOM     39  H   UNL     1      -1.326  -1.400  27.734  0.00  0.00    +0.295 HD
ENDBRANCH  20   2
ENDBRANCH  18  20
ENDBRANCH  12  18
ENDBRANCH  17  12
ENDBRANCH  19  17
ENDBRANCH  21   9
BRANCH  26  27
ATOM      6  O   UNL     1       0.868   4.490  23.748  0.00  0.00    -0.271 OA
ATOM     10  N   UNL     1      -1.089   3.280  24.119  0.00  0.00    -0.300 N 
ATOM     27  C   UNL     1       0.253   3.427  23.816  0.00  0.00    +0.241 C 
ATOM     42  H   UNL     1      -1.471   2.344  24.234  0.00  0.00    +0.150 HD
BRANCH  10  28
ATOM     28  C   UNL     1      -1.962   4.396  24.401  0.00  0.00    +0.163 C 
BRANCH  28  30
ATOM      7  O   UNL     1      -2.804   5.307  26.491  0.00  0.00    -0.274 OA
ATOM     11  N   UNL     1      -1.676   3.306  26.540  0.00  0.00    -0.328 N 
ATOM     30  C   UNL     1      -2.190   4.418  25.905  0.00  0.00    +0.231 C 
ATOM     43  H   UNL     1      -1.773   3.188  27.543  0.00  0.00    +0.145 HD
ATOM     44  H   UNL     1      -1.174   2.577  26.043  0.00  0.00    +0.145 HD
ENDBRANCH  28  30
BRANCH  28  29
ATOM     29  C   UNL     1      -3.300   4.289  23.660  0.00  0.00    +0.067 C 
BRANCH  29  31
ATOM     31  C   UNL     1      -4.319   3.466  24.410  0.00  0.00    -0.045 A 
ATOM     32  C   UNL     1      -5.185   4.084  25.312  0.00  0.00    +0.007 A 
ATOM     33  C   UNL     1      -4.394   2.089  24.201  0.00  0.00    +0.007 A 
ATOM     34  C   UNL     1      -6.127   3.323  26.006  0.00  0.00    +0.046 A 
ATOM     35  C   UNL     1      -5.335   1.329  24.895  0.00  0.00    +0.046 A 
ATOM     36  C   UNL     1      -6.202   1.946  25.797  0.00  0.00    +0.120 A 
BRANCH  36   8
ATOM      8  O   UNL     1      -7.120   1.204  26.474  0.00  0.00    -0.495 OA
ATOM     37  C   UNL     1      -6.969   1.117  27.890  0.00  0.00    +0.277 C 
ENDBRANCH  36   8
ENDBRANCH  29  31
ENDBRANCH  28  29
ENDBRANCH  10  28
ENDBRANCH  26  27
BRANCH  22   4
ATOM      4  O   UNL     1       1.210  -0.488  21.605  0.00  0.00    -0.387 OA
ATOM     40  H   UNL     1       1.752  -0.939  20.936  0.00  0.00    +0.210 HD
ENDBRANCH  22   4
BRANCH  23   5
ATOM      5  O   UNL     1       3.830   0.831  23.791  0.00  0.00    -0.389 OA
ATOM     41  H   UNL     1       4.046  -0.093  24.003  0.00  0.00    +0.210 HD
ENDBRANCH  23   5
TORSDOF 14
ENDMDL
MODEL 7
REMARK VINA RESULT:       4.5      1.535      4.634
REMARK  Name = 7134442
REMARK  15 active torsions:
REMARK  status: ('A' for Active; 'I' for Inactive)
REMARK    1  A    between atoms: O_2  and  C_20
REMARK    2  A    between atoms: O_4  and  C_22
REMARK    3  A    between atoms: O_5  and  C_23
REMARK    4  A    between atoms: O_8  and  C_36
REMARK    5  A    between atoms: O_8  and  C_37
REMARK    6  A    between atoms: N_9  and  C_21
REMARK    7  A    between atoms: N_10  and  C_28
REMARK    8  A    between atoms: C_12  and  C_17
REMARK    9  A    between atoms: C_12  and  C_18
REMARK   10  A    between atoms: C_17  and  C_19
REMARK   11  A    between atoms: C_18  and  C_20
REMARK   12  A    between atoms: C_26  and  C_27
REMARK   13  A    between atoms: C_28  and  C_29
REMARK   14  A    between atoms: C_28  and  C_30
REMARK   15  A    between atoms: C_29  and  C_31
REMARK                            x       y       z     vdW  Elec       q    Type
REMARK                         _______ _______ _______ _____ _____    ______ ____
ROOT
ATOM     21  C   UNL     1      -1.970  -1.230  23.850  0.00  0.00    +0.127 C 
ATOM     22  C   UNL     1      -2.557  -2.580  24.305  0.00  0.00    +0.167 C 
ATOM     23  C   UNL     1      -4.079  -2.619  24.126  0.00  0.00    +0.149 C 
ATOM     24  C   UNL     1      -2.769  -0.045  24.321  0.00  0.00    +0.006 C 
ATOM     25  C   UNL     1      -4.778  -1.461  24.858  0.00  0.00    +0.074 C 
ATOM     26  C   UNL     1      -4.024  -0.164  24.778  0.00  0.00    +0.015 C 
ENDROOT
BRANCH  21   9
ATOM      1  O   UNL     1       0.153   0.169  22.467  0.00  0.00    -0.276 OA
ATOM      9  N   UNL     1      -0.602  -1.071  24.281  0.00  0.00    -0.306 N 
ATOM     19  C   UNL     1       0.352  -0.380  23.547  0.00  0.00    +0.214 C 
ATOM     38  H   UNL     1      -0.359  -1.428  25.201  0.00  0.00    +0.149 HD
BRANCH  19  17
ATOM     17  C   UNL     1       1.699  -0.374  24.245  0.00  0.00    +0.103 C 
BRANCH  17  12
ATOM     12  C   UNL     1       2.865  -0.173  23.274  0.00  0.00    -0.011 C 
ATOM     13  C   UNL     1       3.338   1.286  23.253  0.00  0.00    +0.008 C 
ATOM     14  C   UNL     1       2.429  -0.381  21.818  0.00  0.00    +0.008 C 
ATOM     15  C   UNL     1       4.037   1.458  21.906  0.00  0.00    +0.001 C 
ATOM     16  C   UNL     1       3.453   0.387  20.984  0.00  0.00    +0.001 C 
BRANCH  12  18
ATOM     18  C   UNL     1       4.011  -1.125  23.656  0.00  0.00    +0.127 C 
BRANCH  18  20
ATOM      3  O   UNL     1       6.276  -0.406  23.108  0.00  0.00    -0.251 OA
ATOM     20  C   UNL     1       5.300  -0.379  23.843  0.00  0.00    +0.305 C 
BRANCH  20   2
ATOM      2  O   UNL     1       5.232   0.359  24.981  0.00  0.00    -0.481 OA
ATOM     39  H   UNL     1       4.708   1.179  24.854  0.00  0.00    +0.295 HD
ENDBRANCH  20   2
ENDBRANCH  18  20
ENDBRANCH  12  18
ENDBRANCH  17  12
ENDBRANCH  19  17
ENDBRANCH  21   9
BRANCH  26  27
ATOM      6  O   UNL     1      -5.918   1.202  25.043  0.00  0.00    -0.271 OA
ATOM     10  N   UNL     1      -3.851   1.979  25.791  0.00  0.00    -0.300 N 
ATOM     27  C   UNL     1      -4.707   1.060  25.209  0.00  0.00    +0.241 C 
ATOM     42  H   UNL     1      -2.852   1.790  25.795  0.00  0.00    +0.150 HD
BRANCH  10  28
ATOM     28  C   UNL     1      -4.290   3.261  26.292  0.00  0.00    +0.163 C 
BRANCH  28  30
ATOM      7  O   UNL     1      -4.631   4.066  24.024  0.00  0.00    -0.274 OA
ATOM     11  N   UNL     1      -6.316   4.357  25.559  0.00  0.00    -0.328 N 
ATOM     30  C   UNL     1      -5.061   3.940  25.169  0.00  0.00    +0.231 C 
ATOM     43  H   UNL     1      -6.941   4.813  24.901  0.00  0.00    +0.145 HD
ATOM     44  H   UNL     1      -6.660   4.243  26.507  0.00  0.00    +0.145 HD
ENDBRANCH  28  30
BRANCH  28  29
ATOM     29  C   UNL     1      -3.119   4.140  26.745  0.00  0.00    +0.067 C 
BRANCH  29  31
ATOM     31  C   UNL     1      -2.029   4.241  25.706  0.00  0.00    -0.045 A 
ATOM     32  C   UNL     1      -1.352   3.093  25.294  0.00  0.00    +0.007 A 
ATOM     33  C   UNL     1      -1.698   5.481  25.159  0.00  0.00    +0.007 A 
ATOM     34  C   UNL     1      -0.343   3.186  24.334  0.00  0.00    +0.046 A 
ATOM     35  C   UNL     1      -0.691   5.574  24.200  0.00  0.00    +0.046 A 
ATOM     36  C   UNL     1      -0.013   4.426  23.787  0.00  0.00    +0.120 A 
BRANCH  36   8
ATOM      8  O   UNL     1       0.971   4.518  22.851  0.00  0.00    -0.495 OA
ATOM     37  C   UNL     1       0.961   5.669  22.010  0.00  0.00    +0.277 C 
ENDBRANCH  36   8
ENDBRANCH  29  31
ENDBRANCH  28  29
ENDBRANCH  10  28
ENDBRANCH  26  27
BRANCH  22   4
ATOM      4  O   UNL     1      -2.251  -2.796  25.683  0.00  0.00    -0.387 OA
ATOM     40  H   UNL     1      -2.222  -1.927  26.118  0.00  0.00    +0.210 HD
ENDBRANCH  22   4
BRANCH  23   5
ATOM      5  O   UNL     1      -4.412  -2.593  22.739  0.00  0.00    -0.389 OA
ATOM     41  H   UNL     1      -4.632  -3.502  22.472  0.00  0.00    +0.210 HD
ENDBRANCH  23   5
TORSDOF 14
ENDMDL
MODEL 8
REMARK VINA RESULT:       4.9      1.994      8.114
REMARK  Name = 7134442
REMARK  15 active torsions:
REMARK  status: ('A' for Active; 'I' for Inactive)
REMARK    1  A    between atoms: O_2  and  C_20
REMARK    2  A    between atoms: O_4  and  C_22
REMARK    3  A    between atoms: O_5  and  C_23
REMARK    4  A    between atoms: O_8  and  C_36
REMARK    5  A    between atoms: O_8  and  C_37
REMARK    6  A    between atoms: N_9  and  C_21
REMARK    7  A    between atoms: N_10  and  C_28
REMARK    8  A    between atoms: C_12  and  C_17
REMARK    9  A    between atoms: C_12  and  C_18
REMARK   10  A    between atoms: C_17  and  C_19
REMARK   11  A    between atoms: C_18  and  C_20
REMARK   12  A    between atoms: C_26  and  C_27
REMARK   13  A    between atoms: C_28  and  C_29
REMARK   14  A    between atoms: C_28  and  C_30
REMARK   15  A    between atoms: C_29  and  C_31
REMARK                            x       y       z     vdW  Elec       q    Type
REMARK                         _______ _______ _______ _____ _____    ______ ____
ROOT
ATOM     21  C   UNL     1      -3.380  -0.317  25.367  0.00  0.00    +0.127 C 
ATOM     22  C   UNL     1      -4.158  -1.388  24.580  0.00  0.00    +0.167 C 
ATOM     23  C   UNL     1      -3.462  -2.753  24.651  0.00  0.00    +0.149 C 
ATOM     24  C   UNL     1      -1.894  -0.366  25.131  0.00  0.00    +0.006 C 
ATOM     25  C   UNL     1      -2.006  -2.685  24.161  0.00  0.00    +0.074 C 
ATOM     26  C   UNL     1      -1.292  -1.432  24.582  0.00  0.00    +0.015 C 
ENDROOT
BRANCH  21   9
ATOM      1  O   UNL     1      -5.832   0.916  26.286  0.00  0.00    -0.276 OA
ATOM      9  N   UNL     1      -3.855   1.013  25.069  0.00  0.00    -0.306 N 
ATOM     19  C   UNL     1      -5.051   1.521  25.557  0.00  0.00    +0.214 C 
ATOM     38  H   UNL     1      -3.240   1.618  24.533  0.00  0.00    +0.149 HD
BRANCH  19  17
ATOM     17  C   UNL     1      -5.290   2.942  25.083  0.00  0.00    +0.103 C 
BRANCH  17  12
ATOM     12  C   UNL     1      -3.991   3.673  24.736  0.00  0.00    -0.011 C 
ATOM     13  C   UNL     1      -2.815   3.169  25.583  0.00  0.00    +0.008 C 
ATOM     14  C   UNL     1      -4.051   5.153  25.138  0.00  0.00    +0.008 C 
ATOM     15  C   UNL     1      -1.799   4.308  25.572  0.00  0.00    +0.001 C 
ATOM     16  C   UNL     1      -2.592   5.584  25.287  0.00  0.00    +0.001 C 
BRANCH  12  18
ATOM     18  C   UNL     1      -3.704   3.513  23.234  0.00  0.00    +0.127 C 
BRANCH  18  20
ATOM      3  O   UNL     1      -1.472   2.533  23.282  0.00  0.00    -0.251 OA
ATOM     20  C   UNL     1      -2.656   2.467  22.987  0.00  0.00    +0.305 C 
BRANCH  20   2
ATOM      2  O   UNL     1      -3.222   1.398  22.369  0.00  0.00    -0.481 OA
ATOM     39  H   UNL     1      -3.868   1.672  21.685  0.00  0.00    +0.295 HD
ENDBRANCH  20   2
ENDBRANCH  18  20
ENDBRANCH  12  18
ENDBRANCH  17  12
ENDBRANCH  19  17
ENDBRANCH  21   9
BRANCH  26  27
ATOM      6  O   UNL     1       0.911  -2.110  25.036  0.00  0.00    -0.271 OA
ATOM     10  N   UNL     1       0.549  -0.418  23.474  0.00  0.00    -0.300 N 
ATOM     27  C   UNL     1       0.161  -1.370  24.401  0.00  0.00    +0.241 C 
ATOM     42  H   UNL     1      -0.154   0.198  23.075  0.00  0.00    +0.150 HD
BRANCH  10  28
ATOM     28  C   UNL     1       1.929  -0.170  23.127  0.00  0.00    +0.163 C 
BRANCH  28  30
ATOM      7  O   UNL     1       1.170  -0.694  20.879  0.00  0.00    -0.274 OA
ATOM     11  N   UNL     1       3.131   0.476  21.132  0.00  0.00    -0.328 N 
ATOM     30  C   UNL     1       2.019  -0.186  21.608  0.00  0.00    +0.231 C 
ATOM     43  H   UNL     1       3.303   0.553  20.134  0.00  0.00    +0.145 HD
ATOM     44  H   UNL     1       3.822   0.895  21.746  0.00  0.00    +0.145 HD
ENDBRANCH  28  30
BRANCH  28  29
ATOM     29  C   UNL     1       2.877  -1.214  23.729  0.00  0.00    +0.067 C 
BRANCH  29  31
ATOM     31  C   UNL     1       4.319  -0.768  23.721  0.00  0.00    -0.045 A 
ATOM     32  C   UNL     1       4.627   0.593  23.727  0.00  0.00    +0.007 A 
ATOM     33  C   UNL     1       5.342  -1.716  23.706  0.00  0.00    +0.007 A 
ATOM     34  C   UNL     1       5.960   1.006  23.719  0.00  0.00    +0.046 A 
ATOM     35  C   UNL     1       6.674  -1.303  23.697  0.00  0.00    +0.046 A 
ATOM     36  C   UNL     1       6.984   0.058  23.704  0.00  0.00    +0.120 A 
BRANCH  36   8
ATOM      8  O   UNL     1       8.283   0.459  23.695  0.00  0.00    -0.495 OA
ATOM     37  C   UNL     1       9.193  -0.302  22.902  0.00  0.00    +0.277 C 
ENDBRANCH  36   8
ENDBRANCH  29  31
ENDBRANCH  28  29
ENDBRANCH  10  28
ENDBRANCH  26  27
BRANCH  22   4
ATOM      4  O   UNL     1      -4.263  -0.996  23.211  0.00  0.00    -0.387 OA
ATOM     40  H   UNL     1      -5.033  -0.408  23.132  0.00  0.00    +0.210 HD
ENDBRANCH  22   4
BRANCH  23   5
ATOM      5  O   UNL     1      -3.508  -3.259  25.983  0.00  0.00    -0.389 OA
ATOM     41  H   UNL     1      -2.927  -4.038  26.022  0.00  0.00    +0.210 HD
ENDBRANCH  23   5
TORSDOF 14
ENDMDL
MODEL 9
REMARK VINA RESULT:       5.1      1.824      4.540
REMARK  Name = 7134442
REMARK  15 active torsions:
REMARK  status: ('A' for Active; 'I' for Inactive)
REMARK    1  A    between atoms: O_2  and  C_20
REMARK    2  A    between atoms: O_4  and  C_22
REMARK    3  A    between atoms: O_5  and  C_23
REMARK    4  A    between atoms: O_8  and  C_36
REMARK    5  A    between atoms: O_8  and  C_37
REMARK    6  A    between atoms: N_9  and  C_21
REMARK    7  A    between atoms: N_10  and  C_28
REMARK    8  A    between atoms: C_12  and  C_17
REMARK    9  A    between atoms: C_12  and  C_18
REMARK   10  A    between atoms: C_17  and  C_19
REMARK   11  A    between atoms: C_18  and  C_20
REMARK   12  A    between atoms: C_26  and  C_27
REMARK   13  A    between atoms: C_28  and  C_29
REMARK   14  A    between atoms: C_28  and  C_30
REMARK   15  A    between atoms: C_29  and  C_31
REMARK                            x       y       z     vdW  Elec       q    Type
REMARK                         _______ _______ _______ _____ _____    ______ ____
ROOT
ATOM     21  C   UNL     1      -1.014  -1.083  24.200  0.00  0.00    +0.127 C 
ATOM     22  C   UNL     1      -1.050  -2.178  25.282  0.00  0.00    +0.167 C 
ATOM     23  C   UNL     1      -2.459  -2.764  25.441  0.00  0.00    +0.149 C 
ATOM     24  C   UNL     1      -2.172  -0.126  24.282  0.00  0.00    +0.006 C 
ATOM     25  C   UNL     1      -3.505  -1.679  25.747  0.00  0.00    +0.074 C 
ATOM     26  C   UNL     1      -3.280  -0.403  24.986  0.00  0.00    +0.015 C 
ENDROOT
BRANCH  21   9
ATOM      1  O   UNL     1      -0.230   1.101  22.470  0.00  0.00    -0.276 OA
ATOM      9  N   UNL     1       0.217  -0.330  24.246  0.00  0.00    -0.306 N 
ATOM     19  C   UNL     1       0.507   0.707  23.369  0.00  0.00    +0.214 C 
ATOM     38  H   UNL     1       0.860  -0.534  25.005  0.00  0.00    +0.149 HD
BRANCH  19  17
ATOM     17  C   UNL     1       1.867   1.316  23.655  0.00  0.00    +0.103 C 
BRANCH  17  12
ATOM     12  C   UNL     1       3.017   0.482  23.084  0.00  0.00    -0.011 C 
ATOM     13  C   UNL     1       3.198  -0.833  23.853  0.00  0.00    +0.008 C 
ATOM     14  C   UNL     1       4.374   1.163  23.308  0.00  0.00    +0.008 C 
ATOM     15  C   UNL     1       4.644  -1.249  23.595  0.00  0.00    +0.001 C 
ATOM     16  C   UNL     1       5.400   0.033  23.245  0.00  0.00    +0.001 C 
BRANCH  12  18
ATOM     18  C   UNL     1       2.761   0.223  21.590  0.00  0.00    +0.127 C 
BRANCH  18  20
ATOM      3  O   UNL     1       1.400  -1.728  22.124  0.00  0.00    -0.251 OA
ATOM     20  C   UNL     1       1.672  -0.790  21.390  0.00  0.00    +0.305 C 
BRANCH  20   2
ATOM      2  O   UNL     1       1.003  -0.512  20.241  0.00  0.00    -0.481 OA
ATOM     39  H   UNL     1       0.376  -1.227  20.002  0.00  0.00    +0.295 HD
ENDBRANCH  20   2
ENDBRANCH  18  20
ENDBRANCH  12  18
ENDBRANCH  17  12
ENDBRANCH  19  17
ENDBRANCH  21   9
BRANCH  26  27
ATOM      6  O   UNL     1      -5.152   0.680  24.067  0.00  0.00    -0.271 OA
ATOM     10  N   UNL     1      -4.320   1.408  26.119  0.00  0.00    -0.300 N 
ATOM     27  C   UNL     1      -4.346   0.603  24.994  0.00  0.00    +0.241 C 
ATOM     42  H   UNL     1      -3.553   1.311  26.779  0.00  0.00    +0.150 HD
BRANCH  10  28
ATOM     28  C   UNL     1      -5.269   2.473  26.351  0.00  0.00    +0.163 C 
BRANCH  28  30
ATOM      7  O   UNL     1      -7.276   1.346  27.131  0.00  0.00    -0.274 OA
ATOM     11  N   UNL     1      -7.179   2.026  24.939  0.00  0.00    -0.328 N 
ATOM     30  C   UNL     1      -6.660   1.873  26.207  0.00  0.00    +0.231 C 
ATOM     43  H   UNL     1      -8.107   1.683  24.711  0.00  0.00    +0.145 HD
ATOM     44  H   UNL     1      -6.660   2.467  24.186  0.00  0.00    +0.145 HD
ENDBRANCH  28  30
BRANCH  28  29
ATOM     29  C   UNL     1      -5.086   3.638  25.372  0.00  0.00    +0.067 C 
BRANCH  29  31
ATOM     31  C   UNL     1      -3.652   3.817  24.938  0.00  0.00    -0.045 A 
ATOM     32  C   UNL     1      -3.239   3.352  23.690  0.00  0.00    +0.007 A 
ATOM     33  C   UNL     1      -2.739   4.446  25.786  0.00  0.00    +0.007 A 
ATOM     34  C   UNL     1      -1.912   3.516  23.288  0.00  0.00    +0.046 A 
ATOM     35  C   UNL     1      -1.414   4.611  25.384  0.00  0.00    +0.046 A 
ATOM     36  C   UNL     1      -1.000   4.145  24.135  0.00  0.00    +0.120 A 
BRANCH  36   8
ATOM      8  O   UNL     1       0.293   4.306  23.744  0.00  0.00    -0.495 OA
ATOM     37  C   UNL     1       0.543   5.235  22.691  0.00  0.00    +0.277 C 
ENDBRANCH  36   8
ENDBRANCH  29  31
ENDBRANCH  28  29
ENDBRANCH  10  28
ENDBRANCH  26  27
BRANCH  22   4
ATOM      4  O   UNL     1      -0.636  -1.630  26.535  0.00  0.00    -0.387 OA
ATOM     40  H   UNL     1      -0.761  -0.667  26.489  0.00  0.00    +0.210 HD
ENDBRANCH  22   4
BRANCH  23   5
ATOM      5  O   UNL     1      -2.828  -3.483  24.266  0.00  0.00    -0.389 OA
ATOM     41  H   UNL     1      -2.509  -2.977  23.499  0.00  0.00    +0.210 HD
ENDBRANCH  23   5
TORSDOF 14
ENDMDL
MODEL 10
REMARK VINA RESULT:       5.9      2.338      6.497
REMARK  Name = 7134442
REMARK  15 active torsions:
REMARK  status: ('A' for Active; 'I' for Inactive)
REMARK    1  A    between atoms: O_2  and  C_20
REMARK    2  A    between atoms: O_4  and  C_22
REMARK    3  A    between atoms: O_5  and  C_23
REMARK    4  A    between atoms: O_8  and  C_36
REMARK    5  A    between atoms: O_8  and  C_37
REMARK    6  A    between atoms: N_9  and  C_21
REMARK    7  A    between atoms: N_10  and  C_28
REMARK    8  A    between atoms: C_12  and  C_17
REMARK    9  A    between atoms: C_12  and  C_18
REMARK   10  A    between atoms: C_17  and  C_19
REMARK   11  A    between atoms: C_18  and  C_20
REMARK   12  A    between atoms: C_26  and  C_27
REMARK   13  A    between atoms: C_28  and  C_29
REMARK   14  A    between atoms: C_28  and  C_30
REMARK   15  A    between atoms: C_29  and  C_31
REMARK                            x       y       z     vdW  Elec       q    Type
REMARK                         _______ _______ _______ _____ _____    ______ ____
ROOT
ATOM     21  C   UNL     1       1.087  -0.998  23.516  0.00  0.00    +0.127 C 
ATOM     22  C   UNL     1       1.753  -0.649  22.171  0.00  0.00    +0.167 C 
ATOM     23  C   UNL     1       2.794   0.465  22.332  0.00  0.00    +0.149 C 
ATOM     24  C   UNL     1       0.708   0.214  24.324  0.00  0.00    +0.006 C 
ATOM     25  C   UNL     1       2.196   1.728  22.973  0.00  0.00    +0.074 C 
ATOM     26  C   UNL     1       1.207   1.432  24.065  0.00  0.00    +0.015 C 
ENDROOT
BRANCH  21   9
ATOM      1  O   UNL     1      -0.184  -2.699  25.482  0.00  0.00    -0.276 OA
ATOM      9  N   UNL     1      -0.084  -1.821  23.333  0.00  0.00    -0.306 N 
ATOM     19  C   UNL     1      -0.625  -2.609  24.340  0.00  0.00    +0.214 C 
ATOM     38  H   UNL     1      -0.565  -1.756  22.440  0.00  0.00    +0.149 HD
BRANCH  19  17
ATOM     17  C   UNL     1      -1.852  -3.362  23.862  0.00  0.00    +0.103 C 
BRANCH  17  12
ATOM     12  C   UNL     1      -3.158  -2.657  24.239  0.00  0.00    -0.011 C 
ATOM     13  C   UNL     1      -4.368  -3.307  23.554  0.00  0.00    +0.008 C 
ATOM     14  C   UNL     1      -3.212  -1.230  23.678  0.00  0.00    +0.008 C 
ATOM     15  C   UNL     1      -5.442  -2.221  23.530  0.00  0.00    +0.001 C 
ATOM     16  C   UNL     1      -4.699  -0.887  23.609  0.00  0.00    +0.001 C 
BRANCH  12  18
ATOM     18  C   UNL     1      -3.314  -2.663  25.769  0.00  0.00    +0.127 C 
BRANCH  18  20
ATOM      3  O   UNL     1      -4.184  -0.499  26.479  0.00  0.00    -0.251 OA
ATOM     20  C   UNL     1      -3.250  -1.272  26.329  0.00  0.00    +0.305 C 
BRANCH  20   2
ATOM      2  O   UNL     1      -1.966  -0.978  26.659  0.00  0.00    -0.481 OA
ATOM     39  H   UNL     1      -1.360  -1.077  25.894  0.00  0.00    +0.295 HD
ENDBRANCH  20   2
ENDBRANCH  18  20
ENDBRANCH  12  18
ENDBRANCH  17  12
ENDBRANCH  19  17
ENDBRANCH  21   9
BRANCH  26  27
ATOM      6  O   UNL     1       0.440   3.621  24.434  0.00  0.00    -0.271 OA
ATOM     10  N   UNL     1       0.777   2.218  26.265  0.00  0.00    -0.300 N 
ATOM     27  C   UNL     1       0.768   2.539  24.919  0.00  0.00    +0.241 C 
ATOM     42  H   UNL     1       1.152   1.319  26.557  0.00  0.00    +0.150 HD
BRANCH  10  28
ATOM     28  C   UNL     1       0.387   3.147  27.301  0.00  0.00    +0.163 C 
BRANCH  28  30
ATOM      7  O   UNL     1       0.651   2.503  29.630  0.00  0.00    -0.274 OA
ATOM     11  N   UNL     1       2.534   2.736  28.334  0.00  0.00    -0.328 N 
ATOM     30  C   UNL     1       1.173   2.778  28.551  0.00  0.00    +0.231 C 
ATOM     43  H   UNL     1       3.173   2.488  29.083  0.00  0.00    +0.145 HD
ATOM     44  H   UNL     1       2.951   2.962  27.437  0.00  0.00    +0.145 HD
ENDBRANCH  28  30
BRANCH  28  29
ATOM     29  C   UNL     1      -1.119   3.104  27.584  0.00  0.00    +0.067 C 
BRANCH  29  31
ATOM     31  C   UNL     1      -1.952   3.190  26.329  0.00  0.00    -0.045 A 
ATOM     32  C   UNL     1      -2.206   2.040  25.581  0.00  0.00    +0.007 A 
ATOM     33  C   UNL     1      -2.466   4.419  25.915  0.00  0.00    +0.007 A 
ATOM     34  C   UNL     1      -2.976   2.119  24.420  0.00  0.00    +0.046 A 
ATOM     35  C   UNL     1      -3.235   4.499  24.755  0.00  0.00    +0.046 A 
ATOM     36  C   UNL     1      -3.491   3.348  24.007  0.00  0.00    +0.120 A 
BRANCH  36   8
ATOM      8  O   UNL     1      -4.241   3.426  22.875  0.00  0.00    -0.495 OA
ATOM     37  C   UNL     1      -3.638   2.974  21.664  0.00  0.00    +0.277 C 
ENDBRANCH  36   8
ENDBRANCH  29  31
ENDBRANCH  28  29
ENDBRANCH  10  28
ENDBRANCH  26  27
BRANCH  22   4
ATOM      4  O   UNL     1       0.758  -0.218  21.241  0.00  0.00    -0.387 OA
ATOM     40  H   UNL     1       1.197   0.350  20.585  0.00  0.00    +0.210 HD
ENDBRANCH  22   4
BRANCH  23   5
ATOM      5  O   UNL     1       3.897  -0.002  23.107  0.00  0.00    -0.389 OA
ATOM     41  H   UNL     1       4.712   0.284  22.661  0.00  0.00    +0.210 HD
ENDBRANCH  23   5
TORSDOF 14
ENDMDL
