MODEL 1
REMARK VINA RESULT:       1.5      0.000      0.000
REMARK  Name = 7049398
REMARK  9 active torsions:
REMARK  status: ('A' for Active; 'I' for Inactive)
REMARK    1  A    between atoms: N_6  and  C_15
REMARK    2  A    between atoms: N_7  and  C_20
REMARK    3  A    between atoms: N_8  and  C_27
REMARK    4  A    between atoms: C_11  and  C_16
REMARK    5  A    between atoms: C_14  and  C_19
REMARK    6  A    between atoms: C_20  and  C_22
REMARK    7  A    between atoms: C_20  and  C_24
REMARK    8  A    between atoms: C_22  and  C_23
REMARK    9  A    between atoms: C_27  and  C_31
REMARK                            x       y       z     vdW  Elec       q    Type
REMARK                         _______ _______ _______ _____ _____    ______ ____
ROOT
ATOM      2  O   UNL     1      -2.414   0.295  25.587  0.00  0.00    -0.274 OA
ATOM      7  N   UNL     1      -0.976   0.414  23.760  0.00  0.00    -0.302 N 
ATOM     19  C   UNL     1      -2.086   0.774  24.503  0.00  0.00    +0.234 C 
ATOM     36  H   UNL     1      -0.851   0.820  22.836  0.00  0.00    +0.150 HD
ENDROOT
BRANCH  19  14
ATOM      1  O   UNL     1      -5.218   0.206  24.101  0.00  0.00    -0.275 OA
ATOM      5  N   UNL     1      -4.057   2.136  24.659  0.00  0.00    -0.288 N 
ATOM     14  C   UNL     1      -2.878   1.867  23.851  0.00  0.00    +0.164 C 
ATOM     15  C   UNL     1      -2.540   3.912  25.098  0.00  0.00    +0.094 C 
ATOM     16  C   UNL     1      -5.168   1.303  24.652  0.00  0.00    +0.219 C 
ATOM     17  C   UNL     1      -3.976   3.444  25.307  0.00  0.00    +0.131 C 
ATOM     18  C   UNL     1      -2.105   3.183  23.823  0.00  0.00    +0.055 C 
BRANCH  15   6
ATOM      3  O   UNL     1       0.199   3.007  25.031  0.00  0.00    -0.253 OA
ATOM      6  N   UNL     1      -1.703   3.590  26.226  0.00  0.00    -0.295 N 
ATOM      8  N   UNL     1       0.190   2.917  27.349  0.00  0.00    -0.296 N 
ATOM     21  C   UNL     1      -0.384   3.157  26.104  0.00  0.00    +0.300 C 
ATOM     35  H   UNL     1      -2.114   3.615  27.155  0.00  0.00    +0.151 HD
ATOM     37  H   UNL     1      -0.365   3.087  28.183  0.00  0.00    +0.151 HD
BRANCH   8  27
ATOM     27  C   UNL     1       1.550   2.460  27.509  0.00  0.00    +0.132 C 
BRANCH  27  31
ATOM     31  C   UNL     1       2.004   2.755  28.900  0.00  0.00    -0.016 C 
ATOM     34  C   UNL     1       1.320   2.410  29.996  0.00  0.00    +0.005 C 
ENDBRANCH  27  31
ENDBRANCH   8  27
ENDBRANCH  15   6
BRANCH  16  11
ATOM     11  C   UNL     1      -6.369   1.793  25.394  0.00  0.00    +0.075 C 
ATOM     12  C   UNL     1      -6.581   1.350  26.812  0.00  0.00    +0.013 C 
ATOM     13  C   UNL     1      -6.185   2.767  26.520  0.00  0.00    +0.013 C 
ENDBRANCH  16  11
ENDBRANCH  19  14
BRANCH   7  20
ATOM     20  C   UNL     1      -0.036  -0.599  24.180  0.00  0.00    +0.163 C 
BRANCH  20  24
ATOM      4  O   UNL     1      -1.616  -2.416  23.855  0.00  0.00    -0.274 OA
ATOM     10  N   UNL     1      -0.592  -2.204  25.901  0.00  0.00    -0.328 N 
ATOM     24  C   UNL     1      -0.848  -1.815  24.602  0.00  0.00    +0.231 C 
ATOM     39  H   UNL     1      -1.058  -3.010  26.303  0.00  0.00    +0.145 HD
ATOM     40  H   UNL     1       0.063  -1.712  26.498  0.00  0.00    +0.145 HD
ENDBRANCH  20  24
BRANCH  20  22
ATOM     22  C   UNL     1       0.953  -0.974  23.070  0.00  0.00    +0.069 C 
BRANCH  22  23
ATOM      9  N   UNL     1       3.486   1.676  22.789  0.00  0.00    -0.360 N 
ATOM     23  C   UNL     1       2.170  -0.093  23.043  0.00  0.00    -0.020 A 
ATOM     25  C   UNL     1       3.499  -0.476  23.379  0.00  0.00    +0.003 A 
ATOM     26  C   UNL     1       2.195   1.234  22.685  0.00  0.00    +0.087 A 
ATOM     28  C   UNL     1       4.305   0.653  23.212  0.00  0.00    +0.047 A 
ATOM     29  C   UNL     1       4.096  -1.677  23.811  0.00  0.00    +0.010 A 
ATOM     30  C   UNL     1       5.682   0.640  23.456  0.00  0.00    +0.026 A 
ATOM     32  C   UNL     1       5.473  -1.704  24.059  0.00  0.00    +0.001 A 
ATOM     33  C   UNL     1       6.252  -0.562  23.884  0.00  0.00    +0.002 A 
ATOM     38  H   UNL     1       3.794   2.617  22.588  0.00  0.00    +0.165 HD
ENDBRANCH  22  23
ENDBRANCH  20  22
ENDBRANCH   7  20
TORSDOF 9
ENDMDL
MODEL 2
REMARK VINA RESULT:       2.0      2.083      4.438
REMARK  Name = 7049398
REMARK  9 active torsions:
REMARK  status: ('A' for Active; 'I' for Inactive)
REMARK    1  A    between atoms: N_6  and  C_15
REMARK    2  A    between atoms: N_7  and  C_20
REMARK    3  A    between atoms: N_8  and  C_27
REMARK    4  A    between atoms: C_11  and  C_16
REMARK    5  A    between atoms: C_14  and  C_19
REMARK    6  A    between atoms: C_20  and  C_22
REMARK    7  A    between atoms: C_20  and  C_24
REMARK    8  A    between atoms: C_22  and  C_23
REMARK    9  A    between atoms: C_27  and  C_31
REMARK                            x       y       z     vdW  Elec       q    Type
REMARK                         _______ _______ _______ _____ _____    ______ ____
ROOT
ATOM      2  O   UNL     1       0.810   1.907  24.325  0.00  0.00    -0.274 OA
ATOM      7  N   UNL     1      -0.244   0.618  22.698  0.00  0.00    -0.302 N 
ATOM     19  C   UNL     1      -0.076   1.740  23.490  0.00  0.00    +0.234 C 
ATOM     36  H   UNL     1      -1.064   0.557  22.101  0.00  0.00    +0.150 HD
ENDROOT
BRANCH  19  14
ATOM      1  O   UNL     1      -3.112   0.729  23.265  0.00  0.00    -0.275 OA
ATOM      5  N   UNL     1      -2.189   2.657  24.168  0.00  0.00    -0.288 N 
ATOM     14  C   UNL     1      -1.105   2.794  23.208  0.00  0.00    +0.164 C 
ATOM     15  C   UNL     1      -0.910   4.528  24.884  0.00  0.00    +0.094 C 
ATOM     16  C   UNL     1      -3.153   1.663  24.062  0.00  0.00    +0.219 C 
ATOM     17  C   UNL     1      -2.217   3.776  25.109  0.00  0.00    +0.131 C 
ATOM     18  C   UNL     1      -0.549   4.198  23.432  0.00  0.00    +0.055 C 
BRANCH  15   6
ATOM      3  O   UNL     1      -1.151   2.537  26.959  0.00  0.00    -0.253 OA
ATOM      6  N   UNL     1       0.112   4.111  25.811  0.00  0.00    -0.295 N 
ATOM      8  N   UNL     1       1.059   2.929  27.544  0.00  0.00    -0.296 N 
ATOM     21  C   UNL     1      -0.091   3.138  26.788  0.00  0.00    +0.300 C 
ATOM     35  H   UNL     1       1.004   4.596  25.797  0.00  0.00    +0.151 HD
ATOM     37  H   UNL     1       1.895   3.460  27.317  0.00  0.00    +0.151 HD
BRANCH   8  27
ATOM     27  C   UNL     1       1.123   1.973  28.624  0.00  0.00    +0.132 C 
BRANCH  27  31
ATOM     31  C   UNL     1       2.204   2.378  29.570  0.00  0.00    -0.016 C 
ATOM     34  C   UNL     1       3.168   3.255  29.270  0.00  0.00    +0.005 C 
ENDBRANCH  27  31
ENDBRANCH   8  27
ENDBRANCH  15   6
BRANCH  16  11
ATOM     11  C   UNL     1      -4.301   1.748  25.015  0.00  0.00    +0.075 C 
ATOM     12  C   UNL     1      -5.539   2.488  24.602  0.00  0.00    +0.013 C 
ATOM     13  C   UNL     1      -5.560   0.992  24.711  0.00  0.00    +0.013 C 
ENDBRANCH  16  11
ENDBRANCH  19  14
BRANCH   7  20
ATOM     20  C   UNL     1       0.630  -0.531  22.758  0.00  0.00    +0.163 C 
BRANCH  20  24
ATOM      4  O   UNL     1       2.227  -0.155  20.967  0.00  0.00    -0.274 OA
ATOM     10  N   UNL     1       2.838   0.386  23.114  0.00  0.00    -0.328 N 
ATOM     24  C   UNL     1       1.966  -0.108  22.166  0.00  0.00    +0.231 C 
ATOM     39  H   UNL     1       3.760   0.716  22.851  0.00  0.00    +0.145 HD
ATOM     40  H   UNL     1       2.599   0.441  24.099  0.00  0.00    +0.145 HD
ENDBRANCH  20  24
BRANCH  20  22
ATOM     22  C   UNL     1       0.817  -1.047  24.190  0.00  0.00    +0.069 C 
BRANCH  22  23
ATOM      9  N   UNL     1      -1.969  -0.643  26.554  0.00  0.00    -0.360 N 
ATOM     23  C   UNL     1      -0.460  -1.062  24.982  0.00  0.00    -0.020 A 
ATOM     25  C   UNL     1      -1.638  -1.798  24.674  0.00  0.00    +0.003 A 
ATOM     26  C   UNL     1      -0.694  -0.363  26.143  0.00  0.00    +0.087 A 
ATOM     28  C   UNL     1      -2.570  -1.517  25.676  0.00  0.00    +0.047 A 
ATOM     29  C   UNL     1      -2.003  -2.680  23.638  0.00  0.00    +0.010 A 
ATOM     30  C   UNL     1      -3.853  -2.075  25.692  0.00  0.00    +0.026 A 
ATOM     32  C   UNL     1      -3.283  -3.244  23.640  0.00  0.00    +0.001 A 
ATOM     33  C   UNL     1      -4.193  -2.945  24.653  0.00  0.00    +0.002 A 
ATOM     38  H   UNL     1      -2.408  -0.262  27.381  0.00  0.00    +0.165 HD
ENDBRANCH  22  23
ENDBRANCH  20  22
ENDBRANCH   7  20
TORSDOF 9
ENDMDL
MODEL 3
REMARK VINA RESULT:       2.0     15.674     18.728
REMARK  Name = 7049398
REMARK  9 active torsions:
REMARK  status: ('A' for Active; 'I' for Inactive)
REMARK    1  A    between atoms: N_6  and  C_15
REMARK    2  A    between atoms: N_7  and  C_20
REMARK    3  A    between atoms: N_8  and  C_27
REMARK    4  A    between atoms: C_11  and  C_16
REMARK    5  A    between atoms: C_14  and  C_19
REMARK    6  A    between atoms: C_20  and  C_22
REMARK    7  A    between atoms: C_20  and  C_24
REMARK    8  A    between atoms: C_22  and  C_23
REMARK    9  A    between atoms: C_27  and  C_31
REMARK                            x       y       z     vdW  Elec       q    Type
REMARK                         _______ _______ _______ _____ _____    ______ ____
ROOT
ATOM      2  O   UNL     1      13.943  -6.594  29.184  0.00  0.00    -0.274 OA
ATOM      7  N   UNL     1      15.847  -5.439  29.862  0.00  0.00    -0.302 N 
ATOM     19  C   UNL     1      14.754  -6.267  30.047  0.00  0.00    +0.234 C 
ATOM     36  H   UNL     1      16.402  -5.170  30.671  0.00  0.00    +0.150 HD
ENDROOT
BRANCH  19  14
ATOM      1  O   UNL     1      13.257  -4.352  32.140  0.00  0.00    -0.275 OA
ATOM      5  N   UNL     1      13.276  -6.659  31.899  0.00  0.00    -0.288 N 
ATOM     14  C   UNL     1      14.657  -6.774  31.455  0.00  0.00    +0.164 C 
ATOM     15  C   UNL     1      13.623  -8.961  31.417  0.00  0.00    +0.094 C 
ATOM     16  C   UNL     1      12.717  -5.446  32.277  0.00  0.00    +0.219 C 
ATOM     17  C   UNL     1      12.651  -7.972  32.052  0.00  0.00    +0.131 C 
ATOM     18  C   UNL     1      14.980  -8.263  31.541  0.00  0.00    +0.055 C 
BRANCH  15   6
ATOM      3  O   UNL     1      15.214 -10.388  29.478  0.00  0.00    -0.253 OA
ATOM      6  N   UNL     1      13.276  -9.244  30.047  0.00  0.00    -0.295 N 
ATOM      8  N   UNL     1      13.529 -10.075  27.915  0.00  0.00    -0.296 N 
ATOM     21  C   UNL     1      14.108  -9.943  29.174  0.00  0.00    +0.300 C 
ATOM     35  H   UNL     1      12.411  -8.859  29.677  0.00  0.00    +0.151 HD
ATOM     37  H   UNL     1      12.601  -9.690  27.762  0.00  0.00    +0.151 HD
BRANCH   8  27
ATOM     27  C   UNL     1      14.179 -10.758  26.822  0.00  0.00    +0.132 C 
BRANCH  27  31
ATOM     31  C   UNL     1      13.270 -10.760  25.638  0.00  0.00    -0.016 C 
ATOM     34  C   UNL     1      13.674 -10.514  24.387  0.00  0.00    +0.005 C 
ENDBRANCH  27  31
ENDBRANCH   8  27
ENDBRANCH  15   6
BRANCH  16  11
ATOM     11  C   UNL     1      11.348  -5.505  32.873  0.00  0.00    +0.075 C 
ATOM     12  C   UNL     1      10.478  -4.283  32.825  0.00  0.00    +0.013 C 
ATOM     13  C   UNL     1      10.153  -5.469  31.966  0.00  0.00    +0.013 C 
ENDBRANCH  16  11
ENDBRANCH  19  14
BRANCH   7  20
ATOM     20  C   UNL     1      16.179  -4.838  28.591  0.00  0.00    +0.163 C 
BRANCH  20  24
ATOM      4  O   UNL     1      16.960  -2.606  28.032  0.00  0.00    -0.274 OA
ATOM     10  N   UNL     1      15.972  -2.944  30.079  0.00  0.00    -0.328 N 
ATOM     24  C   UNL     1      16.437  -3.360  28.849  0.00  0.00    +0.231 C 
ATOM     39  H   UNL     1      16.068  -1.977  30.370  0.00  0.00    +0.145 HD
ATOM     40  H   UNL     1      15.519  -3.573  30.732  0.00  0.00    +0.145 HD
ENDBRANCH  20  24
BRANCH  20  22
ATOM     22  C   UNL     1      17.405  -5.491  27.940  0.00  0.00    +0.069 C 
BRANCH  22  23
ATOM      9  N   UNL     1      17.396  -9.045  28.881  0.00  0.00    -0.360 N 
ATOM     23  C   UNL     1      17.397  -6.990  28.042  0.00  0.00    -0.020 A 
ATOM     25  C   UNL     1      17.382  -7.912  26.959  0.00  0.00    +0.003 A 
ATOM     26  C   UNL     1      17.405  -7.716  29.211  0.00  0.00    +0.087 A 
ATOM     28  C   UNL     1      17.381  -9.195  27.513  0.00  0.00    +0.047 A 
ATOM     29  C   UNL     1      17.370  -7.780  25.556  0.00  0.00    +0.010 A 
ATOM     30  C   UNL     1      17.368 -10.355  26.731  0.00  0.00    +0.026 A 
ATOM     32  C   UNL     1      17.356  -8.931  24.762  0.00  0.00    +0.001 A 
ATOM     33  C   UNL     1      17.355 -10.198  25.342  0.00  0.00    +0.002 A 
ATOM     38  H   UNL     1      17.397  -9.806  29.546  0.00  0.00    +0.165 HD
ENDBRANCH  22  23
ENDBRANCH  20  22
ENDBRANCH   7  20
TORSDOF 9
ENDMDL
MODEL 4
REMARK VINA RESULT:       2.5      1.933      6.899
REMARK  Name = 7049398
REMARK  9 active torsions:
REMARK  status: ('A' for Active; 'I' for Inactive)
REMARK    1  A    between atoms: N_6  and  C_15
REMARK    2  A    between atoms: N_7  and  C_20
REMARK    3  A    between atoms: N_8  and  C_27
REMARK    4  A    between atoms: C_11  and  C_16
REMARK    5  A    between atoms: C_14  and  C_19
REMARK    6  A    between atoms: C_20  and  C_22
REMARK    7  A    between atoms: C_20  and  C_24
REMARK    8  A    between atoms: C_22  and  C_23
REMARK    9  A    between atoms: C_27  and  C_31
REMARK                            x       y       z     vdW  Elec       q    Type
REMARK                         _______ _______ _______ _____ _____    ______ ____
ROOT
ATOM      2  O   UNL     1      -1.752   1.590  23.990  0.00  0.00    -0.274 OA
ATOM      7  N   UNL     1      -1.085   2.187  26.139  0.00  0.00    -0.302 N 
ATOM     19  C   UNL     1      -1.498   1.303  25.158  0.00  0.00    +0.234 C 
ATOM     36  H   UNL     1      -0.985   1.849  27.093  0.00  0.00    +0.150 HD
ENDROOT
BRANCH  19  14
ATOM      1  O   UNL     1      -4.347  -0.136  24.839  0.00  0.00    -0.275 OA
ATOM      5  N   UNL     1      -2.180  -0.937  24.626  0.00  0.00    -0.288 N 
ATOM     14  C   UNL     1      -1.587  -0.106  25.663  0.00  0.00    +0.164 C 
ATOM     15  C   UNL     1       0.148  -1.416  24.601  0.00  0.00    +0.094 C 
ATOM     16  C   UNL     1      -3.542  -0.928  24.356  0.00  0.00    +0.219 C 
ATOM     17  C   UNL     1      -1.205  -1.870  24.063  0.00  0.00    +0.131 C 
ATOM     18  C   UNL     1      -0.205  -0.704  25.911  0.00  0.00    +0.055 C 
BRANCH  15   6
ATOM      3  O   UNL     1       2.949  -1.464  23.908  0.00  0.00    -0.253 OA
ATOM      6  N   UNL     1       0.829  -0.549  23.673  0.00  0.00    -0.295 N 
ATOM      8  N   UNL     1       2.587   0.314  22.464  0.00  0.00    -0.296 N 
ATOM     21  C   UNL     1       2.191  -0.641  23.395  0.00  0.00    +0.300 C 
ATOM     35  H   UNL     1       0.305   0.210  23.247  0.00  0.00    +0.151 HD
ATOM     37  H   UNL     1       1.885   0.942  22.080  0.00  0.00    +0.151 HD
BRANCH   8  27
ATOM     27  C   UNL     1       3.948   0.439  21.999  0.00  0.00    +0.132 C 
BRANCH  27  31
ATOM     31  C   UNL     1       4.834   0.747  23.160  0.00  0.00    -0.016 C 
ATOM     34  C   UNL     1       5.822  -0.052  23.577  0.00  0.00    +0.005 C 
ENDBRANCH  27  31
ENDBRANCH   8  27
ENDBRANCH  15   6
BRANCH  16  11
ATOM     11  C   UNL     1      -4.032  -1.955  23.388  0.00  0.00    +0.075 C 
ATOM     12  C   UNL     1      -4.027  -3.401  23.791  0.00  0.00    +0.013 C 
ATOM     13  C   UNL     1      -5.327  -2.661  23.665  0.00  0.00    +0.013 C 
ENDBRANCH  16  11
ENDBRANCH  19  14
BRANCH   7  20
ATOM     20  C   UNL     1      -0.897   3.600  25.904  0.00  0.00    +0.163 C 
BRANCH  20  24
ATOM      4  O   UNL     1      -0.393   4.678  23.786  0.00  0.00    -0.274 OA
ATOM     10  N   UNL     1       0.698   2.726  24.311  0.00  0.00    -0.328 N 
ATOM     24  C   UNL     1      -0.205   3.740  24.556  0.00  0.00    +0.231 C 
ATOM     39  H   UNL     1       1.238   2.706  23.453  0.00  0.00    +0.145 HD
ATOM     40  H   UNL     1       0.860   1.970  24.968  0.00  0.00    +0.145 HD
ENDBRANCH  20  24
BRANCH  20  22
ATOM     22  C   UNL     1      -2.221   4.373  25.910  0.00  0.00    +0.069 C 
BRANCH  22  23
ATOM      9  N   UNL     1      -4.370   3.102  23.212  0.00  0.00    -0.360 N 
ATOM     23  C   UNL     1      -3.265   3.760  25.021  0.00  0.00    -0.020 A 
ATOM     25  C   UNL     1      -4.447   3.089  25.442  0.00  0.00    +0.003 A 
ATOM     26  C   UNL     1      -3.246   3.752  23.646  0.00  0.00    +0.087 A 
ATOM     28  C   UNL     1      -5.122   2.685  24.287  0.00  0.00    +0.047 A 
ATOM     29  C   UNL     1      -5.011   2.785  26.697  0.00  0.00    +0.010 A 
ATOM     30  C   UNL     1      -6.336   1.990  24.326  0.00  0.00    +0.026 A 
ATOM     32  C   UNL     1      -6.223   2.090  26.751  0.00  0.00    +0.001 A 
ATOM     33  C   UNL     1      -6.874   1.699  25.583  0.00  0.00    +0.002 A 
ATOM     38  H   UNL     1      -4.612   2.947  22.243  0.00  0.00    +0.165 HD
ENDBRANCH  22  23
ENDBRANCH  20  22
ENDBRANCH   7  20
TORSDOF 9
ENDMDL
MODEL 5
REMARK VINA RESULT:       2.9      1.886      6.247
REMARK  Name = 7049398
REMARK  9 active torsions:
REMARK  status: ('A' for Active; 'I' for Inactive)
REMARK    1  A    between atoms: N_6  and  C_15
REMARK    2  A    between atoms: N_7  and  C_20
REMARK    3  A    between atoms: N_8  and  C_27
REMARK    4  A    between atoms: C_11  and  C_16
REMARK    5  A    between atoms: C_14  and  C_19
REMARK    6  A    between atoms: C_20  and  C_22
REMARK    7  A    between atoms: C_20  and  C_24
REMARK    8  A    between atoms: C_22  and  C_23
REMARK    9  A    between atoms: C_27  and  C_31
REMARK                            x       y       z     vdW  Elec       q    Type
REMARK                         _______ _______ _______ _____ _____    ______ ____
ROOT
ATOM      2  O   UNL     1       0.357   1.278  25.081  0.00  0.00    -0.274 OA
ATOM      7  N   UNL     1      -0.732   1.269  27.139  0.00  0.00    -0.302 N 
ATOM     19  C   UNL     1      -0.315   0.714  25.942  0.00  0.00    +0.234 C 
ATOM     36  H   UNL     1      -1.356   0.734  27.737  0.00  0.00    +0.150 HD
ENDROOT
BRANCH  19  14
ATOM      1  O   UNL     1      -3.483   0.210  25.905  0.00  0.00    -0.275 OA
ATOM      5  N   UNL     1      -1.748  -0.784  24.729  0.00  0.00    -0.288 N 
ATOM     14  C   UNL     1      -0.756  -0.711  25.791  0.00  0.00    +0.164 C 
ATOM     15  C   UNL     1       0.272  -1.630  23.804  0.00  0.00    +0.094 C 
ATOM     16  C   UNL     1      -3.062  -0.377  24.911  0.00  0.00    +0.219 C 
ATOM     17  C   UNL     1      -1.226  -1.483  23.556  0.00  0.00    +0.131 C 
ATOM     18  C   UNL     1       0.388  -1.610  25.331  0.00  0.00    +0.055 C 
BRANCH  15   6
ATOM      3  O   UNL     1       3.138  -1.462  23.519  0.00  0.00    -0.253 OA
ATOM      6  N   UNL     1       1.022  -0.568  23.182  0.00  0.00    -0.295 N 
ATOM      8  N   UNL     1       2.877   0.576  22.442  0.00  0.00    -0.296 N 
ATOM     21  C   UNL     1       2.413  -0.566  23.088  0.00  0.00    +0.300 C 
ATOM     35  H   UNL     1       0.520   0.252  22.855  0.00  0.00    +0.151 HD
ATOM     37  H   UNL     1       2.201   1.254  22.103  0.00  0.00    +0.151 HD
BRANCH   8  27
ATOM     27  C   UNL     1       4.279   0.830  22.211  0.00  0.00    +0.132 C 
BRANCH  27  31
ATOM     31  C   UNL     1       5.010   0.751  23.510  0.00  0.00    -0.016 C 
ATOM     34  C   UNL     1       5.924  -0.183  23.796  0.00  0.00    +0.005 C 
ENDBRANCH  27  31
ENDBRANCH   8  27
ENDBRANCH  15   6
BRANCH  16  11
ATOM     11  C   UNL     1      -4.008  -0.669  23.792  0.00  0.00    +0.075 C 
ATOM     12  C   UNL     1      -4.589  -2.047  23.668  0.00  0.00    +0.013 C 
ATOM     13  C   UNL     1      -5.457  -0.904  24.102  0.00  0.00    +0.013 C 
ENDBRANCH  16  11
ENDBRANCH  19  14
BRANCH   7  20
ATOM     20  C   UNL     1      -0.418   2.622  27.536  0.00  0.00    +0.163 C 
BRANCH  20  24
ATOM      4  O   UNL     1       1.983   2.993  27.468  0.00  0.00    -0.274 OA
ATOM     10  N   UNL     1       1.055   2.158  29.397  0.00  0.00    -0.328 N 
ATOM     24  C   UNL     1       0.999   2.606  28.093  0.00  0.00    +0.231 C 
ATOM     39  H   UNL     1       1.938   2.111  29.892  0.00  0.00    +0.145 HD
ATOM     40  H   UNL     1       0.230   1.865  29.909  0.00  0.00    +0.145 HD
ENDBRANCH  20  24
BRANCH  20  22
ATOM     22  C   UNL     1      -0.524   3.612  26.370  0.00  0.00    +0.069 C 
BRANCH  22  23
ATOM      9  N   UNL     1      -4.074   4.101  25.549  0.00  0.00    -0.360 N 
ATOM     23  C   UNL     1      -1.906   3.687  25.786  0.00  0.00    -0.020 A 
ATOM     25  C   UNL     1      -2.311   3.219  24.505  0.00  0.00    +0.003 A 
ATOM     26  C   UNL     1      -3.012   4.224  26.404  0.00  0.00    +0.087 A 
ATOM     28  C   UNL     1      -3.675   3.492  24.381  0.00  0.00    +0.047 A 
ATOM     29  C   UNL     1      -1.646   2.588  23.434  0.00  0.00    +0.010 A 
ATOM     30  C   UNL     1      -4.410   3.164  23.237  0.00  0.00    +0.026 A 
ATOM     32  C   UNL     1      -2.368   2.255  22.283  0.00  0.00    +0.001 A 
ATOM     33  C   UNL     1      -3.729   2.540  22.188  0.00  0.00    +0.002 A 
ATOM     38  H   UNL     1      -5.014   4.415  25.746  0.00  0.00    +0.165 HD
ENDBRANCH  22  23
ENDBRANCH  20  22
ENDBRANCH   7  20
TORSDOF 9
ENDMDL
MODEL 6
REMARK VINA RESULT:       3.1      2.521      4.623
REMARK  Name = 7049398
REMARK  9 active torsions:
REMARK  status: ('A' for Active; 'I' for Inactive)
REMARK    1  A    between atoms: N_6  and  C_15
REMARK    2  A    between atoms: N_7  and  C_20
REMARK    3  A    between atoms: N_8  and  C_27
REMARK    4  A    between atoms: C_11  and  C_16
REMARK    5  A    between atoms: C_14  and  C_19
REMARK    6  A    between atoms: C_20  and  C_22
REMARK    7  A    between atoms: C_20  and  C_24
REMARK    8  A    between atoms: C_22  and  C_23
REMARK    9  A    between atoms: C_27  and  C_31
REMARK                            x       y       z     vdW  Elec       q    Type
REMARK                         _______ _______ _______ _____ _____    ______ ____
ROOT
ATOM      2  O   UNL     1      -2.357   1.956  22.010  0.00  0.00    -0.274 OA
ATOM      7  N   UNL     1      -1.252   2.206  24.044  0.00  0.00    -0.302 N 
ATOM     19  C   UNL     1      -2.167   2.555  23.066  0.00  0.00    +0.234 C 
ATOM     36  H   UNL     1      -1.124   2.825  24.840  0.00  0.00    +0.150 HD
ENDROOT
BRANCH  19  14
ATOM      1  O   UNL     1      -5.251   2.065  23.799  0.00  0.00    -0.275 OA
ATOM      5  N   UNL     1      -3.665   3.508  24.682  0.00  0.00    -0.288 N 
ATOM     14  C   UNL     1      -2.960   3.772  23.438  0.00  0.00    +0.164 C 
ATOM     15  C   UNL     1      -1.827   4.905  25.250  0.00  0.00    +0.094 C 
ATOM     16  C   UNL     1      -4.809   2.724  24.736  0.00  0.00    +0.219 C 
ATOM     17  C   UNL     1      -3.121   4.300  25.785  0.00  0.00    +0.131 C 
ATOM     18  C   UNL     1      -2.055   4.964  23.737  0.00  0.00    +0.055 C 
BRANCH  15   6
ATOM      3  O   UNL     1      -1.499   3.274  27.608  0.00  0.00    -0.253 OA
ATOM      6  N   UNL     1      -0.680   4.106  25.601  0.00  0.00    -0.295 N 
ATOM      8  N   UNL     1       0.611   2.672  26.856  0.00  0.00    -0.296 N 
ATOM     21  C   UNL     1      -0.604   3.345  26.766  0.00  0.00    +0.300 C 
ATOM     35  H   UNL     1       0.141   4.150  25.005  0.00  0.00    +0.151 HD
ATOM     37  H   UNL     1       1.284   2.777  26.101  0.00  0.00    +0.151 HD
BRANCH   8  27
ATOM     27  C   UNL     1       0.951   1.812  27.965  0.00  0.00    +0.132 C 
BRANCH  27  31
ATOM     31  C   UNL     1       1.745   2.590  28.961  0.00  0.00    -0.016 C 
ATOM     34  C   UNL     1       1.806   2.291  30.263  0.00  0.00    +0.005 C 
ENDBRANCH  27  31
ENDBRANCH   8  27
ENDBRANCH  15   6
BRANCH  16  11
ATOM     11  C   UNL     1      -5.523   2.682  26.048  0.00  0.00    +0.075 C 
ATOM     12  C   UNL     1      -6.964   2.262  26.082  0.00  0.00    +0.013 C 
ATOM     13  C   UNL     1      -5.904   1.353  26.630  0.00  0.00    +0.013 C 
ENDBRANCH  16  11
ENDBRANCH  19  14
BRANCH   7  20
ATOM     20  C   UNL     1      -0.382   1.057  23.940  0.00  0.00    +0.163 C 
BRANCH  20  24
ATOM      4  O   UNL     1       1.385   2.725  23.929  0.00  0.00    -0.274 OA
ATOM     10  N   UNL     1       1.855   0.622  23.132  0.00  0.00    -0.328 N 
ATOM     24  C   UNL     1       1.020   1.583  23.664  0.00  0.00    +0.231 C 
ATOM     39  H   UNL     1       2.822   0.838  22.913  0.00  0.00    +0.145 HD
ATOM     40  H   UNL     1       1.545  -0.324  22.941  0.00  0.00    +0.145 HD
ENDBRANCH  20  24
BRANCH  20  22
ATOM     22  C   UNL     1      -0.393   0.200  25.212  0.00  0.00    +0.069 C 
BRANCH  22  23
ATOM      9  N   UNL     1      -1.282  -3.352  24.893  0.00  0.00    -0.360 N 
ATOM     23  C   UNL     1      -1.013  -1.152  25.005  0.00  0.00    -0.020 A 
ATOM     25  C   UNL     1      -2.349  -1.416  24.591  0.00  0.00    +0.003 A 
ATOM     26  C   UNL     1      -0.383  -2.362  25.182  0.00  0.00    +0.087 A 
ATOM     28  C   UNL     1      -2.492  -2.805  24.529  0.00  0.00    +0.047 A 
ATOM     29  C   UNL     1      -3.454  -0.607  24.262  0.00  0.00    +0.010 A 
ATOM     30  C   UNL     1      -3.688  -3.425  24.154  0.00  0.00    +0.026 A 
ATOM     32  C   UNL     1      -4.657  -1.213  23.885  0.00  0.00    +0.001 A 
ATOM     33  C   UNL     1      -4.770  -2.601  23.833  0.00  0.00    +0.002 A 
ATOM     38  H   UNL     1      -1.087  -4.343  24.941  0.00  0.00    +0.165 HD
ENDBRANCH  22  23
ENDBRANCH  20  22
ENDBRANCH   7  20
TORSDOF 9
ENDMDL
MODEL 7
REMARK VINA RESULT:       4.3      1.969      7.976
REMARK  Name = 7049398
REMARK  9 active torsions:
REMARK  status: ('A' for Active; 'I' for Inactive)
REMARK    1  A    between atoms: N_6  and  C_15
REMARK    2  A    between atoms: N_7  and  C_20
REMARK    3  A    between atoms: N_8  and  C_27
REMARK    4  A    between atoms: C_11  and  C_16
REMARK    5  A    between atoms: C_14  and  C_19
REMARK    6  A    between atoms: C_20  and  C_22
REMARK    7  A    between atoms: C_20  and  C_24
REMARK    8  A    between atoms: C_22  and  C_23
REMARK    9  A    between atoms: C_27  and  C_31
REMARK                            x       y       z     vdW  Elec       q    Type
REMARK                         _______ _______ _______ _____ _____    ______ ____
ROOT
ATOM      2  O   UNL     1       1.323   1.458  25.152  0.00  0.00    -0.274 OA
ATOM      7  N   UNL     1       0.197   3.074  23.910  0.00  0.00    -0.302 N 
ATOM     19  C   UNL     1       0.950   1.924  24.078  0.00  0.00    +0.234 C 
ATOM     36  H   UNL     1       0.019   3.410  22.967  0.00  0.00    +0.150 HD
ENDROOT
BRANCH  19  14
ATOM      1  O   UNL     1       3.988   2.139  23.072  0.00  0.00    -0.275 OA
ATOM      5  N   UNL     1       2.439   0.416  22.951  0.00  0.00    -0.288 N 
ATOM     14  C   UNL     1       1.263   1.254  22.775  0.00  0.00    +0.164 C 
ATOM     15  C   UNL     1       0.578  -1.062  22.915  0.00  0.00    +0.094 C 
ATOM     16  C   UNL     1       3.723   0.941  23.011  0.00  0.00    +0.219 C 
ATOM     17  C   UNL     1       2.102  -1.005  22.877  0.00  0.00    +0.131 C 
ATOM     18  C   UNL     1       0.152   0.297  22.351  0.00  0.00    +0.055 C 
BRANCH  15   6
ATOM      3  O   UNL     1      -2.128  -0.703  23.851  0.00  0.00    -0.253 OA
ATOM      6  N   UNL     1       0.085  -1.280  24.251  0.00  0.00    -0.295 N 
ATOM      8  N   UNL     1      -1.447  -1.366  25.967  0.00  0.00    -0.296 N 
ATOM     21  C   UNL     1      -1.244  -1.081  24.620  0.00  0.00    +0.300 C 
ATOM     35  H   UNL     1       0.750  -1.528  24.978  0.00  0.00    +0.151 HD
ATOM     37  H   UNL     1      -0.659  -1.690  26.521  0.00  0.00    +0.151 HD
BRANCH   8  27
ATOM     27  C   UNL     1      -2.734  -1.242  26.609  0.00  0.00    +0.132 C 
BRANCH  27  31
ATOM     31  C   UNL     1      -3.799  -1.671  25.654  0.00  0.00    -0.016 C 
ATOM     34  C   UNL     1      -3.785  -2.835  24.996  0.00  0.00    +0.005 C 
ENDBRANCH  27  31
ENDBRANCH   8  27
ENDBRANCH  15   6
BRANCH  16  11
ATOM     11  C   UNL     1       4.844  -0.046  23.020  0.00  0.00    +0.075 C 
ATOM     12  C   UNL     1       6.142   0.328  23.674  0.00  0.00    +0.013 C 
ATOM     13  C   UNL     1       5.243  -0.687  24.316  0.00  0.00    +0.013 C 
ENDBRANCH  16  11
ENDBRANCH  19  14
BRANCH   7  20
ATOM     20  C   UNL     1      -0.257   3.891  25.011  0.00  0.00    +0.163 C 
BRANCH  20  24
ATOM      4  O   UNL     1      -0.280   5.688  23.377  0.00  0.00    -0.274 OA
ATOM     10  N   UNL     1      -1.718   5.811  25.164  0.00  0.00    -0.328 N 
ATOM     24  C   UNL     1      -0.717   5.217  24.423  0.00  0.00    +0.231 C 
ATOM     39  H   UNL     1      -2.125   6.694  24.875  0.00  0.00    +0.145 HD
ATOM     40  H   UNL     1      -2.086   5.397  26.014  0.00  0.00    +0.145 HD
ENDBRANCH  20  24
BRANCH  20  22
ATOM     22  C   UNL     1      -1.394   3.229  25.799  0.00  0.00    +0.069 C 
BRANCH  22  23
ATOM      9  N   UNL     1      -3.519   1.795  23.164  0.00  0.00    -0.360 N 
ATOM     23  C   UNL     1      -2.472   2.667  24.916  0.00  0.00    -0.020 A 
ATOM     25  C   UNL     1      -3.842   2.493  25.258  0.00  0.00    +0.003 A 
ATOM     26  C   UNL     1      -2.305   2.229  23.622  0.00  0.00    +0.087 A 
ATOM     28  C   UNL     1      -4.477   1.944  24.142  0.00  0.00    +0.047 A 
ATOM     29  C   UNL     1      -4.606   2.751  26.414  0.00  0.00    +0.010 A 
ATOM     30  C   UNL     1      -5.842   1.639  24.124  0.00  0.00    +0.026 A 
ATOM     32  C   UNL     1      -5.972   2.450  26.410  0.00  0.00    +0.001 A 
ATOM     33  C   UNL     1      -6.579   1.902  25.282  0.00  0.00    +0.002 A 
ATOM     38  H   UNL     1      -3.689   1.418  22.242  0.00  0.00    +0.165 HD
ENDBRANCH  22  23
ENDBRANCH  20  22
ENDBRANCH   7  20
TORSDOF 9
ENDMDL
MODEL 8
REMARK VINA RESULT:       4.8      2.256      8.064
REMARK  Name = 7049398
REMARK  9 active torsions:
REMARK  status: ('A' for Active; 'I' for Inactive)
REMARK    1  A    between atoms: N_6  and  C_15
REMARK    2  A    between atoms: N_7  and  C_20
REMARK    3  A    between atoms: N_8  and  C_27
REMARK    4  A    between atoms: C_11  and  C_16
REMARK    5  A    between atoms: C_14  and  C_19
REMARK    6  A    between atoms: C_20  and  C_22
REMARK    7  A    between atoms: C_20  and  C_24
REMARK    8  A    between atoms: C_22  and  C_23
REMARK    9  A    between atoms: C_27  and  C_31
REMARK                            x       y       z     vdW  Elec       q    Type
REMARK                         _______ _______ _______ _____ _____    ______ ____
ROOT
ATOM      2  O   UNL     1       1.673   2.171  23.851  0.00  0.00    -0.274 OA
ATOM      7  N   UNL     1      -0.188   1.337  22.729  0.00  0.00    -0.302 N 
ATOM     19  C   UNL     1       1.150   1.370  23.080  0.00  0.00    +0.234 C 
ATOM     36  H   UNL     1      -0.492   0.680  22.015  0.00  0.00    +0.150 HD
ENDROOT
BRANCH  19  14
ATOM      1  O   UNL     1       4.294   1.905  22.730  0.00  0.00    -0.275 OA
ATOM      5  N   UNL     1       3.103  -0.018  23.244  0.00  0.00    -0.288 N 
ATOM     14  C   UNL     1       1.938   0.277  22.424  0.00  0.00    +0.164 C 
ATOM     15  C   UNL     1       1.558  -1.782  23.637  0.00  0.00    +0.094 C 
ATOM     16  C   UNL     1       4.223   0.801  23.265  0.00  0.00    +0.219 C 
ATOM     17  C   UNL     1       2.996  -1.333  23.874  0.00  0.00    +0.131 C 
ATOM     18  C   UNL     1       1.150  -1.029  22.367  0.00  0.00    +0.055 C 
BRANCH  15   6
ATOM      3  O   UNL     1      -1.324  -1.643  23.654  0.00  0.00    -0.253 OA
ATOM      6  N   UNL     1       0.709  -1.464  24.759  0.00  0.00    -0.295 N 
ATOM      8  N   UNL     1      -1.251  -1.089  25.905  0.00  0.00    -0.296 N 
ATOM     21  C   UNL     1      -0.681  -1.419  24.679  0.00  0.00    +0.300 C 
ATOM     35  H   UNL     1       1.147  -1.195  25.635  0.00  0.00    +0.151 HD
ATOM     37  H   UNL     1      -0.639  -0.939  26.702  0.00  0.00    +0.151 HD
BRANCH   8  27
ATOM     27  C   UNL     1      -2.677  -0.974  26.101  0.00  0.00    +0.132 C 
BRANCH  27  31
ATOM     31  C   UNL     1      -3.349  -2.166  25.505  0.00  0.00    -0.016 C 
ATOM     34  C   UNL     1      -4.136  -2.116  24.425  0.00  0.00    +0.005 C 
ENDBRANCH  27  31
ENDBRANCH   8  27
ENDBRANCH  15   6
BRANCH  16  11
ATOM     11  C   UNL     1       5.407   0.287  24.017  0.00  0.00    +0.075 C 
ATOM     12  C   UNL     1       5.691  -1.187  24.012  0.00  0.00    +0.013 C 
ATOM     13  C   UNL     1       6.582  -0.248  23.253  0.00  0.00    +0.013 C 
ENDBRANCH  16  11
ENDBRANCH  19  14
BRANCH   7  20
ATOM     20  C   UNL     1      -1.165   2.268  23.243  0.00  0.00    +0.163 C 
BRANCH  20  24
ATOM      4  O   UNL     1      -3.104   2.858  21.903  0.00  0.00    -0.274 OA
ATOM     10  N   UNL     1      -2.841   0.670  22.551  0.00  0.00    -0.328 N 
ATOM     24  C   UNL     1      -2.470   1.998  22.509  0.00  0.00    +0.231 C 
ATOM     39  H   UNL     1      -3.686   0.352  22.089  0.00  0.00    +0.145 HD
ATOM     40  H   UNL     1      -2.295  -0.034  23.036  0.00  0.00    +0.145 HD
ENDBRANCH  20  24
BRANCH  20  22
ATOM     22  C   UNL     1      -1.362   2.129  24.758  0.00  0.00    +0.069 C 
BRANCH  22  23
ATOM      9  N   UNL     1      -3.696   4.592  26.172  0.00  0.00    -0.360 N 
ATOM     23  C   UNL     1      -2.515   2.938  25.279  0.00  0.00    -0.020 A 
ATOM     25  C   UNL     1      -3.882   2.542  25.310  0.00  0.00    +0.003 A 
ATOM     26  C   UNL     1      -2.433   4.202  25.815  0.00  0.00    +0.087 A 
ATOM     28  C   UNL     1      -4.602   3.598  25.874  0.00  0.00    +0.047 A 
ATOM     29  C   UNL     1      -4.579   1.385  24.911  0.00  0.00    +0.010 A 
ATOM     30  C   UNL     1      -5.987   3.553  26.060  0.00  0.00    +0.026 A 
ATOM     32  C   UNL     1      -5.965   1.326  25.090  0.00  0.00    +0.001 A 
ATOM     33  C   UNL     1      -6.657   2.395  25.656  0.00  0.00    +0.002 A 
ATOM     38  H   UNL     1      -3.931   5.481  26.591  0.00  0.00    +0.165 HD
ENDBRANCH  22  23
ENDBRANCH  20  22
ENDBRANCH   7  20
TORSDOF 9
ENDMDL
