MODEL 1
REMARK VINA RESULT:      -4.2      0.000      0.000
REMARK  Name = 75537075
REMARK  5 active torsions:
REMARK  status: ('A' for Active; 'I' for Inactive)
REMARK    1  A    between atoms: N_3  and  C_14
REMARK    2  A    between atoms: N_4  and  C_15
REMARK    3  A    between atoms: N_5  and  C_20
REMARK    4  A    between atoms: C_14  and  C_16
REMARK    5  A    between atoms: C_15  and  C_17
REMARK                            x       y       z     vdW  Elec       q    Type
REMARK                         _______ _______ _______ _____ _____    ______ ____
ROOT
ATOM      1  O   UNL     1      -3.997 -10.437  15.703  0.00  0.00    -0.252 OA
ATOM      2  N   UNL     1      -5.257 -10.462  13.722  0.00  0.00    -0.278 N 
ATOM      3  N   UNL     1      -6.039  -9.808  11.100  0.00  0.00    -0.292 NA
ATOM      4  N   UNL     1      -6.355 -10.395  15.679  0.00  0.00    -0.278 N 
ATOM      8  C   UNL     1      -6.653 -10.571  13.357  0.00  0.00    +0.109 C 
ATOM      9  C   UNL     1      -6.984  -9.608  12.217  0.00  0.00    +0.109 C 
ATOM     10  C   UNL     1      -7.391 -10.293  14.666  0.00  0.00    +0.133 C 
ATOM     11  C   UNL     1      -4.249 -10.495  12.682  0.00  0.00    +0.125 C 
ATOM     12  C   UNL     1      -4.649  -9.564  11.535  0.00  0.00    +0.104 C 
ATOM     13  C   UNL     1      -5.066 -10.436  15.109  0.00  0.00    +0.306 C 
ENDROOT
BRANCH   3  14
ATOM     14  C   UNL     1      -6.383  -8.933   9.979  0.00  0.00    +0.158 C 
BRANCH  14  16
ATOM      5  N   UNL     1      -8.489  -8.516   8.675  0.00  0.00    -0.336 N 
ATOM      6  N   UNL     1      -8.019 -10.638   9.131  0.00  0.00    -0.239 NA
ATOM     16  C   UNL     1      -7.623  -9.392   9.268  0.00  0.00    +0.124 A 
ATOM     19  C   UNL     1      -9.501  -9.250   8.125  0.00  0.00    +0.106 A 
ATOM     20  C   UNL     1      -8.372  -7.078   8.629  0.00  0.00    +0.150 C 
ATOM     21  C   UNL     1      -9.190 -10.556   8.419  0.00  0.00    +0.130 A 
ENDBRANCH  14  16
ENDBRANCH   3  14
BRANCH   4  15
ATOM     15  C   UNL     1      -6.652 -10.304  17.092  0.00  0.00    +0.164 C 
BRANCH  15  17
ATOM      7  N   UNL     1      -8.335  -8.553  17.111  0.00  0.00    -0.258 NA
ATOM     17  C   UNL     1      -8.063  -9.857  17.342  0.00  0.00    +0.059 A 
ATOM     18  C   UNL     1      -8.998 -10.779  17.783  0.00  0.00    +0.025 A 
ATOM     22  C   UNL     1     -10.297 -10.333  18.004  0.00  0.00    +0.003 A 
ATOM     23  C   UNL     1      -9.608  -8.156  17.336  0.00  0.00    +0.111 A 
ATOM     24  C   UNL     1     -10.616  -8.998  17.778  0.00  0.00    +0.020 A 
ENDBRANCH  15  17
ENDBRANCH   4  15
TORSDOF 4
ENDMDL
MODEL 2
REMARK VINA RESULT:      -3.5      1.840      2.509
REMARK  Name = 75537075
REMARK  5 active torsions:
REMARK  status: ('A' for Active; 'I' for Inactive)
REMARK    1  A    between atoms: N_3  and  C_14
REMARK    2  A    between atoms: N_4  and  C_15
REMARK    3  A    between atoms: N_5  and  C_20
REMARK    4  A    between atoms: C_14  and  C_16
REMARK    5  A    between atoms: C_15  and  C_17
REMARK                            x       y       z     vdW  Elec       q    Type
REMARK                         _______ _______ _______ _____ _____    ______ ____
ROOT
ATOM      1  O   UNL     1      -2.998 -10.303  16.084  0.00  0.00    -0.252 OA
ATOM      2  N   UNL     1      -3.646 -10.612  13.848  0.00  0.00    -0.278 N 
ATOM      3  N   UNL     1      -3.633 -10.333  11.049  0.00  0.00    -0.292 NA
ATOM      4  N   UNL     1      -5.250 -10.283  15.385  0.00  0.00    -0.278 N 
ATOM      8  C   UNL     1      -4.885 -10.781  13.119  0.00  0.00    +0.109 C 
ATOM      9  C   UNL     1      -4.848  -9.988  11.814  0.00  0.00    +0.109 C 
ATOM     10  C   UNL     1      -5.954 -10.331  14.114  0.00  0.00    +0.133 C 
ATOM     11  C   UNL     1      -2.387 -10.781  13.152  0.00  0.00    +0.125 C 
ATOM     12  C   UNL     1      -2.416 -10.020  11.824  0.00  0.00    +0.104 C 
ATOM     13  C   UNL     1      -3.854 -10.393  15.216  0.00  0.00    +0.306 C 
ENDROOT
BRANCH   3  14
ATOM     14  C   UNL     1      -3.618  -9.625   9.769  0.00  0.00    +0.158 C 
BRANCH  14  16
ATOM      5  N   UNL     1      -5.928  -9.406   8.807  0.00  0.00    -0.336 N 
ATOM      6  N   UNL     1      -5.173  -7.662   9.958  0.00  0.00    -0.239 NA
ATOM     16  C   UNL     1      -4.896  -8.873   9.528  0.00  0.00    +0.124 A 
ATOM     19  C   UNL     1      -6.927  -8.475   8.776  0.00  0.00    +0.106 A 
ATOM     20  C   UNL     1      -5.972 -10.708   8.186  0.00  0.00    +0.150 C 
ATOM     21  C   UNL     1      -6.439  -7.408   9.492  0.00  0.00    +0.130 A 
ENDBRANCH  14  16
ENDBRANCH   3  14
BRANCH   4  15
ATOM     15  C   UNL     1      -5.931 -10.000  16.628  0.00  0.00    +0.164 C 
BRANCH  15  17
ATOM      7  N   UNL     1      -8.030 -10.749  15.662  0.00  0.00    -0.258 NA
ATOM     17  C   UNL     1      -7.409  -9.828  16.433  0.00  0.00    +0.059 A 
ATOM     18  C   UNL     1      -8.054  -8.761  17.038  0.00  0.00    +0.025 A 
ATOM     22  C   UNL     1      -9.423  -8.630  16.838  0.00  0.00    +0.003 A 
ATOM     23  C   UNL     1      -9.362 -10.590  15.491  0.00  0.00    +0.111 A 
ATOM     24  C   UNL     1     -10.098  -9.559  16.051  0.00  0.00    +0.020 A 
ENDBRANCH  15  17
ENDBRANCH   4  15
TORSDOF 4
ENDMDL
MODEL 3
REMARK VINA RESULT:      -2.6     16.384     18.194
REMARK  Name = 75537075
REMARK  5 active torsions:
REMARK  status: ('A' for Active; 'I' for Inactive)
REMARK    1  A    between atoms: N_3  and  C_14
REMARK    2  A    between atoms: N_4  and  C_15
REMARK    3  A    between atoms: N_5  and  C_20
REMARK    4  A    between atoms: C_14  and  C_16
REMARK    5  A    between atoms: C_15  and  C_17
REMARK                            x       y       z     vdW  Elec       q    Type
REMARK                         _______ _______ _______ _____ _____    ______ ____
ROOT
ATOM      1  O   UNL     1      -0.008  -1.480  23.883  0.00  0.00    -0.252 OA
ATOM      2  N   UNL     1      -0.545   0.583  24.868  0.00  0.00    -0.278 N 
ATOM      3  N   UNL     1      -2.129   2.700  25.829  0.00  0.00    -0.292 NA
ATOM      4  N   UNL     1       1.139   0.519  23.384  0.00  0.00    -0.278 N 
ATOM      8  C   UNL     1       0.007   1.921  24.890  0.00  0.00    +0.109 C 
ATOM      9  C   UNL     1      -1.108   2.961  24.794  0.00  0.00    +0.109 C 
ATOM     10  C   UNL     1       0.991   1.925  23.721  0.00  0.00    +0.133 C 
ATOM     11  C   UNL     1      -1.655   0.261  25.740  0.00  0.00    +0.125 C 
ATOM     12  C   UNL     1      -2.721   1.357  25.659  0.00  0.00    +0.104 C 
ATOM     13  C   UNL     1       0.174  -0.280  24.031  0.00  0.00    +0.306 C 
ENDROOT
BRANCH   3  14
ATOM     14  C   UNL     1      -3.172   3.725  25.785  0.00  0.00    +0.158 C 
BRANCH  14  16
ATOM      5  N   UNL     1      -4.988   2.703  24.383  0.00  0.00    -0.336 N 
ATOM      6  N   UNL     1      -5.437   2.952  26.544  0.00  0.00    -0.239 NA
ATOM     16  C   UNL     1      -4.538   3.130  25.601  0.00  0.00    +0.124 A 
ATOM     19  C   UNL     1      -6.254   2.222  24.561  0.00  0.00    +0.106 A 
ATOM     20  C   UNL     1      -4.272   2.745  23.131  0.00  0.00    +0.150 C 
ATOM     21  C   UNL     1      -6.509   2.386  25.902  0.00  0.00    +0.130 A 
ENDBRANCH  14  16
ENDBRANCH   3  14
BRANCH   4  15
ATOM     15  C   UNL     1       2.079   0.065  22.383  0.00  0.00    +0.164 C 
BRANCH  15  17
ATOM      7  N   UNL     1       3.673  -1.390  23.496  0.00  0.00    -0.258 NA
ATOM     17  C   UNL     1       3.444  -0.170  22.960  0.00  0.00    +0.059 A 
ATOM     18  C   UNL     1       4.384   0.847  22.916  0.00  0.00    +0.025 A 
ATOM     22  C   UNL     1       5.640   0.596  23.457  0.00  0.00    +0.003 A 
ATOM     23  C   UNL     1       4.906  -1.598  24.013  0.00  0.00    +0.111 A 
ATOM     24  C   UNL     1       5.914  -0.648  24.018  0.00  0.00    +0.020 A 
ENDBRANCH  15  17
ENDBRANCH   4  15
TORSDOF 4
ENDMDL
MODEL 4
REMARK VINA RESULT:      -1.1     15.956     17.758
REMARK  Name = 75537075
REMARK  5 active torsions:
REMARK  status: ('A' for Active; 'I' for Inactive)
REMARK    1  A    between atoms: N_3  and  C_14
REMARK    2  A    between atoms: N_4  and  C_15
REMARK    3  A    between atoms: N_5  and  C_20
REMARK    4  A    between atoms: C_14  and  C_16
REMARK    5  A    between atoms: C_15  and  C_17
REMARK                            x       y       z     vdW  Elec       q    Type
REMARK                         _______ _______ _______ _____ _____    ______ ____
ROOT
ATOM      1  O   UNL     1       0.856  -2.103  24.588  0.00  0.00    -0.252 OA
ATOM      2  N   UNL     1      -0.780  -0.434  24.813  0.00  0.00    -0.278 N 
ATOM      3  N   UNL     1      -3.315   0.721  25.204  0.00  0.00    -0.292 NA
ATOM      4  N   UNL     1       0.726  -0.230  23.160  0.00  0.00    -0.278 N 
ATOM      8  C   UNL     1      -1.063   0.857  24.223  0.00  0.00    +0.109 C 
ATOM      9  C   UNL     1      -2.561   1.010  23.967  0.00  0.00    +0.109 C 
ATOM     10  C   UNL     1      -0.192   0.879  22.968  0.00  0.00    +0.133 C 
ATOM     11  C   UNL     1      -1.566  -0.883  25.944  0.00  0.00    +0.125 C 
ATOM     12  C   UNL     1      -3.055  -0.656  25.670  0.00  0.00    +0.104 C 
ATOM     13  C   UNL     1       0.335  -1.054  24.236  0.00  0.00    +0.306 C 
ENDROOT
BRANCH   3  14
ATOM     14  C   UNL     1      -4.747   0.924  24.987  0.00  0.00    +0.158 C 
BRANCH  14  16
ATOM      5  N   UNL     1      -4.736   3.395  24.537  0.00  0.00    -0.336 N 
ATOM      6  N   UNL     1      -5.966   2.714  26.257  0.00  0.00    -0.239 NA
ATOM     16  C   UNL     1      -5.167   2.334  25.284  0.00  0.00    +0.124 A 
ATOM     19  C   UNL     1      -5.296   4.522  25.068  0.00  0.00    +0.106 A 
ATOM     20  C   UNL     1      -3.853   3.350  23.396  0.00  0.00    +0.150 C 
ATOM     21  C   UNL     1      -6.050   4.078  26.128  0.00  0.00    +0.130 A 
ENDBRANCH  14  16
ENDBRANCH   3  14
BRANCH   4  15
ATOM     15  C   UNL     1       1.806  -0.501  22.237  0.00  0.00    +0.164 C 
BRANCH  15  17
ATOM      7  N   UNL     1       3.692  -1.384  23.487  0.00  0.00    -0.258 NA
ATOM     17  C   UNL     1       3.151  -0.307  22.874  0.00  0.00    +0.059 A 
ATOM     18  C   UNL     1       3.762   0.935  22.804  0.00  0.00    +0.025 A 
ATOM     22  C   UNL     1       5.009   1.081  23.403  0.00  0.00    +0.003 A 
ATOM     23  C   UNL     1       4.905  -1.204  24.058  0.00  0.00    +0.111 A 
ATOM     24  C   UNL     1       5.598  -0.004  24.044  0.00  0.00    +0.020 A 
ENDBRANCH  15  17
ENDBRANCH   4  15
TORSDOF 4
ENDMDL
MODEL 5
REMARK VINA RESULT:      -0.9      3.003      4.150
REMARK  Name = 75537075
REMARK  5 active torsions:
REMARK  status: ('A' for Active; 'I' for Inactive)
REMARK    1  A    between atoms: N_3  and  C_14
REMARK    2  A    between atoms: N_4  and  C_15
REMARK    3  A    between atoms: N_5  and  C_20
REMARK    4  A    between atoms: C_14  and  C_16
REMARK    5  A    between atoms: C_15  and  C_17
REMARK                            x       y       z     vdW  Elec       q    Type
REMARK                         _______ _______ _______ _____ _____    ______ ____
ROOT
ATOM      1  O   UNL     1      -5.487  -9.059  18.236  0.00  0.00    -0.252 OA
ATOM      2  N   UNL     1      -4.666 -10.118  16.307  0.00  0.00    -0.278 N 
ATOM      3  N   UNL     1      -2.885 -10.781  14.233  0.00  0.00    -0.292 NA
ATOM      4  N   UNL     1      -6.783  -9.370  16.289  0.00  0.00    -0.278 N 
ATOM      8  C   UNL     1      -5.199 -10.573  15.041  0.00  0.00    +0.109 C 
ATOM      9  C   UNL     1      -4.226 -10.256  13.907  0.00  0.00    +0.109 C 
ATOM     10  C   UNL     1      -6.551  -9.866  14.944  0.00  0.00    +0.133 C 
ATOM     11  C   UNL     1      -3.302 -10.453  16.662  0.00  0.00    +0.125 C 
ATOM     12  C   UNL     1      -2.370 -10.177  15.479  0.00  0.00    +0.104 C 
ATOM     13  C   UNL     1      -5.627  -9.468  17.091  0.00  0.00    +0.306 C 
ENDROOT
BRANCH   3  14
ATOM     14  C   UNL     1      -1.959 -10.536  13.128  0.00  0.00    +0.158 C 
BRANCH  14  16
ATOM      5  N   UNL     1      -2.034  -9.439  10.870  0.00  0.00    -0.336 N 
ATOM      6  N   UNL     1      -3.948 -10.281  11.618  0.00  0.00    -0.239 NA
ATOM     16  C   UNL     1      -2.674 -10.098  11.883  0.00  0.00    +0.124 A 
ATOM     19  C   UNL     1      -2.959  -9.186   9.898  0.00  0.00    +0.106 A 
ATOM     20  C   UNL     1      -0.639  -9.070  10.820  0.00  0.00    +0.150 C 
ATOM     21  C   UNL     1      -4.133  -9.715  10.381  0.00  0.00    +0.130 A 
ENDBRANCH  14  16
ENDBRANCH   3  14
BRANCH   4  15
ATOM     15  C   UNL     1      -8.020  -8.721  16.665  0.00  0.00    +0.164 C 
BRANCH  15  17
ATOM      7  N   UNL     1      -7.931 -10.010  18.721  0.00  0.00    -0.258 NA
ATOM     17  C   UNL     1      -8.718  -9.445  17.778  0.00  0.00    +0.059 A 
ATOM     18  C   UNL     1     -10.102  -9.497  17.791  0.00  0.00    +0.025 A 
ATOM     22  C   UNL     1     -10.719 -10.173  18.837  0.00  0.00    +0.003 A 
ATOM     23  C   UNL     1      -8.565 -10.659  19.724  0.00  0.00    +0.111 A 
ATOM     24  C   UNL     1      -9.943 -10.768  19.827  0.00  0.00    +0.020 A 
ENDBRANCH  15  17
ENDBRANCH   4  15
TORSDOF 4
ENDMDL
