MODEL 1
REMARK VINA RESULT:      12.7      0.000      0.000
REMARK  Name = 7113393
REMARK  15 active torsions:
REMARK  status: ('A' for Active; 'I' for Inactive)
REMARK    1  A    between atoms: S_1  and  N_9
REMARK    2  A    between atoms: S_1  and  C_19
REMARK    3  A    between atoms: O_6  and  C_25
REMARK    4  A    between atoms: O_6  and  C_40
REMARK    5  A    between atoms: O_8  and  C_39
REMARK    6  A    between atoms: O_8  and  C_43
REMARK    7  A    between atoms: N_11  and  C_20
REMARK    8  A    between atoms: N_12  and  C_34
REMARK    9  A    between atoms: N_12  and  C_41
REMARK   10  A    between atoms: N_12  and  C_42
REMARK   11  A    between atoms: C_13  and  C_17
REMARK   12  A    between atoms: C_18  and  C_21
REMARK   13  A    between atoms: C_20  and  C_22
REMARK   14  A    between atoms: C_20  and  C_25
REMARK   15  A    between atoms: C_22  and  C_28
REMARK                            x       y       z     vdW  Elec       q    Type
REMARK                         _______ _______ _______ _____ _____    ______ ____
ROOT
ATOM      5  O   UNL     1       1.599  -0.546  20.829  0.00  0.00    -0.270 OA
ATOM      9  N   UNL     1      -1.515  -0.283  24.819  0.00  0.00    -0.162 NA
ATOM     10  N   UNL     1       0.710  -0.529  22.993  0.00  0.00    -0.294 N 
ATOM     13  C   UNL     1      -1.749  -0.273  23.348  0.00  0.00    +0.183 C 
ATOM     14  C   UNL     1      -0.626  -0.936  22.555  0.00  0.00    +0.138 C 
ATOM     15  C   UNL     1      -0.246  -0.928  25.248  0.00  0.00    +0.129 C 
ATOM     16  C   UNL     1       0.906  -0.356  24.436  0.00  0.00    +0.125 C 
ATOM     18  C   UNL     1       1.732  -0.407  22.044  0.00  0.00    +0.247 C 
ENDROOT
BRANCH  18  21
ATOM     21  C   UNL     1       3.084  -0.087  22.527  0.00  0.00    +0.037 A 
ATOM     26  C   UNL     1       3.602   1.196  22.348  0.00  0.00    +0.015 A 
ATOM     27  C   UNL     1       3.848  -1.066  23.162  0.00  0.00    +0.015 A 
ATOM     32  C   UNL     1       4.885   1.499  22.806  0.00  0.00    +0.024 A 
ATOM     33  C   UNL     1       5.131  -0.763  23.619  0.00  0.00    +0.024 A 
ATOM     34  C   UNL     1       5.649   0.520  23.441  0.00  0.00    +0.029 A 
BRANCH  34  12
ATOM     12  N   UNL     1       6.946   0.826  23.901  0.00  0.00    -0.336 N 
ATOM     41  C   UNL     1       8.045  -0.088  23.660  0.00  0.00    +0.129 C 
ATOM     42  C   UNL     1       7.196   2.052  24.633  0.00  0.00    +0.129 C 
ENDBRANCH  34  12
ENDBRANCH  18  21
BRANCH  13  17
ATOM      4  O   UNL     1      -2.229   1.546  21.885  0.00  0.00    -0.274 OA
ATOM     11  N   UNL     1      -1.541   2.000  24.061  0.00  0.00    -0.301 N 
ATOM     17  C   UNL     1      -1.879   1.176  23.002  0.00  0.00    +0.234 C 
ATOM     44  H   UNL     1      -1.285   1.584  24.953  0.00  0.00    +0.150 HD
BRANCH  11  20
ATOM     20  C   UNL     1      -1.561   3.443  23.979  0.00  0.00    +0.186 C 
BRANCH  20  25
ATOM      7  O   UNL     1      -0.715   5.284  25.296  0.00  0.00    -0.249 OA
ATOM     25  C   UNL     1      -1.049   4.103  25.251  0.00  0.00    +0.328 C 
BRANCH  25   6
ATOM      6  O   UNL     1      -0.995   3.233  26.297  0.00  0.00    -0.467 OA
ATOM     40  C   UNL     1       0.271   2.601  26.516  0.00  0.00    +0.280 C 
ENDBRANCH  25   6
ENDBRANCH  20  25
BRANCH  20  22
ATOM     22  C   UNL     1      -2.951   3.960  23.581  0.00  0.00    +0.069 C 
BRANCH  22  28
ATOM     28  C   UNL     1      -4.088   3.433  24.429  0.00  0.00    -0.045 A 
ATOM     35  C   UNL     1      -4.284   3.929  25.718  0.00  0.00    +0.007 A 
ATOM     36  C   UNL     1      -4.940   2.452  23.922  0.00  0.00    +0.007 A 
ATOM     37  C   UNL     1      -5.332   3.443  26.500  0.00  0.00    +0.046 A 
ATOM     38  C   UNL     1      -5.987   1.966  24.704  0.00  0.00    +0.046 A 
ATOM     39  C   UNL     1      -6.184   2.462  25.993  0.00  0.00    +0.120 A 
BRANCH  39   8
ATOM      8  O   UNL     1      -7.205   1.988  26.756  0.00  0.00    -0.495 OA
ATOM     43  C   UNL     1      -6.866   1.073  27.799  0.00  0.00    +0.277 C 
ENDBRANCH  39   8
ENDBRANCH  22  28
ENDBRANCH  20  22
ENDBRANCH  11  20
ENDBRANCH  13  17
BRANCH   9   1
ATOM      1  S   UNL     1      -2.876  -0.557  25.815  0.00  0.00    +0.062 S 
ATOM      2  O   UNL     1      -3.707   0.629  25.819  0.00  0.00    -0.153 OA
ATOM      3  O   UNL     1      -2.439  -1.164  27.054  0.00  0.00    -0.153 OA
BRANCH   1  19
ATOM     19  C   UNL     1      -3.708  -1.794  24.869  0.00  0.00    +0.106 A 
ATOM     23  C   UNL     1      -4.754  -1.436  24.019  0.00  0.00    +0.028 A 
ATOM     24  C   UNL     1      -3.317  -3.129  24.970  0.00  0.00    +0.028 A 
ATOM     29  C   UNL     1      -5.410  -2.413  23.270  0.00  0.00    +0.002 A 
ATOM     30  C   UNL     1      -3.972  -4.106  24.221  0.00  0.00    +0.002 A 
ATOM     31  C   UNL     1      -5.020  -3.748  23.371  0.00  0.00    +0.000 A 
ENDBRANCH   1  19
ENDBRANCH   9   1
TORSDOF 11
ENDMDL
MODEL 2
REMARK VINA RESULT:      14.2      2.002      4.116
REMARK  Name = 7113393
REMARK  15 active torsions:
REMARK  status: ('A' for Active; 'I' for Inactive)
REMARK    1  A    between atoms: S_1  and  N_9
REMARK    2  A    between atoms: S_1  and  C_19
REMARK    3  A    between atoms: O_6  and  C_25
REMARK    4  A    between atoms: O_6  and  C_40
REMARK    5  A    between atoms: O_8  and  C_39
REMARK    6  A    between atoms: O_8  and  C_43
REMARK    7  A    between atoms: N_11  and  C_20
REMARK    8  A    between atoms: N_12  and  C_34
REMARK    9  A    between atoms: N_12  and  C_41
REMARK   10  A    between atoms: N_12  and  C_42
REMARK   11  A    between atoms: C_13  and  C_17
REMARK   12  A    between atoms: C_18  and  C_21
REMARK   13  A    between atoms: C_20  and  C_22
REMARK   14  A    between atoms: C_20  and  C_25
REMARK   15  A    between atoms: C_22  and  C_28
REMARK                            x       y       z     vdW  Elec       q    Type
REMARK                         _______ _______ _______ _____ _____    ______ ____
ROOT
ATOM      5  O   UNL     1       1.160   0.277  21.125  0.00  0.00    -0.270 OA
ATOM      9  N   UNL     1      -1.909  -0.817  25.006  0.00  0.00    -0.162 NA
ATOM     10  N   UNL     1       0.266  -0.539  23.126  0.00  0.00    -0.294 N 
ATOM     13  C   UNL     1      -2.127  -0.125  23.705  0.00  0.00    +0.183 C 
ATOM     14  C   UNL     1      -1.112  -0.519  22.636  0.00  0.00    +0.138 C 
ATOM     15  C   UNL     1      -0.757  -1.756  25.032  0.00  0.00    +0.129 C 
ATOM     16  C   UNL     1       0.475  -1.051  24.485  0.00  0.00    +0.125 C 
ATOM     18  C   UNL     1       1.303  -0.155  22.267  0.00  0.00    +0.247 C 
ENDROOT
BRANCH  18  21
ATOM     21  C   UNL     1       2.684  -0.274  22.758  0.00  0.00    +0.037 A 
ATOM     26  C   UNL     1       3.570   0.793  22.614  0.00  0.00    +0.015 A 
ATOM     27  C   UNL     1       3.108  -1.455  23.368  0.00  0.00    +0.015 A 
ATOM     32  C   UNL     1       4.880   0.681  23.079  0.00  0.00    +0.024 A 
ATOM     33  C   UNL     1       4.419  -1.568  23.834  0.00  0.00    +0.024 A 
ATOM     34  C   UNL     1       5.304  -0.500  23.689  0.00  0.00    +0.029 A 
BRANCH  34  12
ATOM     12  N   UNL     1       6.629  -0.615  24.158  0.00  0.00    -0.336 N 
ATOM     41  C   UNL     1       6.905  -1.260  25.427  0.00  0.00    +0.129 C 
ATOM     42  C   UNL     1       7.732  -0.079  23.385  0.00  0.00    +0.129 C 
ENDBRANCH  34  12
ENDBRANCH  18  21
BRANCH  13  17
ATOM      4  O   UNL     1      -2.692   2.175  23.438  0.00  0.00    -0.274 OA
ATOM     11  N   UNL     1      -1.122   1.578  25.049  0.00  0.00    -0.301 N 
ATOM     17  C   UNL     1      -2.032   1.330  24.037  0.00  0.00    +0.234 C 
ATOM     44  H   UNL     1      -0.645   0.797  25.492  0.00  0.00    +0.150 HD
BRANCH  11  20
ATOM     20  C   UNL     1      -0.828   2.905  25.541  0.00  0.00    +0.186 C 
BRANCH  20  25
ATOM      7  O   UNL     1      -0.540   4.366  23.638  0.00  0.00    -0.249 OA
ATOM     25  C   UNL     1      -1.253   3.993  24.564  0.00  0.00    +0.328 C 
BRANCH  25   6
ATOM      6  O   UNL     1      -2.485   4.495  24.858  0.00  0.00    -0.467 OA
ATOM     40  C   UNL     1      -2.812   4.569  26.249  0.00  0.00    +0.280 C 
ENDBRANCH  25   6
ENDBRANCH  20  25
BRANCH  20  22
ATOM     22  C   UNL     1       0.648   3.037  25.942  0.00  0.00    +0.069 C 
BRANCH  22  28
ATOM     28  C   UNL     1       0.933   2.770  27.403  0.00  0.00    -0.045 A 
ATOM     35  C   UNL     1      -0.118   2.501  28.280  0.00  0.00    +0.007 A 
ATOM     36  C   UNL     1       2.246   2.792  27.874  0.00  0.00    +0.007 A 
ATOM     37  C   UNL     1       0.145   2.255  29.628  0.00  0.00    +0.046 A 
ATOM     38  C   UNL     1       2.508   2.547  29.221  0.00  0.00    +0.046 A 
ATOM     39  C   UNL     1       1.458   2.277  30.099  0.00  0.00    +0.120 A 
BRANCH  39   8
ATOM      8  O   UNL     1       1.713   2.038  31.414  0.00  0.00    -0.495 OA
ATOM     43  C   UNL     1       0.629   2.209  32.326  0.00  0.00    +0.277 C 
ENDBRANCH  39   8
ENDBRANCH  22  28
ENDBRANCH  20  22
ENDBRANCH  11  20
ENDBRANCH  13  17
BRANCH   9   1
ATOM      1  S   UNL     1      -3.304  -1.309  25.862  0.00  0.00    +0.062 S 
ATOM      2  O   UNL     1      -3.031  -1.256  27.282  0.00  0.00    -0.153 OA
ATOM      3  O   UNL     1      -3.834  -2.508  25.249  0.00  0.00    -0.153 OA
BRANCH   1  19
ATOM     19  C   UNL     1      -4.393   0.026  25.472  0.00  0.00    +0.106 A 
ATOM     23  C   UNL     1      -5.331  -0.115  24.451  0.00  0.00    +0.028 A 
ATOM     24  C   UNL     1      -4.314   1.221  26.188  0.00  0.00    +0.028 A 
ATOM     29  C   UNL     1      -6.192   0.938  24.144  0.00  0.00    +0.002 A 
ATOM     30  C   UNL     1      -5.175   2.275  25.881  0.00  0.00    +0.002 A 
ATOM     31  C   UNL     1      -6.113   2.133  24.859  0.00  0.00    +0.000 A 
ENDBRANCH   1  19
ENDBRANCH   9   1
TORSDOF 11
ENDMDL
