MODEL 1
REMARK VINA RESULT:       2.8      0.000      0.000
REMARK  Name = 45783988
REMARK  11 active torsions:
REMARK  status: ('A' for Active; 'I' for Inactive)
REMARK    1  A    between atoms: N_4  and  C_14
REMARK    2  A    between atoms: N_5  and  C_26
REMARK    3  A    between atoms: N_8  and  C_33
REMARK    4  A    between atoms: C_9  and  C_13
REMARK    5  A    between atoms: C_10  and  C_14
REMARK    6  A    between atoms: C_12  and  C_17
REMARK    7  A    between atoms: C_13  and  C_18
REMARK    8  A    between atoms: C_13  and  C_19
REMARK    9  A    between atoms: C_16  and  C_22
REMARK   10  A    between atoms: C_17  and  C_25
REMARK   11  A    between atoms: C_27  and  C_28
REMARK                            x       y       z     vdW  Elec       q    Type
REMARK                         _______ _______ _______ _____ _____    ______ ____
ROOT
ATOM      9  C   UNL     1      -2.851   2.694  25.892  0.00  0.00    +0.000 C 
ATOM     10  C   UNL     1      -4.362   2.712  25.560  0.00  0.00    +0.029 C 
ATOM     11  C   UNL     1      -2.063   1.991  24.778  0.00  0.00    +0.012 C 
ATOM     12  C   UNL     1      -2.275   2.623  23.386  0.00  0.00    +0.024 C 
ATOM     15  C   UNL     1      -4.633   3.074  24.122  0.00  0.00    -0.023 C 
ATOM     16  C   UNL     1      -3.714   3.052  23.140  0.00  0.00    -0.073 C 
ATOM     22  C   UNL     1      -4.073   3.518  21.755  0.00  0.00    +0.039 C 
ENDROOT
BRANCH   9  13
ATOM     13  C   UNL     1      -2.316   4.112  26.140  0.00  0.00    -0.013 C 
ATOM     18  C   UNL     1      -1.193   4.435  25.159  0.00  0.00    +0.007 C 
ATOM     19  C   UNL     1      -3.444   5.132  26.026  0.00  0.00    +0.007 C 
ENDBRANCH   9  13
BRANCH  10  14
ATOM     14  C   UNL     1      -5.026   1.368  25.876  0.00  0.00    +0.092 C 
BRANCH  14   4
ATOM      4  N   UNL     1      -4.246   0.264  25.320  0.00  0.00    -0.299 NA
ATOM      5  N   UNL     1      -3.808  -2.527  24.708  0.00  0.00    -0.303 NA
ATOM     20  C   UNL     1      -4.985  -0.406  24.242  0.00  0.00    +0.100 C 
ATOM     21  C   UNL     1      -3.885  -0.698  26.368  0.00  0.00    +0.100 C 
ATOM     23  C   UNL     1      -4.169  -1.565  23.660  0.00  0.00    +0.099 C 
ATOM     24  C   UNL     1      -3.070  -1.858  25.786  0.00  0.00    +0.099 C 
ATOM     26  C   UNL     1      -3.027  -3.630  24.151  0.00  0.00    +0.105 C 
ENDBRANCH  14   4
ENDBRANCH  10  14
BRANCH  12  17
ATOM     17  C   UNL     1      -1.753   1.651  22.321  0.00  0.00    +0.105 C 
BRANCH  17  25
ATOM      1  O   UNL     1       0.555   0.945  22.684  0.00  0.00    -0.420 OA
ATOM      6  N   UNL     1      -0.972  -0.407  23.602  0.00  0.00    -0.112 NA
ATOM      7  N   UNL     1       0.279  -0.922  23.884  0.00  0.00    -0.107 NA
ATOM     25  C   UNL     1      -0.763   0.682  22.901  0.00  0.00    +0.218 A 
ATOM     27  C   UNL     1       1.140  -0.101  23.328  0.00  0.00    +0.248 A 
BRANCH  27  28
ATOM     28  C   UNL     1       2.573  -0.136  23.296  0.00  0.00    +0.039 A 
ATOM     29  C   UNL     1       3.255  -1.254  23.776  0.00  0.00    +0.015 A 
ATOM     30  C   UNL     1       3.286   0.949  22.786  0.00  0.00    +0.015 A 
ATOM     31  C   UNL     1       4.649  -1.289  23.745  0.00  0.00    +0.033 A 
ATOM     32  C   UNL     1       4.679   0.915  22.755  0.00  0.00    +0.033 A 
ATOM     33  C   UNL     1       5.361  -0.202  23.234  0.00  0.00    +0.126 A 
BRANCH  33   8
ATOM      2  O   UNL     1       7.426   0.436  24.039  0.00  0.00    -0.126 OA
ATOM      3  O   UNL     1       7.350  -0.943  22.332  0.00  0.00    -0.126 OA
ATOM      8  N   UNL     1       6.780  -0.238  23.200  0.00  0.00    +0.056 N 
ENDBRANCH  33   8
ENDBRANCH  27  28
ENDBRANCH  17  25
ENDBRANCH  12  17
TORSDOF 7
ENDMDL
MODEL 2
REMARK VINA RESULT:       4.4      3.059      6.425
REMARK  Name = 45783988
REMARK  11 active torsions:
REMARK  status: ('A' for Active; 'I' for Inactive)
REMARK    1  A    between atoms: N_4  and  C_14
REMARK    2  A    between atoms: N_5  and  C_26
REMARK    3  A    between atoms: N_8  and  C_33
REMARK    4  A    between atoms: C_9  and  C_13
REMARK    5  A    between atoms: C_10  and  C_14
REMARK    6  A    between atoms: C_12  and  C_17
REMARK    7  A    between atoms: C_13  and  C_18
REMARK    8  A    between atoms: C_13  and  C_19
REMARK    9  A    between atoms: C_16  and  C_22
REMARK   10  A    between atoms: C_17  and  C_25
REMARK   11  A    between atoms: C_27  and  C_28
REMARK                            x       y       z     vdW  Elec       q    Type
REMARK                         _______ _______ _______ _____ _____    ______ ____
ROOT
ATOM      9  C   UNL     1      -1.392   3.875  24.407  0.00  0.00    +0.000 C 
ATOM     10  C   UNL     1      -0.965   2.896  25.525  0.00  0.00    +0.029 C 
ATOM     11  C   UNL     1      -2.909   4.106  24.444  0.00  0.00    +0.012 C 
ATOM     12  C   UNL     1      -3.416   4.629  25.805  0.00  0.00    +0.024 C 
ATOM     15  C   UNL     1      -1.635   3.194  26.843  0.00  0.00    -0.023 C 
ATOM     16  C   UNL     1      -2.722   3.974  26.990  0.00  0.00    -0.073 C 
ATOM     22  C   UNL     1      -3.257   4.275  28.362  0.00  0.00    +0.039 C 
ENDROOT
BRANCH   9  13
ATOM     13  C   UNL     1      -0.626   5.203  24.505  0.00  0.00    -0.013 C 
ATOM     18  C   UNL     1       0.238   5.410  23.265  0.00  0.00    +0.007 C 
ATOM     19  C   UNL     1      -1.598   6.364  24.688  0.00  0.00    +0.007 C 
ENDBRANCH   9  13
BRANCH  10  14
ATOM     14  C   UNL     1      -1.242   1.440  25.137  0.00  0.00    +0.092 C 
BRANCH  14   4
ATOM      4  N   UNL     1      -0.047   0.820  24.569  0.00  0.00    -0.299 NA
ATOM      5  N   UNL     1       1.815   0.311  22.418  0.00  0.00    -0.303 NA
ATOM     20  C   UNL     1       0.914   1.841  24.134  0.00  0.00    +0.100 C 
ATOM     21  C   UNL     1      -0.399  -0.062  23.449  0.00  0.00    +0.100 C 
ATOM     23  C   UNL     1       2.167   1.192  23.537  0.00  0.00    +0.099 C 
ATOM     24  C   UNL     1       0.854  -0.710  22.851  0.00  0.00    +0.099 C 
ATOM     26  C   UNL     1       3.011  -0.310  21.851  0.00  0.00    +0.105 C 
ENDBRANCH  14   4
ENDBRANCH  10  14
BRANCH  12  17
ATOM     17  C   UNL     1      -4.941   4.478  25.850  0.00  0.00    +0.105 C 
BRANCH  17  25
ATOM      1  O   UNL     1      -4.462   2.140  25.339  0.00  0.00    -0.420 OA
ATOM      6  N   UNL     1      -6.458   2.480  26.290  0.00  0.00    -0.112 NA
ATOM      7  N   UNL     1      -6.321   1.124  26.059  0.00  0.00    -0.107 NA
ATOM     25  C   UNL     1      -5.351   3.034  25.856  0.00  0.00    +0.218 A 
ATOM     27  C   UNL     1      -5.142   0.973  25.503  0.00  0.00    +0.248 A 
BRANCH  27  28
ATOM     28  C   UNL     1      -4.471  -0.211  25.050  0.00  0.00    +0.039 A 
ATOM     29  C   UNL     1      -4.732  -0.717  23.776  0.00  0.00    +0.015 A 
ATOM     30  C   UNL     1      -3.558  -0.858  25.883  0.00  0.00    +0.015 A 
ATOM     31  C   UNL     1      -4.080  -1.868  23.335  0.00  0.00    +0.033 A 
ATOM     32  C   UNL     1      -2.906  -2.009  25.442  0.00  0.00    +0.033 A 
ATOM     33  C   UNL     1      -3.167  -2.515  24.169  0.00  0.00    +0.126 A 
BRANCH  33   8
ATOM      2  O   UNL     1      -1.247  -3.699  23.686  0.00  0.00    -0.126 OA
ATOM      3  O   UNL     1      -3.187  -4.677  23.366  0.00  0.00    -0.126 OA
ATOM      8  N   UNL     1      -2.502  -3.686  23.719  0.00  0.00    +0.056 N 
ENDBRANCH  33   8
ENDBRANCH  27  28
ENDBRANCH  17  25
ENDBRANCH  12  17
TORSDOF 7
ENDMDL
MODEL 3
REMARK VINA RESULT:       4.9      1.999      4.149
REMARK  Name = 45783988
REMARK  11 active torsions:
REMARK  status: ('A' for Active; 'I' for Inactive)
REMARK    1  A    between atoms: N_4  and  C_14
REMARK    2  A    between atoms: N_5  and  C_26
REMARK    3  A    between atoms: N_8  and  C_33
REMARK    4  A    between atoms: C_9  and  C_13
REMARK    5  A    between atoms: C_10  and  C_14
REMARK    6  A    between atoms: C_12  and  C_17
REMARK    7  A    between atoms: C_13  and  C_18
REMARK    8  A    between atoms: C_13  and  C_19
REMARK    9  A    between atoms: C_16  and  C_22
REMARK   10  A    between atoms: C_17  and  C_25
REMARK   11  A    between atoms: C_27  and  C_28
REMARK                            x       y       z     vdW  Elec       q    Type
REMARK                         _______ _______ _______ _____ _____    ______ ____
ROOT
ATOM      9  C   UNL     1      -3.319   2.986  24.241  0.00  0.00    +0.000 C 
ATOM     10  C   UNL     1      -3.955   3.854  25.353  0.00  0.00    +0.029 C 
ATOM     11  C   UNL     1      -3.318   1.506  24.648  0.00  0.00    +0.012 C 
ATOM     12  C   UNL     1      -4.723   0.962  24.982  0.00  0.00    +0.024 C 
ATOM     15  C   UNL     1      -5.212   3.241  25.915  0.00  0.00    -0.023 C 
ATOM     16  C   UNL     1      -5.578   1.957  25.751  0.00  0.00    -0.073 C 
ATOM     22  C   UNL     1      -6.899   1.472  26.283  0.00  0.00    +0.039 C 
ENDROOT
BRANCH   9  13
ATOM     13  C   UNL     1      -4.030   3.192  22.896  0.00  0.00    -0.013 C 
ATOM     18  C   UNL     1      -4.281   4.676  22.648  0.00  0.00    +0.007 C 
ATOM     19  C   UNL     1      -3.210   2.584  21.763  0.00  0.00    +0.007 C 
ENDBRANCH   9  13
BRANCH  10  14
ATOM     14  C   UNL     1      -2.969   4.121  26.494  0.00  0.00    +0.092 C 
BRANCH  14   4
ATOM      4  N   UNL     1      -1.596   3.869  26.061  0.00  0.00    -0.299 NA
ATOM      5  N   UNL     1       0.376   2.692  24.307  0.00  0.00    -0.303 NA
ATOM     20  C   UNL     1      -1.372   4.391  24.708  0.00  0.00    +0.100 C 
ATOM     21  C   UNL     1      -1.288   2.434  26.116  0.00  0.00    +0.100 C 
ATOM     23  C   UNL     1       0.067   4.125  24.253  0.00  0.00    +0.099 C 
ATOM     24  C   UNL     1       0.151   2.169  25.660  0.00  0.00    +0.099 C 
ATOM     26  C   UNL     1       1.750   2.441  23.876  0.00  0.00    +0.105 C 
ENDBRANCH  14   4
ENDBRANCH  10  14
BRANCH  12  17
ATOM     17  C   UNL     1      -4.569  -0.379  25.709  0.00  0.00    +0.105 C 
BRANCH  17  25
ATOM      1  O   UNL     1      -2.299  -0.535  24.824  0.00  0.00    -0.420 OA
ATOM      6  N   UNL     1      -3.409  -2.477  24.848  0.00  0.00    -0.112 NA
ATOM      7  N   UNL     1      -2.150  -2.711  24.328  0.00  0.00    -0.107 NA
ATOM     25  C   UNL     1      -3.452  -1.195  25.124  0.00  0.00    +0.218 A 
ATOM     27  C   UNL     1      -1.538  -1.551  24.332  0.00  0.00    +0.248 A 
BRANCH  27  28
ATOM     28  C   UNL     1      -0.216  -1.193  23.907  0.00  0.00    +0.039 A 
ATOM     29  C   UNL     1       0.891  -1.609  24.648  0.00  0.00    +0.015 A 
ATOM     30  C   UNL     1      -0.036  -0.431  22.753  0.00  0.00    +0.015 A 
ATOM     31  C   UNL     1       2.177  -1.262  24.235  0.00  0.00    +0.033 A 
ATOM     32  C   UNL     1       1.250  -0.084  22.341  0.00  0.00    +0.033 A 
ATOM     33  C   UNL     1       2.356  -0.499  23.081  0.00  0.00    +0.126 A 
BRANCH  33   8
ATOM      2  O   UNL     1       3.807   0.543  21.621  0.00  0.00    -0.126 OA
ATOM      3  O   UNL     1       4.648  -0.537  23.337  0.00  0.00    -0.126 OA
ATOM      8  N   UNL     1       3.666  -0.147  22.659  0.00  0.00    +0.056 N 
ENDBRANCH  33   8
ENDBRANCH  27  28
ENDBRANCH  17  25
ENDBRANCH  12  17
TORSDOF 7
ENDMDL
MODEL 4
REMARK VINA RESULT:       5.0      1.434      2.226
REMARK  Name = 45783988
REMARK  11 active torsions:
REMARK  status: ('A' for Active; 'I' for Inactive)
REMARK    1  A    between atoms: N_4  and  C_14
REMARK    2  A    between atoms: N_5  and  C_26
REMARK    3  A    between atoms: N_8  and  C_33
REMARK    4  A    between atoms: C_9  and  C_13
REMARK    5  A    between atoms: C_10  and  C_14
REMARK    6  A    between atoms: C_12  and  C_17
REMARK    7  A    between atoms: C_13  and  C_18
REMARK    8  A    between atoms: C_13  and  C_19
REMARK    9  A    between atoms: C_16  and  C_22
REMARK   10  A    between atoms: C_17  and  C_25
REMARK   11  A    between atoms: C_27  and  C_28
REMARK                            x       y       z     vdW  Elec       q    Type
REMARK                         _______ _______ _______ _____ _____    ______ ____
ROOT
ATOM      9  C   UNL     1      -4.730   1.989  25.520  0.00  0.00    +0.000 C 
ATOM     10  C   UNL     1      -4.777   0.724  24.633  0.00  0.00    +0.029 C 
ATOM     11  C   UNL     1      -3.288   2.496  25.661  0.00  0.00    +0.012 C 
ATOM     12  C   UNL     1      -2.610   2.793  24.307  0.00  0.00    +0.024 C 
ATOM     15  C   UNL     1      -3.915   0.848  23.402  0.00  0.00    -0.023 C 
ATOM     16  C   UNL     1      -2.951   1.772  23.233  0.00  0.00    -0.073 C 
ATOM     22  C   UNL     1      -2.209   1.861  21.928  0.00  0.00    +0.039 C 
ENDROOT
BRANCH   9  13
ATOM     13  C   UNL     1      -5.654   3.089  24.975  0.00  0.00    -0.013 C 
ATOM     18  C   UNL     1      -7.101   2.606  24.954  0.00  0.00    +0.007 C 
ATOM     19  C   UNL     1      -5.519   4.358  25.810  0.00  0.00    +0.007 C 
ENDBRANCH   9  13
BRANCH  10  14
ATOM     14  C   UNL     1      -4.365  -0.529  25.412  0.00  0.00    +0.092 C 
BRANCH  14   4
ATOM      4  N   UNL     1      -2.972  -0.874  25.136  0.00  0.00    -0.299 NA
ATOM      5  N   UNL     1      -0.568  -2.422  25.564  0.00  0.00    -0.303 NA
ATOM     20  C   UNL     1      -2.861  -2.258  24.660  0.00  0.00    +0.100 C 
ATOM     21  C   UNL     1      -2.139  -0.674  26.330  0.00  0.00    +0.100 C 
ATOM     23  C   UNL     1      -1.401  -2.621  24.372  0.00  0.00    +0.099 C 
ATOM     24  C   UNL     1      -0.679  -1.038  26.042  0.00  0.00    +0.099 C 
ATOM     26  C   UNL     1       0.825  -2.765  25.287  0.00  0.00    +0.105 C 
ENDBRANCH  14   4
ENDBRANCH  10  14
BRANCH  12  17
ATOM     17  C   UNL     1      -1.100   2.935  24.537  0.00  0.00    +0.105 C 
BRANCH  17  25
ATOM      1  O   UNL     1       1.015   1.830  24.026  0.00  0.00    -0.420 OA
ATOM      6  N   UNL     1      -0.793   0.722  23.313  0.00  0.00    -0.112 NA
ATOM      7  N   UNL     1       0.323  -0.012  22.960  0.00  0.00    -0.107 NA
ATOM     25  C   UNL     1      -0.343   1.787  23.933  0.00  0.00    +0.218 A 
ATOM     27  C   UNL     1       1.355   0.673  23.395  0.00  0.00    +0.248 A 
BRANCH  27  28
ATOM     28  C   UNL     1       2.760   0.394  23.311  0.00  0.00    +0.039 A 
ATOM     29  C   UNL     1       3.243  -0.867  23.659  0.00  0.00    +0.015 A 
ATOM     30  C   UNL     1       3.643   1.385  22.881  0.00  0.00    +0.015 A 
ATOM     31  C   UNL     1       4.609  -1.139  23.577  0.00  0.00    +0.033 A 
ATOM     32  C   UNL     1       5.008   1.114  22.799  0.00  0.00    +0.033 A 
ATOM     33  C   UNL     1       5.492  -0.147  23.147  0.00  0.00    +0.126 A 
BRANCH  33   8
ATOM      2  O   UNL     1       7.681   0.259  23.747  0.00  0.00    -0.126 OA
ATOM      3  O   UNL     1       7.273  -1.344  22.303  0.00  0.00    -0.126 OA
ATOM      8  N   UNL     1       6.882  -0.423  23.062  0.00  0.00    +0.056 N 
ENDBRANCH  33   8
ENDBRANCH  27  28
ENDBRANCH  17  25
ENDBRANCH  12  17
TORSDOF 7
ENDMDL
MODEL 5
REMARK VINA RESULT:       6.0      3.111      6.077
REMARK  Name = 45783988
REMARK  11 active torsions:
REMARK  status: ('A' for Active; 'I' for Inactive)
REMARK    1  A    between atoms: N_4  and  C_14
REMARK    2  A    between atoms: N_5  and  C_26
REMARK    3  A    between atoms: N_8  and  C_33
REMARK    4  A    between atoms: C_9  and  C_13
REMARK    5  A    between atoms: C_10  and  C_14
REMARK    6  A    between atoms: C_12  and  C_17
REMARK    7  A    between atoms: C_13  and  C_18
REMARK    8  A    between atoms: C_13  and  C_19
REMARK    9  A    between atoms: C_16  and  C_22
REMARK   10  A    between atoms: C_17  and  C_25
REMARK   11  A    between atoms: C_27  and  C_28
REMARK                            x       y       z     vdW  Elec       q    Type
REMARK                         _______ _______ _______ _____ _____    ______ ____
ROOT
ATOM      9  C   UNL     1      -3.132  -1.084  24.799  0.00  0.00    +0.000 C 
ATOM     10  C   UNL     1      -1.841  -0.514  24.166  0.00  0.00    +0.029 C 
ATOM     11  C   UNL     1      -4.086   0.052  25.193  0.00  0.00    +0.012 C 
ATOM     12  C   UNL     1      -4.457   0.976  24.013  0.00  0.00    +0.024 C 
ATOM     15  C   UNL     1      -2.120   0.591  23.180  0.00  0.00    -0.023 C 
ATOM     16  C   UNL     1      -3.284   1.260  23.088  0.00  0.00    -0.073 C 
ATOM     22  C   UNL     1      -3.484   2.287  22.007  0.00  0.00    +0.039 C 
ENDROOT
BRANCH   9  13
ATOM     13  C   UNL     1      -3.820  -2.086  23.860  0.00  0.00    -0.013 C 
ATOM     18  C   UNL     1      -3.472  -3.516  24.260  0.00  0.00    +0.007 C 
ATOM     19  C   UNL     1      -5.330  -1.872  23.870  0.00  0.00    +0.007 C 
ENDBRANCH   9  13
BRANCH  10  14
ATOM     14  C   UNL     1      -0.866  -0.004  25.232  0.00  0.00    +0.092 C 
BRANCH  14   4
ATOM      4  N   UNL     1       0.484   0.113  24.684  0.00  0.00    -0.299 NA
ATOM      5  N   UNL     1       2.368   0.331  22.504  0.00  0.00    -0.303 NA
ATOM     20  C   UNL     1       0.633   1.362  23.927  0.00  0.00    +0.100 C 
ATOM     21  C   UNL     1       0.804  -1.042  23.837  0.00  0.00    +0.100 C 
ATOM     23  C   UNL     1       2.047   1.485  23.351  0.00  0.00    +0.099 C 
ATOM     24  C   UNL     1       2.219  -0.918  23.260  0.00  0.00    +0.099 C 
ATOM     26  C   UNL     1       3.719   0.448  21.958  0.00  0.00    +0.105 C 
ENDBRANCH  14   4
ENDBRANCH  10  14
BRANCH  12  17
ATOM     17  C   UNL     1      -5.097   2.252  24.573  0.00  0.00    +0.105 C 
BRANCH  17  25
ATOM      1  O   UNL     1      -3.035   2.511  25.852  0.00  0.00    -0.420 OA
ATOM      6  N   UNL     1      -4.029   4.442  25.316  0.00  0.00    -0.112 NA
ATOM      7  N   UNL     1      -2.884   4.736  26.031  0.00  0.00    -0.107 NA
ATOM     25  C   UNL     1      -4.077   3.133  25.235  0.00  0.00    +0.218 A 
ATOM     27  C   UNL     1      -2.336   3.579  26.324  0.00  0.00    +0.248 A 
BRANCH  27  28
ATOM     28  C   UNL     1      -1.138   3.274  27.049  0.00  0.00    +0.039 A 
ATOM     29  C   UNL     1       0.063   3.082  26.365  0.00  0.00    +0.015 A 
ATOM     30  C   UNL     1      -1.171   3.168  28.440  0.00  0.00    +0.015 A 
ATOM     31  C   UNL     1       1.229   2.784  27.070  0.00  0.00    +0.033 A 
ATOM     32  C   UNL     1      -0.006   2.870  29.145  0.00  0.00    +0.033 A 
ATOM     33  C   UNL     1       1.194   2.679  28.461  0.00  0.00    +0.126 A 
BRANCH  33   8
ATOM      2  O   UNL     1       2.296   1.744  30.259  0.00  0.00    -0.126 OA
ATOM      3  O   UNL     1       3.485   2.754  28.714  0.00  0.00    -0.126 OA
ATOM      8  N   UNL     1       2.381   2.378  29.179  0.00  0.00    +0.056 N 
ENDBRANCH  33   8
ENDBRANCH  27  28
ENDBRANCH  17  25
ENDBRANCH  12  17
TORSDOF 7
ENDMDL
MODEL 6
REMARK VINA RESULT:       6.6      1.546      2.518
REMARK  Name = 45783988
REMARK  11 active torsions:
REMARK  status: ('A' for Active; 'I' for Inactive)
REMARK    1  A    between atoms: N_4  and  C_14
REMARK    2  A    between atoms: N_5  and  C_26
REMARK    3  A    between atoms: N_8  and  C_33
REMARK    4  A    between atoms: C_9  and  C_13
REMARK    5  A    between atoms: C_10  and  C_14
REMARK    6  A    between atoms: C_12  and  C_17
REMARK    7  A    between atoms: C_13  and  C_18
REMARK    8  A    between atoms: C_13  and  C_19
REMARK    9  A    between atoms: C_16  and  C_22
REMARK   10  A    between atoms: C_17  and  C_25
REMARK   11  A    between atoms: C_27  and  C_28
REMARK                            x       y       z     vdW  Elec       q    Type
REMARK                         _______ _______ _______ _____ _____    ______ ____
ROOT
ATOM      9  C   UNL     1      -4.617   1.711  25.673  0.00  0.00    +0.000 C 
ATOM     10  C   UNL     1      -4.984   1.889  24.181  0.00  0.00    +0.029 C 
ATOM     11  C   UNL     1      -3.150   2.091  25.916  0.00  0.00    +0.012 C 
ATOM     12  C   UNL     1      -2.808   3.528  25.471  0.00  0.00    +0.024 C 
ATOM     15  C   UNL     1      -4.448   3.173  23.602  0.00  0.00    -0.023 C 
ATOM     16  C   UNL     1      -3.486   3.925  24.168  0.00  0.00    -0.073 C 
ATOM     22  C   UNL     1      -3.088   5.237  23.549  0.00  0.00    +0.039 C 
ENDROOT
BRANCH   9  13
ATOM     13  C   UNL     1      -5.557   2.520  26.580  0.00  0.00    -0.013 C 
ATOM     18  C   UNL     1      -6.143   3.704  25.816  0.00  0.00    +0.007 C 
ATOM     19  C   UNL     1      -6.664   1.627  27.128  0.00  0.00    +0.007 C 
ENDBRANCH   9  13
BRANCH  10  14
ATOM     14  C   UNL     1      -4.492   0.711  23.334  0.00  0.00    +0.092 C 
BRANCH  14   4
ATOM      4  N   UNL     1      -3.738  -0.236  24.155  0.00  0.00    -0.299 NA
ATOM      5  N   UNL     1      -1.984  -2.505  24.514  0.00  0.00    -0.303 NA
ATOM     20  C   UNL     1      -2.300  -0.140  23.874  0.00  0.00    +0.100 C 
ATOM     21  C   UNL     1      -4.213  -1.608  23.936  0.00  0.00    +0.100 C 
ATOM     23  C   UNL     1      -1.510  -1.134  24.733  0.00  0.00    +0.099 C 
ATOM     24  C   UNL     1      -3.422  -2.601  24.794  0.00  0.00    +0.099 C 
ATOM     26  C   UNL     1      -1.232  -3.451  25.336  0.00  0.00    +0.105 C 
ENDBRANCH  14   4
ENDBRANCH  10  14
BRANCH  12  17
ATOM     17  C   UNL     1      -1.282   3.675  25.417  0.00  0.00    +0.105 C 
BRANCH  17  25
ATOM      1  O   UNL     1       0.582   2.313  24.628  0.00  0.00    -0.420 OA
ATOM      6  N   UNL     1      -1.188   2.324  23.260  0.00  0.00    -0.112 NA
ATOM      7  N   UNL     1      -0.216   1.520  22.694  0.00  0.00    -0.107 NA
ATOM     25  C   UNL     1      -0.680   2.765  24.386  0.00  0.00    +0.218 A 
ATOM     27  C   UNL     1       0.798   1.543  23.526  0.00  0.00    +0.248 A 
BRANCH  27  28
ATOM     28  C   UNL     1       2.076   0.895  23.455  0.00  0.00    +0.039 A 
ATOM     29  C   UNL     1       3.218   1.636  23.153  0.00  0.00    +0.015 A 
ATOM     30  C   UNL     1       2.176  -0.477  23.688  0.00  0.00    +0.015 A 
ATOM     31  C   UNL     1       4.461   1.005  23.084  0.00  0.00    +0.033 A 
ATOM     32  C   UNL     1       3.417  -1.107  23.620  0.00  0.00    +0.033 A 
ATOM     33  C   UNL     1       4.560  -0.367  23.318  0.00  0.00    +0.126 A 
BRANCH  33   8
ATOM      2  O   UNL     1       6.788  -0.400  22.723  0.00  0.00    -0.126 OA
ATOM      3  O   UNL     1       5.946  -2.166  23.719  0.00  0.00    -0.126 OA
ATOM      8  N   UNL     1       5.825  -1.008  23.250  0.00  0.00    +0.056 N 
ENDBRANCH  33   8
ENDBRANCH  27  28
ENDBRANCH  17  25
ENDBRANCH  12  17
TORSDOF 7
ENDMDL
