MODEL 1
REMARK VINA RESULT:      -5.4      0.000      0.000
REMARK  Name = 56774867
REMARK  5 active torsions:
REMARK  status: ('A' for Active; 'I' for Inactive)
REMARK    1  A    between atoms: O_3  and  C_14
REMARK    2  A    between atoms: N_5  and  C_17
REMARK    3  A    between atoms: C_7  and  C_12
REMARK    4  A    between atoms: C_13  and  C_14
REMARK    5  A    between atoms: C_14  and  C_16
REMARK                            x       y       z     vdW  Elec       q    Type
REMARK                         _______ _______ _______ _____ _____    ______ ____
ROOT
ATOM     16  C   UNL     1      -1.620   3.060  25.274  0.00  0.00    -0.017 A 
ATOM     17  C   UNL     1       0.670   1.927  24.156  0.00  0.00    +0.033 A 
ATOM     18  C   UNL     1      -0.833   3.803  24.395  0.00  0.00    +0.008 A 
ATOM     19  C   UNL     1      -1.262   1.750  25.595  0.00  0.00    +0.008 A 
ATOM     20  C   UNL     1       0.312   3.237  23.836  0.00  0.00    +0.023 A 
ATOM     21  C   UNL     1      -0.117   1.184  25.035  0.00  0.00    +0.023 A 
ENDROOT
BRANCH  17   5
ATOM      2  O   UNL     1       1.043  -0.667  22.673  0.00  0.00    -0.275 OA
ATOM      5  N   UNL     1       1.815   1.360  23.596  0.00  0.00    -0.285 N 
ATOM     12  C   UNL     1       1.933   0.142  22.913  0.00  0.00    +0.220 C 
ATOM     24  H   UNL     1       2.662   1.915  23.697  0.00  0.00    +0.155 HD
BRANCH  12   7
ATOM      7  C   UNL     1       3.340  -0.110  22.464  0.00  0.00    +0.075 C 
ATOM      8  C   UNL     1       3.973  -1.229  23.300  0.00  0.00    +0.013 C 
ATOM      9  C   UNL     1       4.206   1.132  22.685  0.00  0.00    +0.013 C 
ATOM     10  C   UNL     1       5.242  -0.633  23.898  0.00  0.00    +0.001 C 
ATOM     11  C   UNL     1       4.952   0.854  23.983  0.00  0.00    +0.001 C 
ENDBRANCH  12   7
ENDBRANCH  17   5
BRANCH  16  14
ATOM     14  C   UNL     1      -2.860   3.673  25.879  0.00  0.00    +0.167 C 
BRANCH  14  13
ATOM      1  O   UNL     1      -3.847   1.319  24.371  0.00  0.00    -0.369 OA
ATOM      4  O   UNL     1      -6.722   1.790  26.506  0.00  0.00    -0.273 OA
ATOM      6  N   UNL     1      -5.264   3.338  25.640  0.00  0.00    -0.306 N 
ATOM     13  C   UNL     1      -4.042   3.643  24.912  0.00  0.00    +0.131 C 
ATOM     15  C   UNL     1      -3.833   2.624  23.798  0.00  0.00    +0.185 C 
ATOM     22  C   UNL     1      -5.120   1.004  24.899  0.00  0.00    +0.255 C 
ATOM     23  C   UNL     1      -5.769   2.062  25.777  0.00  0.00    +0.239 C 
ATOM     25  H   UNL     1      -5.697   4.083  26.178  0.00  0.00    +0.149 HD
ENDBRANCH  14  13
BRANCH  14   3
ATOM      3  O   UNL     1      -2.587   5.020  26.254  0.00  0.00    -0.385 OA
ATOM     26  H   UNL     1      -3.201   5.270  26.965  0.00  0.00    +0.210 HD
ENDBRANCH  14   3
ENDBRANCH  16  14
TORSDOF 5
ENDMDL
MODEL 2
REMARK VINA RESULT:      -5.2      1.634      2.870
REMARK  Name = 56774867
REMARK  5 active torsions:
REMARK  status: ('A' for Active; 'I' for Inactive)
REMARK    1  A    between atoms: O_3  and  C_14
REMARK    2  A    between atoms: N_5  and  C_17
REMARK    3  A    between atoms: C_7  and  C_12
REMARK    4  A    between atoms: C_13  and  C_14
REMARK    5  A    between atoms: C_14  and  C_16
REMARK                            x       y       z     vdW  Elec       q    Type
REMARK                         _______ _______ _______ _____ _____    ______ ____
ROOT
ATOM     16  C   UNL     1      -2.908   0.940  24.078  0.00  0.00    -0.017 A 
ATOM     17  C   UNL     1      -0.306   0.180  23.420  0.00  0.00    +0.033 A 
ATOM     18  C   UNL     1      -2.160   0.171  24.969  0.00  0.00    +0.008 A 
ATOM     19  C   UNL     1      -2.355   1.330  22.858  0.00  0.00    +0.008 A 
ATOM     20  C   UNL     1      -0.859  -0.210  24.640  0.00  0.00    +0.023 A 
ATOM     21  C   UNL     1      -1.054   0.949  22.529  0.00  0.00    +0.023 A 
ENDROOT
BRANCH  17   5
ATOM      2  O   UNL     1       2.270   1.737  23.518  0.00  0.00    -0.275 OA
ATOM      5  N   UNL     1       0.996  -0.200  23.091  0.00  0.00    -0.285 N 
ATOM     12  C   UNL     1       2.164   0.570  23.155  0.00  0.00    +0.220 C 
ATOM     24  H   UNL     1       1.095  -1.162  22.772  0.00  0.00    +0.155 HD
BRANCH  12   7
ATOM      7  C   UNL     1       3.367  -0.208  22.714  0.00  0.00    +0.075 C 
ATOM      8  C   UNL     1       3.732  -1.263  23.764  0.00  0.00    +0.013 C 
ATOM      9  C   UNL     1       4.585   0.709  22.587  0.00  0.00    +0.013 C 
ATOM     10  C   UNL     1       5.184  -0.990  24.141  0.00  0.00    +0.001 C 
ATOM     11  C   UNL     1       5.364   0.494  23.876  0.00  0.00    +0.001 C 
ENDBRANCH  12   7
ENDBRANCH  17   5
BRANCH  16  14
ATOM     14  C   UNL     1      -4.315   1.353  24.434  0.00  0.00    +0.167 C 
BRANCH  14  13
ATOM      1  O   UNL     1      -4.596   3.316  26.639  0.00  0.00    -0.369 OA
ATOM      4  O   UNL     1      -1.451   4.496  25.312  0.00  0.00    -0.273 OA
ATOM      6  N   UNL     1      -3.232   3.529  24.233  0.00  0.00    -0.306 N 
ATOM     13  C   UNL     1      -4.522   2.860  24.290  0.00  0.00    +0.131 C 
ATOM     15  C   UNL     1      -5.352   3.427  25.435  0.00  0.00    +0.185 C 
ATOM     22  C   UNL     1      -3.446   4.136  26.600  0.00  0.00    +0.255 C 
ATOM     23  C   UNL     1      -2.599   4.056  25.339  0.00  0.00    +0.239 C 
ATOM     25  H   UNL     1      -2.716   3.496  23.359  0.00  0.00    +0.149 HD
ENDBRANCH  14  13
BRANCH  14   3
ATOM      3  O   UNL     1      -4.597   0.961  25.775  0.00  0.00    -0.385 OA
ATOM     26  H   UNL     1      -5.549   1.078  25.933  0.00  0.00    +0.210 HD
ENDBRANCH  14   3
ENDBRANCH  16  14
TORSDOF 5
ENDMDL
MODEL 3
REMARK VINA RESULT:      -4.6      1.251      1.869
REMARK  Name = 56774867
REMARK  5 active torsions:
REMARK  status: ('A' for Active; 'I' for Inactive)
REMARK    1  A    between atoms: O_3  and  C_14
REMARK    2  A    between atoms: N_5  and  C_17
REMARK    3  A    between atoms: C_7  and  C_12
REMARK    4  A    between atoms: C_13  and  C_14
REMARK    5  A    between atoms: C_14  and  C_16
REMARK                            x       y       z     vdW  Elec       q    Type
REMARK                         _______ _______ _______ _____ _____    ______ ____
ROOT
ATOM     16  C   UNL     1      -1.526   3.243  25.617  0.00  0.00    -0.017 A 
ATOM     17  C   UNL     1       0.637   2.038  24.333  0.00  0.00    +0.033 A 
ATOM     18  C   UNL     1      -1.020   2.034  26.091  0.00  0.00    +0.008 A 
ATOM     19  C   UNL     1      -0.951   3.851  24.501  0.00  0.00    +0.008 A 
ATOM     20  C   UNL     1       0.061   1.430  25.450  0.00  0.00    +0.023 A 
ATOM     21  C   UNL     1       0.131   3.247  23.859  0.00  0.00    +0.023 A 
ENDROOT
BRANCH  17   5
ATOM      2  O   UNL     1       0.848  -0.621  22.935  0.00  0.00    -0.275 OA
ATOM      5  N   UNL     1       1.719   1.435  23.691  0.00  0.00    -0.285 N 
ATOM     12  C   UNL     1       1.762   0.188  23.054  0.00  0.00    +0.220 C 
ATOM     24  H   UNL     1       2.576   1.984  23.687  0.00  0.00    +0.155 HD
BRANCH  12   7
ATOM      7  C   UNL     1       3.118  -0.098  22.484  0.00  0.00    +0.075 C 
ATOM      8  C   UNL     1       3.815  -1.196  23.296  0.00  0.00    +0.013 C 
ATOM      9  C   UNL     1       4.014   1.139  22.578  0.00  0.00    +0.013 C 
ATOM     10  C   UNL     1       5.142  -0.597  23.751  0.00  0.00    +0.001 C 
ATOM     11  C   UNL     1       4.876   0.896  23.809  0.00  0.00    +0.001 C 
ENDBRANCH  12   7
ENDBRANCH  17   5
BRANCH  16  14
ATOM     14  C   UNL     1      -2.696   3.897  26.312  0.00  0.00    +0.167 C 
BRANCH  14  13
ATOM      1  O   UNL     1      -4.241   4.144  23.794  0.00  0.00    -0.369 OA
ATOM      4  O   UNL     1      -3.330   0.662  23.486  0.00  0.00    -0.273 OA
ATOM      6  N   UNL     1      -3.750   1.911  25.366  0.00  0.00    -0.306 N 
ATOM     13  C   UNL     1      -4.016   3.202  25.983  0.00  0.00    +0.131 C 
ATOM     15  C   UNL     1      -4.885   4.050  25.062  0.00  0.00    +0.185 C 
ATOM     22  C   UNL     1      -4.179   2.884  23.156  0.00  0.00    +0.255 C 
ATOM     23  C   UNL     1      -3.690   1.719  24.002  0.00  0.00    +0.239 C 
ATOM     25  H   UNL     1      -3.473   1.143  25.969  0.00  0.00    +0.149 HD
ENDBRANCH  14  13
BRANCH  14   3
ATOM      3  O   UNL     1      -2.771   5.266  25.925  0.00  0.00    -0.385 OA
ATOM     26  H   UNL     1      -2.258   5.381  25.107  0.00  0.00    +0.210 HD
ENDBRANCH  14   3
ENDBRANCH  16  14
TORSDOF 5
ENDMDL
MODEL 4
REMARK VINA RESULT:      -3.9      1.275      1.668
REMARK  Name = 56774867
REMARK  5 active torsions:
REMARK  status: ('A' for Active; 'I' for Inactive)
REMARK    1  A    between atoms: O_3  and  C_14
REMARK    2  A    between atoms: N_5  and  C_17
REMARK    3  A    between atoms: C_7  and  C_12
REMARK    4  A    between atoms: C_13  and  C_14
REMARK    5  A    between atoms: C_14  and  C_16
REMARK                            x       y       z     vdW  Elec       q    Type
REMARK                         _______ _______ _______ _____ _____    ______ ____
ROOT
ATOM     16  C   UNL     1      -1.863   3.067  24.748  0.00  0.00    -0.017 A 
ATOM     17  C   UNL     1       0.485   1.862  23.844  0.00  0.00    +0.033 A 
ATOM     18  C   UNL     1      -1.842   2.420  23.513  0.00  0.00    +0.008 A 
ATOM     19  C   UNL     1      -0.709   3.111  25.532  0.00  0.00    +0.008 A 
ATOM     20  C   UNL     1      -0.668   1.818  23.061  0.00  0.00    +0.023 A 
ATOM     21  C   UNL     1       0.464   2.509  25.079  0.00  0.00    +0.023 A 
ENDROOT
BRANCH  17   5
ATOM      2  O   UNL     1       1.178  -1.046  23.490  0.00  0.00    -0.275 OA
ATOM      5  N   UNL     1       1.659   1.259  23.392  0.00  0.00    -0.285 N 
ATOM     12  C   UNL     1       1.929  -0.108  23.247  0.00  0.00    +0.220 C 
ATOM     24  H   UNL     1       2.401   1.906  23.131  0.00  0.00    +0.155 HD
BRANCH  12   7
ATOM      7  C   UNL     1       3.314  -0.349  22.728  0.00  0.00    +0.075 C 
ATOM      8  C   UNL     1       4.060  -1.332  23.638  0.00  0.00    +0.013 C 
ATOM      9  C   UNL     1       4.127   0.948  22.741  0.00  0.00    +0.013 C 
ATOM     10  C   UNL     1       5.334  -0.614  24.070  0.00  0.00    +0.001 C 
ATOM     11  C   UNL     1       4.972   0.859  24.004  0.00  0.00    +0.001 C 
ENDBRANCH  12   7
ENDBRANCH  17   5
BRANCH  16  14
ATOM     14  C   UNL     1      -3.133   3.718  25.239  0.00  0.00    +0.167 C 
BRANCH  14  13
ATOM      1  O   UNL     1      -5.970   2.922  24.914  0.00  0.00    -0.369 OA
ATOM      4  O   UNL     1      -4.473  -0.323  24.387  0.00  0.00    -0.273 OA
ATOM      6  N   UNL     1      -3.783   1.417  25.717  0.00  0.00    -0.306 N 
ATOM     13  C   UNL     1      -3.929   2.795  26.159  0.00  0.00    +0.131 C 
ATOM     15  C   UNL     1      -5.404   3.174  26.198  0.00  0.00    +0.185 C 
ATOM     22  C   UNL     1      -5.972   1.540  24.617  0.00  0.00    +0.255 C 
ATOM     23  C   UNL     1      -4.671   0.792  24.868  0.00  0.00    +0.239 C 
ATOM     25  H   UNL     1      -2.920   0.932  25.945  0.00  0.00    +0.149 HD
ENDBRANCH  14  13
BRANCH  14   3
ATOM      3  O   UNL     1      -3.938   4.085  24.121  0.00  0.00    -0.385 OA
ATOM     26  H   UNL     1      -4.734   3.527  24.123  0.00  0.00    +0.210 HD
ENDBRANCH  14   3
ENDBRANCH  16  14
TORSDOF 5
ENDMDL
MODEL 5
REMARK VINA RESULT:      -3.7      1.671      2.396
REMARK  Name = 56774867
REMARK  5 active torsions:
REMARK  status: ('A' for Active; 'I' for Inactive)
REMARK    1  A    between atoms: O_3  and  C_14
REMARK    2  A    between atoms: N_5  and  C_17
REMARK    3  A    between atoms: C_7  and  C_12
REMARK    4  A    between atoms: C_13  and  C_14
REMARK    5  A    between atoms: C_14  and  C_16
REMARK                            x       y       z     vdW  Elec       q    Type
REMARK                         _______ _______ _______ _____ _____    ______ ____
ROOT
ATOM     16  C   UNL     1      -2.573   0.857  24.400  0.00  0.00    -0.017 A 
ATOM     17  C   UNL     1       0.003   0.083  23.659  0.00  0.00    +0.033 A 
ATOM     18  C   UNL     1      -1.938   1.482  23.327  0.00  0.00    +0.008 A 
ATOM     19  C   UNL     1      -1.920  -0.156  25.103  0.00  0.00    +0.008 A 
ATOM     20  C   UNL     1      -0.651   1.095  22.956  0.00  0.00    +0.023 A 
ATOM     21  C   UNL     1      -0.632  -0.542  24.732  0.00  0.00    +0.023 A 
ENDROOT
BRANCH  17   5
ATOM      2  O   UNL     1       2.516   1.708  23.331  0.00  0.00    -0.275 OA
ATOM      5  N   UNL     1       1.291  -0.305  23.288  0.00  0.00    -0.285 N 
ATOM     12  C   UNL     1       2.430   0.498  23.149  0.00  0.00    +0.220 C 
ATOM     24  H   UNL     1       1.403  -1.301  23.106  0.00  0.00    +0.155 HD
BRANCH  12   7
ATOM      7  C   UNL     1       3.626  -0.303  22.733  0.00  0.00    +0.075 C 
ATOM      8  C   UNL     1       3.930  -1.385  23.776  0.00  0.00    +0.013 C 
ATOM      9  C   UNL     1       4.870   0.585  22.662  0.00  0.00    +0.013 C 
ATOM     10  C   UNL     1       5.376  -1.155  24.203  0.00  0.00    +0.001 C 
ATOM     11  C   UNL     1       5.602   0.327  23.972  0.00  0.00    +0.001 C 
ENDBRANCH  12   7
ENDBRANCH  17   5
BRANCH  16  14
ATOM     14  C   UNL     1      -3.967   1.275  24.800  0.00  0.00    +0.167 C 
BRANCH  14  13
ATOM      1  O   UNL     1      -3.096   4.110  24.810  0.00  0.00    -0.369 OA
ATOM      4  O   UNL     1      -6.598   4.656  25.508  0.00  0.00    -0.273 OA
ATOM      6  N   UNL     1      -5.237   2.903  26.098  0.00  0.00    -0.306 N 
ATOM     13  C   UNL     1      -3.956   2.220  26.001  0.00  0.00    +0.131 C 
ATOM     15  C   UNL     1      -2.828   3.240  25.906  0.00  0.00    +0.185 C 
ATOM     22  C   UNL     1      -4.254   4.888  25.043  0.00  0.00    +0.255 C 
ATOM     23  C   UNL     1      -5.481   4.142  25.544  0.00  0.00    +0.239 C 
ATOM     25  H   UNL     1      -6.024   2.390  26.483  0.00  0.00    +0.149 HD
ENDBRANCH  14  13
BRANCH  14   3
ATOM      3  O   UNL     1      -4.736   0.117  25.113  0.00  0.00    -0.385 OA
ATOM     26  H   UNL     1      -4.901   0.111  26.071  0.00  0.00    +0.210 HD
ENDBRANCH  14   3
ENDBRANCH  16  14
TORSDOF 5
ENDMDL
MODEL 6
REMARK VINA RESULT:      -2.0      1.383      1.828
REMARK  Name = 56774867
REMARK  5 active torsions:
REMARK  status: ('A' for Active; 'I' for Inactive)
REMARK    1  A    between atoms: O_3  and  C_14
REMARK    2  A    between atoms: N_5  and  C_17
REMARK    3  A    between atoms: C_7  and  C_12
REMARK    4  A    between atoms: C_13  and  C_14
REMARK    5  A    between atoms: C_14  and  C_16
REMARK                            x       y       z     vdW  Elec       q    Type
REMARK                         _______ _______ _______ _____ _____    ______ ____
ROOT
ATOM     16  C   UNL     1      -2.142   2.754  24.823  0.00  0.00    -0.017 A 
ATOM     17  C   UNL     1       0.236   1.580  23.960  0.00  0.00    +0.033 A 
ATOM     18  C   UNL     1      -0.972   2.925  25.562  0.00  0.00    +0.008 A 
ATOM     19  C   UNL     1      -2.123   1.996  23.652  0.00  0.00    +0.008 A 
ATOM     20  C   UNL     1       0.217   2.338  25.131  0.00  0.00    +0.023 A 
ATOM     21  C   UNL     1      -0.934   1.409  23.221  0.00  0.00    +0.023 A 
ENDROOT
BRANCH  17   5
ATOM      2  O   UNL     1       1.177  -1.276  24.114  0.00  0.00    -0.275 OA
ATOM      5  N   UNL     1       1.426   0.993  23.528  0.00  0.00    -0.285 N 
ATOM     12  C   UNL     1       1.815  -0.349  23.627  0.00  0.00    +0.220 C 
ATOM     24  H   UNL     1       2.082   1.631  23.081  0.00  0.00    +0.155 HD
BRANCH  12   7
ATOM      7  C   UNL     1       3.175  -0.578  23.040  0.00  0.00    +0.075 C 
ATOM      8  C   UNL     1       4.068  -1.317  24.044  0.00  0.00    +0.013 C 
ATOM      9  C   UNL     1       3.867   0.754  22.750  0.00  0.00    +0.013 C 
ATOM     10  C   UNL     1       5.301  -0.438  24.227  0.00  0.00    +0.001 C 
ATOM     11  C   UNL     1       4.806   0.965  23.929  0.00  0.00    +0.001 C 
ENDBRANCH  12   7
ENDBRANCH  17   5
BRANCH  16  14
ATOM     14  C   UNL     1      -3.429   3.390  25.289  0.00  0.00    +0.167 C 
BRANCH  14  13
ATOM      1  O   UNL     1      -5.970   2.008  24.634  0.00  0.00    -0.369 OA
ATOM      4  O   UNL     1      -3.870  -0.915  24.936  0.00  0.00    -0.273 OA
ATOM      6  N   UNL     1      -3.761   1.094  26.042  0.00  0.00    -0.306 N 
ATOM     13  C   UNL     1      -4.224   2.463  26.208  0.00  0.00    +0.131 C 
ATOM     15  C   UNL     1      -5.720   2.544  25.931  0.00  0.00    +0.185 C 
ATOM     22  C   UNL     1      -5.678   0.626  24.584  0.00  0.00    +0.255 C 
ATOM     23  C   UNL     1      -4.345   0.194  25.176  0.00  0.00    +0.239 C 
ATOM     25  H   UNL     1      -2.891   0.827  26.492  0.00  0.00    +0.149 HD
ENDBRANCH  14  13
BRANCH  14   3
ATOM      3  O   UNL     1      -4.224   3.732  24.157  0.00  0.00    -0.385 OA
ATOM     26  H   UNL     1      -3.629   3.938  23.417  0.00  0.00    +0.210 HD
ENDBRANCH  14   3
ENDBRANCH  16  14
TORSDOF 5
ENDMDL
