MODEL 1
REMARK VINA RESULT:       3.4      0.000      0.000
REMARK  Name = 11885889
REMARK  3 active torsions:
REMARK  status: ('A' for Active; 'I' for Inactive)
REMARK    1  A    between atoms: N_7  and  C_19
REMARK    2  A    between atoms: N_8  and  C_26
REMARK    3  A    between atoms: C_18  and  C_21
REMARK                            x       y       z     vdW  Elec       q    Type
REMARK                         _______ _______ _______ _____ _____    ______ ____
ROOT
ATOM      2  O   UNL     1      -0.541   3.050  25.747  0.00  0.00    -0.266 OA
ATOM      3  O   UNL     1      -3.861  -0.657  27.160  0.00  0.00    -0.269 OA
ATOM      5  N   UNL     1      -4.963   0.741  25.641  0.00  0.00    -0.296 N 
ATOM      6  N   UNL     1      -2.671   2.777  24.826  0.00  0.00    -0.310 N 
ATOM      9  C   UNL     1      -4.820   3.170  26.164  0.00  0.00    +0.027 C 
ATOM     10  C   UNL     1      -4.955   2.429  23.820  0.00  0.00    +0.054 C 
ATOM     11  C   UNL     1      -5.437   3.491  24.807  0.00  0.00    +0.018 C 
ATOM     12  C   UNL     1      -5.257   1.772  26.636  0.00  0.00    +0.113 C 
ATOM     13  C   UNL     1      -3.295   3.291  26.054  0.00  0.00    +0.130 C 
ATOM     14  C   UNL     1      -5.437   1.039  24.280  0.00  0.00    +0.117 C 
ATOM     15  C   UNL     1      -3.441   2.435  23.710  0.00  0.00    +0.027 A 
ATOM     16  C   UNL     1      -2.845   2.078  22.560  0.00  0.00    +0.024 A 
ATOM     17  C   UNL     1      -1.262   2.743  24.797  0.00  0.00    +0.273 A 
ATOM     18  C   UNL     1      -4.259  -0.403  26.023  0.00  0.00    +0.253 C 
ATOM     19  C   UNL     1      -0.638   2.313  23.506  0.00  0.00    +0.100 A 
ATOM     20  C   UNL     1      -1.414   2.016  22.459  0.00  0.00    +0.030 A 
ENDROOT
BRANCH  19   7
ATOM      4  O   UNL     1       0.941  -0.046  23.686  0.00  0.00    -0.252 OA
ATOM      7  N   UNL     1       0.724   2.250  23.443  0.00  0.00    -0.265 N 
ATOM      8  N   UNL     1       2.826   1.330  23.438  0.00  0.00    -0.269 N 
ATOM     23  C   UNL     1       1.457   1.060  23.538  0.00  0.00    +0.308 C 
ATOM     32  H   UNL     1       1.231   3.119  23.581  0.00  0.00    +0.157 HD
ATOM     33  H   UNL     1       3.089   2.305  23.313  0.00  0.00    +0.156 HD
BRANCH   8  26
ATOM     26  C   UNL     1       3.899   0.410  23.485  0.00  0.00    +0.035 A 
ATOM     27  C   UNL     1       3.628  -0.941  23.633  0.00  0.00    +0.023 A 
ATOM     28  C   UNL     1       5.198   0.877  23.382  0.00  0.00    +0.023 A 
ATOM     29  C   UNL     1       4.687  -1.848  23.679  0.00  0.00    +0.002 A 
ATOM     30  C   UNL     1       6.257  -0.030  23.430  0.00  0.00    +0.002 A 
ATOM     31  C   UNL     1       6.001  -1.393  23.578  0.00  0.00    +0.000 A 
ENDBRANCH   8  26
ENDBRANCH  19   7
BRANCH  18  21
ATOM      1  S   UNL     1      -2.377  -2.077  24.953  0.00  0.00    -0.092 S 
ATOM     21  C   UNL     1      -3.942  -1.393  24.989  0.00  0.00    +0.074 A 
ATOM     22  C   UNL     1      -4.751  -1.881  23.992  0.00  0.00    +0.021 A 
ATOM     24  C   UNL     1      -4.074  -2.837  23.180  0.00  0.00    +0.008 A 
ATOM     25  C   UNL     1      -2.775  -3.038  23.593  0.00  0.00    +0.046 A 
ENDBRANCH  18  21
TORSDOF 3
ENDMDL
