MODEL 1
REMARK VINA RESULT:       3.1      0.000      0.000
REMARK  Name = 11885878
REMARK  3 active torsions:
REMARK  status: ('A' for Active; 'I' for Inactive)
REMARK    1  A    between atoms: N_8  and  C_19
REMARK    2  A    between atoms: C_18  and  C_21
REMARK    3  A    between atoms: C_24  and  C_28
REMARK                            x       y       z     vdW  Elec       q    Type
REMARK                         _______ _______ _______ _____ _____    ______ ____
ROOT
ATOM      3  O   UNL     1       0.089   2.682  25.767  0.00  0.00    -0.266 OA
ATOM      4  O   UNL     1      -4.107   0.029  27.225  0.00  0.00    -0.270 OA
ATOM      6  N   UNL     1      -4.711   1.369  25.405  0.00  0.00    -0.297 N 
ATOM      7  N   UNL     1      -1.949   2.719  24.624  0.00  0.00    -0.310 N 
ATOM      9  C   UNL     1      -4.070   3.765  25.612  0.00  0.00    +0.027 C 
ATOM     10  C   UNL     1      -4.145   2.706  23.390  0.00  0.00    +0.054 C 
ATOM     11  C   UNL     1      -4.465   3.989  24.156  0.00  0.00    +0.018 C 
ATOM     12  C   UNL     1      -4.857   2.584  26.207  0.00  0.00    +0.113 C 
ATOM     13  C   UNL     1      -2.554   3.542  25.682  0.00  0.00    +0.130 C 
ATOM     14  C   UNL     1      -4.972   1.539  23.966  0.00  0.00    +0.117 C 
ATOM     15  C   UNL     1      -2.667   2.375  23.475  0.00  0.00    +0.027 A 
ATOM     16  C   UNL     1      -2.061   1.722  22.469  0.00  0.00    +0.024 A 
ATOM     17  C   UNL     1      -0.589   2.386  24.782  0.00  0.00    +0.273 A 
ATOM     18  C   UNL     1      -4.327   0.177  26.024  0.00  0.00    +0.247 C 
ATOM     19  C   UNL     1       0.043   1.633  23.651  0.00  0.00    +0.099 A 
ATOM     20  C   UNL     1      -0.679   1.345  22.563  0.00  0.00    +0.030 A 
ENDROOT
BRANCH  18  21
ATOM      1  F   UNL     1      -3.641  -4.344  22.808  0.00  0.00    -0.205 F 
ATOM     21  C   UNL     1      -4.147  -1.008  25.180  0.00  0.00    +0.037 A 
ATOM     22  C   UNL     1      -3.352  -2.061  25.626  0.00  0.00    +0.016 A 
ATOM     23  C   UNL     1      -4.773  -1.076  23.938  0.00  0.00    +0.016 A 
ATOM     25  C   UNL     1      -3.182  -3.190  24.824  0.00  0.00    +0.039 A 
ATOM     26  C   UNL     1      -4.601  -2.204  23.136  0.00  0.00    +0.039 A 
ATOM     27  C   UNL     1      -3.806  -3.261  23.578  0.00  0.00    +0.123 A 
ENDBRANCH  18  21
BRANCH  19   8
ATOM      5  O   UNL     1       1.393  -0.360  22.118  0.00  0.00    -0.270 OA
ATOM      8  N   UNL     1       1.353   1.276  23.772  0.00  0.00    -0.277 N 
ATOM     24  C   UNL     1       1.953   0.295  22.994  0.00  0.00    +0.248 C 
ATOM     34  H   UNL     1       1.834   1.669  24.574  0.00  0.00    +0.155 HD
BRANCH  24  28
ATOM      2  F   UNL     1       7.377  -0.592  23.981  0.00  0.00    -0.205 F 
ATOM     28  C   UNL     1       3.397   0.059  23.256  0.00  0.00    +0.037 A 
ATOM     29  C   UNL     1       4.288   1.089  23.047  0.00  0.00    +0.016 A 
ATOM     30  C   UNL     1       3.798  -1.184  23.702  0.00  0.00    +0.016 A 
ATOM     31  C   UNL     1       5.644   0.868  23.293  0.00  0.00    +0.039 A 
ATOM     32  C   UNL     1       5.152  -1.405  23.949  0.00  0.00    +0.039 A 
ATOM     33  C   UNL     1       6.075  -0.379  23.745  0.00  0.00    +0.123 A 
ENDBRANCH  24  28
ENDBRANCH  19   8
TORSDOF 3
ENDMDL
