MODEL 1
REMARK VINA RESULT:      -3.7      0.000      0.000
REMARK  Name = 11912444
REMARK  11 active torsions:
REMARK  status: ('A' for Active; 'I' for Inactive)
REMARK    1  A    between atoms: N_4  and  C_20
REMARK    2  A    between atoms: N_4  and  C_21
REMARK    3  A    between atoms: C_6  and  C_11
REMARK    4  A    between atoms: C_7  and  C_12
REMARK    5  A    between atoms: C_11  and  C_15
REMARK    6  A    between atoms: C_12  and  C_16
REMARK    7  A    between atoms: C_13  and  C_14
REMARK    8  A    between atoms: C_14  and  C_17
REMARK    9  A    between atoms: C_14  and  C_18
REMARK   10  A    between atoms: C_14  and  C_19
REMARK   11  A    between atoms: C_20  and  C_22
REMARK                            x       y       z     vdW  Elec       q    Type
REMARK                         _______ _______ _______ _____ _____    ______ ____
ROOT
ATOM      1  O   UNL     1      -1.236  -2.898  24.525  0.00  0.00    -0.275 OA
ATOM      3  N   UNL     1      -1.481  -0.588  24.597  0.00  0.00    -0.301 N 
ATOM      6  C   UNL     1       0.334   0.631  23.433  0.00  0.00    +0.010 C 
ATOM      7  C   UNL     1      -0.490   1.940  23.504  0.00  0.00    +0.004 C 
ATOM      8  C   UNL     1      -1.989   1.599  23.570  0.00  0.00    +0.023 C 
ATOM      9  C   UNL     1      -0.038  -0.338  24.565  0.00  0.00    +0.111 C 
ATOM     10  C   UNL     1      -2.319   0.614  24.692  0.00  0.00    +0.108 C 
ATOM     13  C   UNL     1      -1.956  -1.900  24.606  0.00  0.00    +0.221 C 
ENDROOT
BRANCH  13  14
ATOM     14  C   UNL     1      -3.449  -2.079  24.720  0.00  0.00    +0.039 C 
ATOM     17  C   UNL     1      -4.125  -1.344  23.561  0.00  0.00    +0.020 C 
ATOM     18  C   UNL     1      -3.772  -3.573  24.662  0.00  0.00    +0.020 C 
ATOM     19  C   UNL     1      -3.891  -1.488  26.059  0.00  0.00    +0.020 C 
ENDBRANCH  13  14
BRANCH   6  11
ATOM     11  C   UNL     1       1.843   0.874  23.407  0.00  0.00    +0.002 C 
ATOM     15  C   UNL     1       2.504   0.082  22.299  0.00  0.00    +0.004 C 
ENDBRANCH   6  11
BRANCH   7  12
ATOM     12  C   UNL     1      -0.088   2.869  24.656  0.00  0.00    +0.100 C 
BRANCH  12  16
ATOM      2  O   UNL     1       0.043   5.016  23.599  0.00  0.00    -0.276 OA
ATOM      4  N   UNL     1      -1.612   4.741  25.201  0.00  0.00    -0.291 N 
ATOM     16  C   UNL     1      -0.532   4.303  24.426  0.00  0.00    +0.216 C 
ATOM     21  C   UNL     1      -2.154   6.090  25.094  0.00  0.00    +0.133 C 
BRANCH   4  20
ATOM     20  C   UNL     1      -2.277   3.878  26.175  0.00  0.00    +0.226 C 
BRANCH  20  22
ATOM      5  N   UNL     1      -4.817   3.589  25.590  0.00  0.00    -0.195 NA
ATOM     22  C   UNL     1      -3.693   3.719  25.847  0.00  0.00    +0.082 C 
ENDBRANCH  20  22
ENDBRANCH   4  20
ENDBRANCH  12  16
ENDBRANCH   7  12
TORSDOF 6
ENDMDL
MODEL 2
REMARK VINA RESULT:      -2.6      2.486      5.724
REMARK  Name = 11912444
REMARK  11 active torsions:
REMARK  status: ('A' for Active; 'I' for Inactive)
REMARK    1  A    between atoms: N_4  and  C_20
REMARK    2  A    between atoms: N_4  and  C_21
REMARK    3  A    between atoms: C_6  and  C_11
REMARK    4  A    between atoms: C_7  and  C_12
REMARK    5  A    between atoms: C_11  and  C_15
REMARK    6  A    between atoms: C_12  and  C_16
REMARK    7  A    between atoms: C_13  and  C_14
REMARK    8  A    between atoms: C_14  and  C_17
REMARK    9  A    between atoms: C_14  and  C_18
REMARK   10  A    between atoms: C_14  and  C_19
REMARK   11  A    between atoms: C_20  and  C_22
REMARK                            x       y       z     vdW  Elec       q    Type
REMARK                         _______ _______ _______ _____ _____    ______ ____
ROOT
ATOM      1  O   UNL     1      -6.101   1.920  25.964  0.00  0.00    -0.275 OA
ATOM      3  N   UNL     1      -4.035   1.397  25.035  0.00  0.00    -0.301 N 
ATOM      6  C   UNL     1      -3.979  -0.833  23.956  0.00  0.00    +0.010 C 
ATOM      7  C   UNL     1      -2.625  -0.484  23.290  0.00  0.00    +0.004 C 
ATOM      8  C   UNL     1      -2.515   1.043  23.122  0.00  0.00    +0.023 C 
ATOM      9  C   UNL     1      -4.194  -0.043  25.256  0.00  0.00    +0.111 C 
ATOM     10  C   UNL     1      -2.759   1.796  24.429  0.00  0.00    +0.108 C 
ATOM     13  C   UNL     1      -5.034   2.276  25.457  0.00  0.00    +0.221 C 
ENDROOT
BRANCH  13  14
ATOM     14  C   UNL     1      -4.765   3.747  25.268  0.00  0.00    +0.039 C 
ATOM     17  C   UNL     1      -3.638   4.169  26.212  0.00  0.00    +0.020 C 
ATOM     18  C   UNL     1      -4.360   3.991  23.813  0.00  0.00    +0.020 C 
ATOM     19  C   UNL     1      -6.052   4.505  25.599  0.00  0.00    +0.020 C 
ENDBRANCH  13  14
BRANCH   6  11
ATOM     11  C   UNL     1      -4.157  -2.330  24.201  0.00  0.00    +0.002 C 
ATOM     15  C   UNL     1      -3.421  -2.771  25.448  0.00  0.00    +0.004 C 
ENDBRANCH   6  11
BRANCH   7  12
ATOM     12  C   UNL     1      -1.403  -1.043  24.029  0.00  0.00    +0.100 C 
BRANCH  12  16
ATOM      2  O   UNL     1      -0.829   0.471  25.797  0.00  0.00    -0.276 OA
ATOM      4  N   UNL     1       0.506   0.525  23.901  0.00  0.00    -0.291 N 
ATOM     16  C   UNL     1      -0.563   0.049  24.668  0.00  0.00    +0.216 C 
ATOM     21  C   UNL     1       1.405   1.571  24.376  0.00  0.00    +0.133 C 
BRANCH   4  20
ATOM     20  C   UNL     1       0.802   0.010  22.566  0.00  0.00    +0.226 C 
BRANCH  20  22
ATOM      5  N   UNL     1       3.368   0.179  22.052  0.00  0.00    -0.195 NA
ATOM     22  C   UNL     1       2.233   0.102  22.278  0.00  0.00    +0.082 C 
ENDBRANCH  20  22
ENDBRANCH   4  20
ENDBRANCH  12  16
ENDBRANCH   7  12
TORSDOF 6
ENDMDL
MODEL 3
REMARK VINA RESULT:      -2.4      2.237      5.148
REMARK  Name = 11912444
REMARK  11 active torsions:
REMARK  status: ('A' for Active; 'I' for Inactive)
REMARK    1  A    between atoms: N_4  and  C_20
REMARK    2  A    between atoms: N_4  and  C_21
REMARK    3  A    between atoms: C_6  and  C_11
REMARK    4  A    between atoms: C_7  and  C_12
REMARK    5  A    between atoms: C_11  and  C_15
REMARK    6  A    between atoms: C_12  and  C_16
REMARK    7  A    between atoms: C_13  and  C_14
REMARK    8  A    between atoms: C_14  and  C_17
REMARK    9  A    between atoms: C_14  and  C_18
REMARK   10  A    between atoms: C_14  and  C_19
REMARK   11  A    between atoms: C_20  and  C_22
REMARK                            x       y       z     vdW  Elec       q    Type
REMARK                         _______ _______ _______ _____ _____    ______ ____
ROOT
ATOM      1  O   UNL     1      -6.118   1.867  26.015  0.00  0.00    -0.275 OA
ATOM      3  N   UNL     1      -4.025   1.511  25.070  0.00  0.00    -0.301 N 
ATOM      6  C   UNL     1      -3.813  -0.690  23.951  0.00  0.00    +0.010 C 
ATOM      7  C   UNL     1      -2.491  -0.233  23.288  0.00  0.00    +0.004 C 
ATOM      8  C   UNL     1      -2.493   1.300  23.146  0.00  0.00    +0.023 C 
ATOM      9  C   UNL     1      -4.079   0.059  25.266  0.00  0.00    +0.111 C 
ATOM     10  C   UNL     1      -2.784   2.011  24.467  0.00  0.00    +0.108 C 
ATOM     13  C   UNL     1      -5.082   2.308  25.511  0.00  0.00    +0.221 C 
ENDROOT
BRANCH  13  14
ATOM     14  C   UNL     1      -4.921   3.798  25.347  0.00  0.00    +0.039 C 
ATOM     17  C   UNL     1      -4.499   4.093  23.906  0.00  0.00    +0.020 C 
ATOM     18  C   UNL     1      -6.256   4.475  25.658  0.00  0.00    +0.020 C 
ATOM     19  C   UNL     1      -3.843   4.264  26.327  0.00  0.00    +0.020 C 
ENDBRANCH  13  14
BRANCH   6  11
ATOM     11  C   UNL     1      -3.882  -2.201  24.171  0.00  0.00    +0.002 C 
ATOM     15  C   UNL     1      -3.369  -2.577  25.544  0.00  0.00    +0.004 C 
ENDBRANCH   6  11
BRANCH   7  12
ATOM     12  C   UNL     1      -1.229  -0.716  24.012  0.00  0.00    +0.100 C 
BRANCH  12  16
ATOM      2  O   UNL     1       0.472  -0.676  22.323  0.00  0.00    -0.276 OA
ATOM      4  N   UNL     1       0.673   0.866  24.045  0.00  0.00    -0.291 N 
ATOM     16  C   UNL     1       0.043  -0.187  23.372  0.00  0.00    +0.216 C 
ATOM     21  C   UNL     1       1.902   1.481  23.556  0.00  0.00    +0.133 C 
BRANCH   4  20
ATOM     20  C   UNL     1       0.147   1.429  25.286  0.00  0.00    +0.226 C 
BRANCH  20  22
ATOM      5  N   UNL     1      -0.253   4.010  25.050  0.00  0.00    -0.195 NA
ATOM     22  C   UNL     1      -0.075   2.868  25.152  0.00  0.00    +0.082 C 
ENDBRANCH  20  22
ENDBRANCH   4  20
ENDBRANCH  12  16
ENDBRANCH   7  12
TORSDOF 6
ENDMDL
MODEL 4
REMARK VINA RESULT:      -2.2      1.362      5.471
REMARK  Name = 11912444
REMARK  11 active torsions:
REMARK  status: ('A' for Active; 'I' for Inactive)
REMARK    1  A    between atoms: N_4  and  C_20
REMARK    2  A    between atoms: N_4  and  C_21
REMARK    3  A    between atoms: C_6  and  C_11
REMARK    4  A    between atoms: C_7  and  C_12
REMARK    5  A    between atoms: C_11  and  C_15
REMARK    6  A    between atoms: C_12  and  C_16
REMARK    7  A    between atoms: C_13  and  C_14
REMARK    8  A    between atoms: C_14  and  C_17
REMARK    9  A    between atoms: C_14  and  C_18
REMARK   10  A    between atoms: C_14  and  C_19
REMARK   11  A    between atoms: C_20  and  C_22
REMARK                            x       y       z     vdW  Elec       q    Type
REMARK                         _______ _______ _______ _____ _____    ______ ____
ROOT
ATOM      1  O   UNL     1      -0.246   4.478  23.579  0.00  0.00    -0.275 OA
ATOM      3  N   UNL     1      -0.942   2.325  24.111  0.00  0.00    -0.301 N 
ATOM      6  C   UNL     1       0.826   0.616  23.805  0.00  0.00    +0.010 C 
ATOM      7  C   UNL     1      -0.030  -0.418  24.578  0.00  0.00    +0.004 C 
ATOM      8  C   UNL     1      -0.968   0.319  25.550  0.00  0.00    +0.023 C 
ATOM      9  C   UNL     1      -0.045   1.692  23.140  0.00  0.00    +0.111 C 
ATOM     10  C   UNL     1      -1.800   1.399  24.859  0.00  0.00    +0.108 C 
ATOM     13  C   UNL     1      -0.977   3.716  24.217  0.00  0.00    +0.221 C 
ENDROOT
BRANCH  13  14
ATOM     14  C   UNL     1      -1.981   4.296  25.181  0.00  0.00    +0.039 C 
ATOM     17  C   UNL     1      -3.389   3.947  24.697  0.00  0.00    +0.020 C 
ATOM     18  C   UNL     1      -1.733   3.702  26.568  0.00  0.00    +0.020 C 
ATOM     19  C   UNL     1      -1.784   5.813  25.205  0.00  0.00    +0.020 C 
ENDBRANCH  13  14
BRANCH   6  11
ATOM     11  C   UNL     1       1.762  -0.026  22.782  0.00  0.00    +0.002 C 
ATOM     15  C   UNL     1       3.111   0.659  22.770  0.00  0.00    +0.004 C 
ENDBRANCH   6  11
BRANCH   7  12
ATOM     12  C   UNL     1      -0.817  -1.375  23.676  0.00  0.00    +0.100 C 
BRANCH  12  16
ATOM      2  O   UNL     1      -1.042  -3.236  25.171  0.00  0.00    -0.276 OA
ATOM      4  N   UNL     1      -3.006  -2.312  24.351  0.00  0.00    -0.291 N 
ATOM     16  C   UNL     1      -1.614  -2.396  24.470  0.00  0.00    +0.216 C 
ATOM     21  C   UNL     1      -3.906  -3.220  25.051  0.00  0.00    +0.133 C 
BRANCH   4  20
ATOM     20  C   UNL     1      -3.660  -1.309  23.514  0.00  0.00    +0.226 C 
BRANCH  20  22
ATOM      5  N   UNL     1      -5.002   0.396  24.988  0.00  0.00    -0.195 NA
ATOM     22  C   UNL     1      -4.410  -0.357  24.334  0.00  0.00    +0.082 C 
ENDBRANCH  20  22
ENDBRANCH   4  20
ENDBRANCH  12  16
ENDBRANCH   7  12
TORSDOF 6
ENDMDL
MODEL 5
REMARK VINA RESULT:      -2.1      2.741      5.603
REMARK  Name = 11912444
REMARK  11 active torsions:
REMARK  status: ('A' for Active; 'I' for Inactive)
REMARK    1  A    between atoms: N_4  and  C_20
REMARK    2  A    between atoms: N_4  and  C_21
REMARK    3  A    between atoms: C_6  and  C_11
REMARK    4  A    between atoms: C_7  and  C_12
REMARK    5  A    between atoms: C_11  and  C_15
REMARK    6  A    between atoms: C_12  and  C_16
REMARK    7  A    between atoms: C_13  and  C_14
REMARK    8  A    between atoms: C_14  and  C_17
REMARK    9  A    between atoms: C_14  and  C_18
REMARK   10  A    between atoms: C_14  and  C_19
REMARK   11  A    between atoms: C_20  and  C_22
REMARK                            x       y       z     vdW  Elec       q    Type
REMARK                         _______ _______ _______ _____ _____    ______ ____
ROOT
ATOM      1  O   UNL     1      -5.085   3.878  25.420  0.00  0.00    -0.275 OA
ATOM      3  N   UNL     1      -3.418   2.365  24.843  0.00  0.00    -0.301 N 
ATOM      6  C   UNL     1      -1.131   3.188  25.326  0.00  0.00    +0.010 C 
ATOM      7  C   UNL     1      -0.564   1.766  25.096  0.00  0.00    +0.004 C 
ATOM      8  C   UNL     1      -1.657   0.724  25.392  0.00  0.00    +0.023 C 
ATOM      9  C   UNL     1      -2.437   3.412  24.548  0.00  0.00    +0.111 C 
ATOM     10  C   UNL     1      -2.949   0.992  24.620  0.00  0.00    +0.108 C 
ATOM     13  C   UNL     1      -4.709   2.718  25.237  0.00  0.00    +0.221 C 
ENDROOT
BRANCH  13  14
ATOM     14  C   UNL     1      -5.686   1.588  25.447  0.00  0.00    +0.039 C 
ATOM     17  C   UNL     1      -6.825   1.726  24.435  0.00  0.00    +0.020 C 
ATOM     18  C   UNL     1      -4.954   0.260  25.246  0.00  0.00    +0.020 C 
ATOM     19  C   UNL     1      -6.224   1.692  26.875  0.00  0.00    +0.020 C 
ENDBRANCH  13  14
BRANCH   6  11
ATOM     11  C   UNL     1      -0.123   4.293  25.015  0.00  0.00    +0.002 C 
ATOM     15  C   UNL     1      -0.823   5.602  24.716  0.00  0.00    +0.004 C 
ENDBRANCH   6  11
BRANCH   7  12
ATOM     12  C   UNL     1       0.036   1.551  23.702  0.00  0.00    +0.100 C 
BRANCH  12  16
ATOM      2  O   UNL     1      -0.173  -0.837  23.695  0.00  0.00    -0.276 OA
ATOM      4  N   UNL     1       1.898   0.032  23.112  0.00  0.00    -0.291 N 
ATOM     16  C   UNL     1       0.560   0.139  23.508  0.00  0.00    +0.216 C 
ATOM     21  C   UNL     1       2.546  -1.254  22.885  0.00  0.00    +0.133 C 
BRANCH   4  20
ATOM     20  C   UNL     1       2.746   1.202  22.897  0.00  0.00    +0.226 C 
BRANCH  20  22
ATOM      5  N   UNL     1       5.276   0.585  23.207  0.00  0.00    -0.195 NA
ATOM     22  C   UNL     1       4.158   0.860  23.069  0.00  0.00    +0.082 C 
ENDBRANCH  20  22
ENDBRANCH   4  20
ENDBRANCH  12  16
ENDBRANCH   7  12
TORSDOF 6
ENDMDL
MODEL 6
REMARK VINA RESULT:      -2.0      2.781      5.994
REMARK  Name = 11912444
REMARK  11 active torsions:
REMARK  status: ('A' for Active; 'I' for Inactive)
REMARK    1  A    between atoms: N_4  and  C_20
REMARK    2  A    between atoms: N_4  and  C_21
REMARK    3  A    between atoms: C_6  and  C_11
REMARK    4  A    between atoms: C_7  and  C_12
REMARK    5  A    between atoms: C_11  and  C_15
REMARK    6  A    between atoms: C_12  and  C_16
REMARK    7  A    between atoms: C_13  and  C_14
REMARK    8  A    between atoms: C_14  and  C_17
REMARK    9  A    between atoms: C_14  and  C_18
REMARK   10  A    between atoms: C_14  and  C_19
REMARK   11  A    between atoms: C_20  and  C_22
REMARK                            x       y       z     vdW  Elec       q    Type
REMARK                         _______ _______ _______ _____ _____    ______ ____
ROOT
ATOM      1  O   UNL     1      -3.654   4.568  26.680  0.00  0.00    -0.275 OA
ATOM      3  N   UNL     1      -2.419   3.084  25.386  0.00  0.00    -0.301 N 
ATOM      6  C   UNL     1      -0.367   2.269  26.511  0.00  0.00    +0.010 C 
ATOM      7  C   UNL     1      -0.200   1.174  25.428  0.00  0.00    +0.004 C 
ATOM      8  C   UNL     1      -1.577   0.830  24.832  0.00  0.00    +0.023 C 
ATOM      9  C   UNL     1      -1.139   3.485  25.976  0.00  0.00    +0.111 C 
ATOM     10  C   UNL     1      -2.326   2.065  24.333  0.00  0.00    +0.108 C 
ATOM     13  C   UNL     1      -3.596   3.714  25.792  0.00  0.00    +0.221 C 
ENDROOT
BRANCH  13  14
ATOM     14  C   UNL     1      -4.863   3.304  25.084  0.00  0.00    +0.039 C 
ATOM     17  C   UNL     1      -5.257   1.900  25.549  0.00  0.00    +0.020 C 
ATOM     18  C   UNL     1      -5.966   4.306  25.427  0.00  0.00    +0.020 C 
ATOM     19  C   UNL     1      -4.583   3.310  23.580  0.00  0.00    +0.020 C 
ENDBRANCH  13  14
BRANCH   6  11
ATOM     11  C   UNL     1       0.959   2.706  27.131  0.00  0.00    +0.002 C 
ATOM     15  C   UNL     1       1.011   2.367  28.605  0.00  0.00    +0.004 C 
ENDBRANCH   6  11
BRANCH   7  12
ATOM     12  C   UNL     1       0.801   1.535  24.325  0.00  0.00    +0.100 C 
BRANCH  12  16
ATOM      2  O   UNL     1      -0.008  -0.327  23.050  0.00  0.00    -0.276 OA
ATOM      4  N   UNL     1       2.162   0.369  22.619  0.00  0.00    -0.291 N 
ATOM     16  C   UNL     1       0.931   0.440  23.280  0.00  0.00    +0.216 C 
ATOM     21  C   UNL     1       2.441  -0.626  21.590  0.00  0.00    +0.133 C 
BRANCH   4  20
ATOM     20  C   UNL     1       3.261   1.288  22.909  0.00  0.00    +0.226 C 
BRANCH  20  22
ATOM      5  N   UNL     1       5.482  -0.028  23.367  0.00  0.00    -0.195 NA
ATOM     22  C   UNL     1       4.500   0.554  23.162  0.00  0.00    +0.082 C 
ENDBRANCH  20  22
ENDBRANCH   4  20
ENDBRANCH  12  16
ENDBRANCH   7  12
TORSDOF 6
ENDMDL
MODEL 7
REMARK VINA RESULT:      -1.7      1.219      1.693
REMARK  Name = 11912444
REMARK  11 active torsions:
REMARK  status: ('A' for Active; 'I' for Inactive)
REMARK    1  A    between atoms: N_4  and  C_20
REMARK    2  A    between atoms: N_4  and  C_21
REMARK    3  A    between atoms: C_6  and  C_11
REMARK    4  A    between atoms: C_7  and  C_12
REMARK    5  A    between atoms: C_11  and  C_15
REMARK    6  A    between atoms: C_12  and  C_16
REMARK    7  A    between atoms: C_13  and  C_14
REMARK    8  A    between atoms: C_14  and  C_17
REMARK    9  A    between atoms: C_14  and  C_18
REMARK   10  A    between atoms: C_14  and  C_19
REMARK   11  A    between atoms: C_20  and  C_22
REMARK                            x       y       z     vdW  Elec       q    Type
REMARK                         _______ _______ _______ _____ _____    ______ ____
ROOT
ATOM      1  O   UNL     1      -1.152  -2.780  24.510  0.00  0.00    -0.275 OA
ATOM      3  N   UNL     1      -1.336  -0.464  24.579  0.00  0.00    -0.301 N 
ATOM      6  C   UNL     1       0.454   0.702  23.323  0.00  0.00    +0.010 C 
ATOM      7  C   UNL     1      -0.332   2.032  23.424  0.00  0.00    +0.004 C 
ATOM      8  C   UNL     1      -1.835   1.730  23.562  0.00  0.00    +0.023 C 
ATOM      9  C   UNL     1       0.111  -0.251  24.478  0.00  0.00    +0.111 C 
ATOM     10  C   UNL     1      -2.137   0.760  24.704  0.00  0.00    +0.108 C 
ATOM     13  C   UNL     1      -1.843  -1.763  24.618  0.00  0.00    +0.221 C 
ENDROOT
BRANCH  13  14
ATOM     14  C   UNL     1      -3.333  -1.903  24.802  0.00  0.00    +0.039 C 
ATOM     17  C   UNL     1      -3.721  -1.312  26.158  0.00  0.00    +0.020 C 
ATOM     18  C   UNL     1      -4.042  -1.154  23.673  0.00  0.00    +0.020 C 
ATOM     19  C   UNL     1      -3.673  -3.394  24.751  0.00  0.00    +0.020 C 
ENDBRANCH  13  14
BRANCH   6  11
ATOM     11  C   UNL     1       1.965   0.905  23.226  0.00  0.00    +0.002 C 
ATOM     15  C   UNL     1       2.580  -0.044  22.220  0.00  0.00    +0.004 C 
ENDBRANCH   6  11
BRANCH   7  12
ATOM     12  C   UNL     1       0.147   2.956  24.550  0.00  0.00    +0.100 C 
BRANCH  12  16
ATOM      2  O   UNL     1      -0.434   2.045  26.690  0.00  0.00    -0.276 OA
ATOM      4  N   UNL     1      -1.824   3.701  25.849  0.00  0.00    -0.291 N 
ATOM     16  C   UNL     1      -0.716   2.847  25.795  0.00  0.00    +0.216 C 
ATOM     21  C   UNL     1      -2.746   3.715  26.978  0.00  0.00    +0.133 C 
BRANCH   4  20
ATOM     20  C   UNL     1      -2.138   4.643  24.776  0.00  0.00    +0.226 C 
BRANCH  20  22
ATOM      5  N   UNL     1      -4.479   4.111  23.721  0.00  0.00    -0.195 NA
ATOM     22  C   UNL     1      -3.445   4.346  24.190  0.00  0.00    +0.082 C 
ENDBRANCH  20  22
ENDBRANCH   4  20
ENDBRANCH  12  16
ENDBRANCH   7  12
TORSDOF 6
ENDMDL
MODEL 8
REMARK VINA RESULT:      -1.6      1.883      2.728
REMARK  Name = 11912444
REMARK  11 active torsions:
REMARK  status: ('A' for Active; 'I' for Inactive)
REMARK    1  A    between atoms: N_4  and  C_20
REMARK    2  A    between atoms: N_4  and  C_21
REMARK    3  A    between atoms: C_6  and  C_11
REMARK    4  A    between atoms: C_7  and  C_12
REMARK    5  A    between atoms: C_11  and  C_15
REMARK    6  A    between atoms: C_12  and  C_16
REMARK    7  A    between atoms: C_13  and  C_14
REMARK    8  A    between atoms: C_14  and  C_17
REMARK    9  A    between atoms: C_14  and  C_18
REMARK   10  A    between atoms: C_14  and  C_19
REMARK   11  A    between atoms: C_20  and  C_22
REMARK                            x       y       z     vdW  Elec       q    Type
REMARK                         _______ _______ _______ _____ _____    ______ ____
ROOT
ATOM      1  O   UNL     1      -0.620  -2.188  24.915  0.00  0.00    -0.275 OA
ATOM      3  N   UNL     1      -2.016  -0.330  24.904  0.00  0.00    -0.301 N 
ATOM      6  C   UNL     1      -0.830   1.789  24.409  0.00  0.00    +0.010 C 
ATOM      7  C   UNL     1      -2.186   2.508  24.204  0.00  0.00    +0.004 C 
ATOM      8  C   UNL     1      -3.248   1.483  23.768  0.00  0.00    +0.023 C 
ATOM      9  C   UNL     1      -0.962   0.584  25.353  0.00  0.00    +0.111 C 
ATOM     10  C   UNL     1      -3.335   0.287  24.716  0.00  0.00    +0.108 C 
ATOM     13  C   UNL     1      -1.736  -1.689  24.753  0.00  0.00    +0.221 C 
ENDROOT
BRANCH  13  14
ATOM     14  C   UNL     1      -2.890  -2.578  24.364  0.00  0.00    +0.039 C 
ATOM     17  C   UNL     1      -3.490  -3.190  25.632  0.00  0.00    +0.020 C 
ATOM     18  C   UNL     1      -3.937  -1.737  23.633  0.00  0.00    +0.020 C 
ATOM     19  C   UNL     1      -2.347  -3.675  23.446  0.00  0.00    +0.020 C 
ENDBRANCH  13  14
BRANCH   6  11
ATOM     11  C   UNL     1       0.279   2.725  24.886  0.00  0.00    +0.002 C 
ATOM     15  C   UNL     1       0.475   2.622  26.383  0.00  0.00    +0.004 C 
ENDBRANCH   6  11
BRANCH   7  12
ATOM     12  C   UNL     1      -2.661   3.304  25.425  0.00  0.00    +0.100 C 
BRANCH  12  16
ATOM      2  O   UNL     1      -3.331   5.372  24.413  0.00  0.00    -0.276 OA
ATOM      4  N   UNL     1      -4.983   4.157  25.498  0.00  0.00    -0.291 N 
ATOM     16  C   UNL     1      -3.672   4.377  25.059  0.00  0.00    +0.216 C 
ATOM     21  C   UNL     1      -6.066   5.094  25.225  0.00  0.00    +0.133 C 
BRANCH   4  20
ATOM     20  C   UNL     1      -5.363   2.971  26.262  0.00  0.00    +0.226 C 
BRANCH  20  22
ATOM      5  N   UNL     1      -6.870   1.381  24.820  0.00  0.00    -0.195 NA
ATOM     22  C   UNL     1      -6.205   2.083  25.460  0.00  0.00    +0.082 C 
ENDBRANCH  20  22
ENDBRANCH   4  20
ENDBRANCH  12  16
ENDBRANCH   7  12
TORSDOF 6
ENDMDL
MODEL 9
REMARK VINA RESULT:      -1.5      1.167      1.921
REMARK  Name = 11912444
REMARK  11 active torsions:
REMARK  status: ('A' for Active; 'I' for Inactive)
REMARK    1  A    between atoms: N_4  and  C_20
REMARK    2  A    between atoms: N_4  and  C_21
REMARK    3  A    between atoms: C_6  and  C_11
REMARK    4  A    between atoms: C_7  and  C_12
REMARK    5  A    between atoms: C_11  and  C_15
REMARK    6  A    between atoms: C_12  and  C_16
REMARK    7  A    between atoms: C_13  and  C_14
REMARK    8  A    between atoms: C_14  and  C_17
REMARK    9  A    between atoms: C_14  and  C_18
REMARK   10  A    between atoms: C_14  and  C_19
REMARK   11  A    between atoms: C_20  and  C_22
REMARK                            x       y       z     vdW  Elec       q    Type
REMARK                         _______ _______ _______ _____ _____    ______ ____
ROOT
ATOM      1  O   UNL     1      -1.388  -3.069  24.593  0.00  0.00    -0.275 OA
ATOM      3  N   UNL     1      -1.330  -0.750  24.445  0.00  0.00    -0.301 N 
ATOM      6  C   UNL     1       0.603   0.106  23.153  0.00  0.00    +0.010 C 
ATOM      7  C   UNL     1      -0.042   1.512  23.106  0.00  0.00    +0.004 C 
ATOM      8  C   UNL     1      -1.572   1.378  23.218  0.00  0.00    +0.023 C 
ATOM      9  C   UNL     1       0.133  -0.696  24.376  0.00  0.00    +0.111 C 
ATOM     10  C   UNL     1      -2.002   0.554  24.431  0.00  0.00    +0.108 C 
ATOM     13  C   UNL     1      -1.971  -1.982  24.583  0.00  0.00    +0.221 C 
ENDROOT
BRANCH  13  14
ATOM     14  C   UNL     1      -3.471  -1.953  24.727  0.00  0.00    +0.039 C 
ATOM     17  C   UNL     1      -3.825  -1.363  26.094  0.00  0.00    +0.020 C 
ATOM     18  C   UNL     1      -4.057  -1.090  23.608  0.00  0.00    +0.020 C 
ATOM     19  C   UNL     1      -3.982  -3.390  24.617  0.00  0.00    +0.020 C 
ENDBRANCH  13  14
BRANCH   6  11
ATOM     11  C   UNL     1       2.130   0.144  23.091  0.00  0.00    +0.002 C 
ATOM     15  C   UNL     1       2.623  -0.034  21.671  0.00  0.00    +0.004 C 
ENDBRANCH   6  11
BRANCH   7  12
ATOM     12  C   UNL     1       0.501   2.484  24.160  0.00  0.00    +0.100 C 
BRANCH  12  16
ATOM      2  O   UNL     1      -0.049   4.627  23.237  0.00  0.00    -0.276 OA
ATOM      4  N   UNL     1      -1.095   4.047  25.225  0.00  0.00    -0.291 N 
ATOM     16  C   UNL     1      -0.228   3.816  24.151  0.00  0.00    +0.216 C 
ATOM     21  C   UNL     1      -1.866   5.277  25.357  0.00  0.00    +0.133 C 
BRANCH   4  20
ATOM     20  C   UNL     1      -1.290   3.072  26.296  0.00  0.00    +0.226 C 
BRANCH  20  22
ATOM      5  N   UNL     1       0.984   2.500  27.470  0.00  0.00    -0.195 NA
ATOM     22  C   UNL     1      -0.021   2.755  26.949  0.00  0.00    +0.082 C 
ENDBRANCH  20  22
ENDBRANCH   4  20
ENDBRANCH  12  16
ENDBRANCH   7  12
TORSDOF 6
ENDMDL
MODEL 10
REMARK VINA RESULT:      -1.3      2.318      5.027
REMARK  Name = 11912444
REMARK  11 active torsions:
REMARK  status: ('A' for Active; 'I' for Inactive)
REMARK    1  A    between atoms: N_4  and  C_20
REMARK    2  A    between atoms: N_4  and  C_21
REMARK    3  A    between atoms: C_6  and  C_11
REMARK    4  A    between atoms: C_7  and  C_12
REMARK    5  A    between atoms: C_11  and  C_15
REMARK    6  A    between atoms: C_12  and  C_16
REMARK    7  A    between atoms: C_13  and  C_14
REMARK    8  A    between atoms: C_14  and  C_17
REMARK    9  A    between atoms: C_14  and  C_18
REMARK   10  A    between atoms: C_14  and  C_19
REMARK   11  A    between atoms: C_20  and  C_22
REMARK                            x       y       z     vdW  Elec       q    Type
REMARK                         _______ _______ _______ _____ _____    ______ ____
ROOT
ATOM      1  O   UNL     1       2.909  -1.650  23.512  0.00  0.00    -0.275 OA
ATOM      3  N   UNL     1       1.149  -0.132  23.511  0.00  0.00    -0.301 N 
ATOM      6  C   UNL     1      -0.613  -0.667  25.170  0.00  0.00    +0.010 C 
ATOM      7  C   UNL     1      -1.241   0.734  24.964  0.00  0.00    +0.004 C 
ATOM      8  C   UNL     1      -0.154   1.719  24.497  0.00  0.00    +0.023 C 
ATOM      9  C   UNL     1       0.161  -1.131  23.926  0.00  0.00    +0.111 C 
ATOM     10  C   UNL     1       0.611   1.213  23.274  0.00  0.00    +0.108 C 
ATOM     13  C   UNL     1       2.476  -0.513  23.307  0.00  0.00    +0.221 C 
ENDROOT
BRANCH  13  14
ATOM     14  C   UNL     1       3.417   0.552  22.805  0.00  0.00    +0.039 C 
ATOM     17  C   UNL     1       2.834   1.925  23.141  0.00  0.00    +0.020 C 
ATOM     18  C   UNL     1       4.775   0.370  23.485  0.00  0.00    +0.020 C 
ATOM     19  C   UNL     1       3.551   0.383  21.290  0.00  0.00    +0.020 C 
ENDBRANCH  13  14
BRANCH   6  11
ATOM     11  C   UNL     1      -1.631  -1.724  25.594  0.00  0.00    +0.002 C 
ATOM     15  C   UNL     1      -1.996  -2.627  24.436  0.00  0.00    +0.004 C 
ENDBRANCH   6  11
BRANCH   7  12
ATOM     12  C   UNL     1      -2.439   0.746  24.008  0.00  0.00    +0.100 C 
BRANCH  12  16
ATOM      2  O   UNL     1      -4.301   0.007  25.325  0.00  0.00    -0.276 OA
ATOM      4  N   UNL     1      -4.293   2.238  24.689  0.00  0.00    -0.291 N 
ATOM     16  C   UNL     1      -3.758   0.946  24.736  0.00  0.00    +0.216 C 
ATOM     21  C   UNL     1      -5.550   2.587  25.339  0.00  0.00    +0.133 C 
BRANCH   4  20
ATOM     20  C   UNL     1      -3.631   3.334  23.984  0.00  0.00    +0.226 C 
BRANCH  20  22
ATOM      5  N   UNL     1      -2.083   4.689  25.610  0.00  0.00    -0.195 NA
ATOM     22  C   UNL     1      -2.770   4.091  24.892  0.00  0.00    +0.082 C 
ENDBRANCH  20  22
ENDBRANCH   4  20
ENDBRANCH  12  16
ENDBRANCH   7  12
TORSDOF 6
ENDMDL
