MODEL 1
REMARK VINA RESULT:       0.2      0.000      0.000
REMARK  Name = 40777150
REMARK  11 active torsions:
REMARK  status: ('A' for Active; 'I' for Inactive)
REMARK    1  A    between atoms: S_1  and  C_26
REMARK    2  A    between atoms: S_1  and  C_33
REMARK    3  A    between atoms: O_6  and  C_35
REMARK    4  A    between atoms: N_9  and  C_19
REMARK    5  A    between atoms: C_13  and  C_20
REMARK    6  A    between atoms: C_14  and  C_19
REMARK    7  A    between atoms: C_22  and  C_25
REMARK    8  A    between atoms: C_23  and  C_26
REMARK    9  A    between atoms: C_24  and  C_27
REMARK   10  A    between atoms: C_32  and  C_34
REMARK   11  A    between atoms: C_33  and  C_35
REMARK                            x       y       z     vdW  Elec       q    Type
REMARK                         _______ _______ _______ _____ _____    ______ ____
ROOT
ATOM      8  N   UNL     1      -4.508   3.467  25.831  0.00  0.00    -0.297 NA
ATOM     12  C   UNL     1      -5.403   1.551  24.310  0.00  0.00    +0.002 C 
ATOM     13  C   UNL     1      -4.443   0.983  25.392  0.00  0.00    +0.055 C 
ATOM     14  C   UNL     1      -4.334   3.830  24.401  0.00  0.00    +0.074 C 
ATOM     15  C   UNL     1      -4.665   2.629  23.488  0.00  0.00    +0.024 C 
ATOM     16  C   UNL     1      -6.551   2.260  25.061  0.00  0.00    +0.019 C 
ATOM     17  C   UNL     1      -3.799   2.195  26.122  0.00  0.00    +0.094 C 
ATOM     18  C   UNL     1      -5.956   3.255  26.073  0.00  0.00    +0.085 C 
ENDROOT
BRANCH  13  20
ATOM     10  N   UNL     1      -3.809  -1.339  24.957  0.00  0.00    -0.237 NA
ATOM     11  N   UNL     1      -1.599  -1.948  24.212  0.00  0.00    -0.232 NA
ATOM     20  C   UNL     1      -3.409  -0.050  24.965  0.00  0.00    +0.050 A 
ATOM     21  C   UNL     1      -2.140   0.362  24.615  0.00  0.00    +0.052 A 
ATOM     22  C   UNL     1      -1.268  -0.641  24.243  0.00  0.00    +0.075 A 
ATOM     24  C   UNL     1      -2.867  -2.222  24.575  0.00  0.00    +0.127 A 
ATOM     27  C   UNL     1      -3.269  -3.658  24.556  0.00  0.00    +0.088 C 
BRANCH  22  25
ATOM     25  C   UNL     1       0.090  -0.342  23.856  0.00  0.00    +0.000 A 
ATOM     28  C   UNL     1       1.046  -1.358  23.825  0.00  0.00    +0.010 A 
ATOM     29  C   UNL     1       0.447   0.962  23.511  0.00  0.00    +0.010 A 
ATOM     30  C   UNL     1       2.359  -1.070  23.451  0.00  0.00    +0.013 A 
ATOM     31  C   UNL     1       1.758   1.250  23.136  0.00  0.00    +0.013 A 
ATOM     32  C   UNL     1       2.715   0.234  23.106  0.00  0.00    +0.055 A 
BRANCH  32  34
ATOM      2  F   UNL     1       4.282   0.579  21.351  0.00  0.00    -0.166 F 
ATOM      3  F   UNL     1       4.565   1.750  23.161  0.00  0.00    -0.166 F 
ATOM      4  F   UNL     1       5.029  -0.368  23.160  0.00  0.00    -0.166 F 
ATOM     34  C   UNL     1       4.118   0.542  22.706  0.00  0.00    +0.417 C 
ENDBRANCH  32  34
ENDBRANCH  22  25
ENDBRANCH  13  20
BRANCH  14  19
ATOM     19  C   UNL     1      -2.945   4.401  24.110  0.00  0.00    +0.123 C 
BRANCH  19   9
ATOM      5  O   UNL     1      -0.327   5.220  25.035  0.00  0.00    -0.275 OA
ATOM      9  N   UNL     1      -1.923   3.568  24.668  0.00  0.00    -0.313 N 
ATOM     23  C   UNL     1      -0.684   4.044  25.092  0.00  0.00    +0.223 C 
ATOM     36  H   UNL     1      -2.122   2.576  24.749  0.00  0.00    +0.149 HD
BRANCH  23  26
ATOM     26  C   UNL     1       0.224   2.963  25.628  0.00  0.00    +0.165 C 
BRANCH  26   1
ATOM      1  S   UNL     1      -0.193   2.652  27.360  0.00  0.00    -0.140 S 
BRANCH   1  33
ATOM     33  C   UNL     1       1.477   2.706  28.054  0.00  0.00    +0.189 C 
BRANCH  33  35
ATOM      7  O   UNL     1       0.627   2.904  30.301  0.00  0.00    -0.250 OA
ATOM     35  C   UNL     1       1.418   2.389  29.521  0.00  0.00    +0.315 C 
BRANCH  35   6
ATOM      6  O   UNL     1       2.331   1.456  29.893  0.00  0.00    -0.480 OA
ATOM     37  H   UNL     1       3.240   1.823  29.918  0.00  0.00    +0.295 HD
ENDBRANCH  35   6
ENDBRANCH  33  35
ENDBRANCH   1  33
ENDBRANCH  26   1
ENDBRANCH  23  26
ENDBRANCH  19   9
ENDBRANCH  14  19
TORSDOF 10
ENDMDL
