MODEL 1
REMARK VINA RESULT:      -2.5      0.000      0.000
REMARK  Name = 11879618
REMARK  7 active torsions:
REMARK  status: ('A' for Active; 'I' for Inactive)
REMARK    1  A    between atoms: S_1  and  N_9
REMARK    2  A    between atoms: S_1  and  C_22
REMARK    3  A    between atoms: O_5  and  C_21
REMARK    4  A    between atoms: O_5  and  C_24
REMARK    5  A    between atoms: N_9  and  C_17
REMARK    6  A    between atoms: N_10  and  C_18
REMARK    7  A    between atoms: N_14  and  C_25
REMARK                            x       y       z     vdW  Elec       q    Type
REMARK                         _______ _______ _______ _____ _____    ______ ____
ROOT
ATOM     10  N   UNL     1      -1.550   3.532  24.760  0.00  0.00    -0.187 N 
ATOM     11  N   UNL     1      -0.524   4.158  24.176  0.00  0.00    -0.041 NA
ATOM     12  N   UNL     1      -1.687   5.579  25.438  0.00  0.00    -0.071 NA
ATOM     13  N   UNL     1      -0.612   5.413  24.594  0.00  0.00    -0.020 NA
ATOM     21  C   UNL     1      -2.254   4.398  25.525  0.00  0.00    +0.342 A 
ENDROOT
BRANCH  10  18
ATOM      3  O   UNL     1      -0.802  -0.019  25.148  0.00  0.00    -0.370 OA
ATOM      4  O   UNL     1      -1.235   1.354  22.337  0.00  0.00    -0.370 OA
ATOM     15  C   UNL     1      -0.091   1.091  23.165  0.00  0.00    +0.170 C 
ATOM     16  C   UNL     1      -0.513   1.283  24.610  0.00  0.00    +0.175 C 
ATOM     17  C   UNL     1       0.290  -0.367  23.078  0.00  0.00    +0.133 C 
ATOM     18  C   UNL     1      -1.787   2.104  24.535  0.00  0.00    +0.171 C 
ATOM     19  C   UNL     1      -0.582  -1.011  24.136  0.00  0.00    +0.183 C 
ATOM     20  C   UNL     1      -2.341   1.751  23.159  0.00  0.00    +0.190 C 
BRANCH  17   9
ATOM      9  N   UNL     1       1.719  -0.538  23.438  0.00  0.00    -0.182 NA
ATOM     36  H   UNL     1       2.004  -1.493  23.693  0.00  0.00    +0.149 HD
BRANCH   9   1
ATOM      1  S   UNL     1       2.862   0.476  22.671  0.00  0.00    +0.065 S 
ATOM      6  O   UNL     1       2.657   1.845  23.101  0.00  0.00    -0.153 OA
ATOM      7  O   UNL     1       2.925   0.129  21.265  0.00  0.00    -0.153 OA
BRANCH   1  22
ATOM      2  S   UNL     1       4.564  -1.579  23.863  0.00  0.00    -0.077 S 
ATOM     22  C   UNL     1       4.480   0.017  23.292  0.00  0.00    +0.142 A 
ATOM     23  C   UNL     1       5.644   0.702  23.389  0.00  0.00    +0.036 A 
ATOM     29  C   UNL     1       6.667  -0.107  23.960  0.00  0.00    +0.010 A 
ATOM     30  C   UNL     1       6.215  -1.372  24.265  0.00  0.00    +0.047 A 
ENDBRANCH   1  22
ENDBRANCH   9   1
ENDBRANCH  17   9
ENDBRANCH  10  18
BRANCH  21   5
ATOM      5  O   UNL     1      -3.324   4.087  26.233  0.00  0.00    -0.423 OA
BRANCH   5  24
ATOM     24  C   UNL     1      -4.243   3.133  25.818  0.00  0.00    +0.134 A 
ATOM     25  C   UNL     1      -4.745   0.872  25.221  0.00  0.00    +0.033 A 
ATOM     26  C   UNL     1      -3.822   1.829  25.638  0.00  0.00    +0.069 A 
ATOM     31  C   UNL     1      -5.552   3.515  25.596  0.00  0.00    +0.046 A 
ATOM     34  C   UNL     1      -6.072   1.234  24.991  0.00  0.00    +0.023 A 
ATOM     35  C   UNL     1      -6.476   2.556  25.179  0.00  0.00    +0.005 A 
BRANCH  25  14
ATOM      8  O   UNL     1      -3.272  -3.016  24.591  0.00  0.00    -0.377 OA
ATOM     14  N   UNL     1      -4.339  -0.454  25.031  0.00  0.00    -0.325 N 
ATOM     27  C   UNL     1      -3.364  -1.023  25.970  0.00  0.00    +0.133 C 
ATOM     28  C   UNL     1      -4.309  -1.022  23.678  0.00  0.00    +0.133 C 
ATOM     32  C   UNL     1      -3.437  -2.546  25.928  0.00  0.00    +0.178 C 
ATOM     33  C   UNL     1      -4.331  -2.545  23.759  0.00  0.00    +0.178 C 
ENDBRANCH  25  14
ENDBRANCH   5  24
ENDBRANCH  21   5
TORSDOF 7
ENDMDL
MODEL 2
REMARK VINA RESULT:      -0.4      1.650      4.624
REMARK  Name = 11879618
REMARK  7 active torsions:
REMARK  status: ('A' for Active; 'I' for Inactive)
REMARK    1  A    between atoms: S_1  and  N_9
REMARK    2  A    between atoms: S_1  and  C_22
REMARK    3  A    between atoms: O_5  and  C_21
REMARK    4  A    between atoms: O_5  and  C_24
REMARK    5  A    between atoms: N_9  and  C_17
REMARK    6  A    between atoms: N_10  and  C_18
REMARK    7  A    between atoms: N_14  and  C_25
REMARK                            x       y       z     vdW  Elec       q    Type
REMARK                         _______ _______ _______ _____ _____    ______ ____
ROOT
ATOM     10  N   UNL     1      -3.173  -1.583  24.637  0.00  0.00    -0.187 N 
ATOM     11  N   UNL     1      -2.918  -2.867  24.911  0.00  0.00    -0.041 NA
ATOM     12  N   UNL     1      -4.841  -2.673  23.800  0.00  0.00    -0.071 NA
ATOM     13  N   UNL     1      -3.944  -3.532  24.397  0.00  0.00    -0.020 NA
ATOM     21  C   UNL     1      -4.341  -1.470  23.962  0.00  0.00    +0.342 A 
ENDROOT
BRANCH  10  18
ATOM      3  O   UNL     1      -0.991   1.284  24.057  0.00  0.00    -0.370 OA
ATOM      4  O   UNL     1      -0.061  -1.303  25.611  0.00  0.00    -0.370 OA
ATOM     15  C   UNL     1      -0.014  -0.880  24.240  0.00  0.00    +0.170 C 
ATOM     16  C   UNL     1      -1.293  -0.118  23.948  0.00  0.00    +0.175 C 
ATOM     17  C   UNL     1       1.082   0.140  24.047  0.00  0.00    +0.133 C 
ATOM     18  C   UNL     1      -2.248  -0.527  25.054  0.00  0.00    +0.171 C 
ATOM     19  C   UNL     1       0.394   1.446  24.392  0.00  0.00    +0.183 C 
ATOM     20  C   UNL     1      -1.309  -0.905  26.194  0.00  0.00    +0.190 C 
BRANCH  17   9
ATOM      9  N   UNL     1       1.508   0.162  22.627  0.00  0.00    -0.182 NA
ATOM     36  H   UNL     1       0.764   0.342  21.940  0.00  0.00    +0.149 HD
BRANCH   9   1
ATOM      1  S   UNL     1       3.089   0.709  22.277  0.00  0.00    +0.065 S 
ATOM      6  O   UNL     1       3.256   2.058  22.782  0.00  0.00    -0.153 OA
ATOM      7  O   UNL     1       3.406   0.375  20.901  0.00  0.00    -0.153 OA
BRANCH   1  22
ATOM      2  S   UNL     1       5.601   0.536  23.761  0.00  0.00    -0.077 S 
ATOM     22  C   UNL     1       4.224  -0.301  23.228  0.00  0.00    +0.142 A 
ATOM     23  C   UNL     1       4.188  -1.603  23.601  0.00  0.00    +0.036 A 
ATOM     29  C   UNL     1       5.341  -1.948  24.362  0.00  0.00    +0.010 A 
ATOM     30  C   UNL     1       6.193  -0.878  24.524  0.00  0.00    +0.047 A 
ENDBRANCH   1  22
ENDBRANCH   9   1
ENDBRANCH  17   9
ENDBRANCH  10  18
BRANCH  21   5
ATOM      5  O   UNL     1      -4.868  -0.334  23.546  0.00  0.00    -0.423 OA
BRANCH   5  24
ATOM     24  C   UNL     1      -4.948   0.793  24.352  0.00  0.00    +0.134 A 
ATOM     25  C   UNL     1      -4.051   2.896  25.055  0.00  0.00    +0.033 A 
ATOM     26  C   UNL     1      -3.971   1.764  24.245  0.00  0.00    +0.069 A 
ATOM     31  C   UNL     1      -6.001   0.911  25.238  0.00  0.00    +0.046 A 
ATOM     34  C   UNL     1      -5.104   3.037  25.957  0.00  0.00    +0.023 A 
ATOM     35  C   UNL     1      -6.081   2.044  26.048  0.00  0.00    +0.005 A 
BRANCH  25  14
ATOM      8  O   UNL     1      -1.168   5.957  25.042  0.00  0.00    -0.377 OA
ATOM     14  N   UNL     1      -3.070   3.891  24.964  0.00  0.00    -0.325 N 
ATOM     27  C   UNL     1      -1.881   3.772  25.817  0.00  0.00    +0.133 C 
ATOM     28  C   UNL     1      -3.452   5.263  24.610  0.00  0.00    +0.133 C 
ATOM     32  C   UNL     1      -0.745   4.608  25.236  0.00  0.00    +0.178 C 
ATOM     33  C   UNL     1      -2.232   6.019  24.094  0.00  0.00    +0.178 C 
ENDBRANCH  25  14
ENDBRANCH   5  24
ENDBRANCH  21   5
TORSDOF 7
ENDMDL
MODEL 3
REMARK VINA RESULT:       0.1      2.625      4.686
REMARK  Name = 11879618
REMARK  7 active torsions:
REMARK  status: ('A' for Active; 'I' for Inactive)
REMARK    1  A    between atoms: S_1  and  N_9
REMARK    2  A    between atoms: S_1  and  C_22
REMARK    3  A    between atoms: O_5  and  C_21
REMARK    4  A    between atoms: O_5  and  C_24
REMARK    5  A    between atoms: N_9  and  C_17
REMARK    6  A    between atoms: N_10  and  C_18
REMARK    7  A    between atoms: N_14  and  C_25
REMARK                            x       y       z     vdW  Elec       q    Type
REMARK                         _______ _______ _______ _____ _____    ______ ____
ROOT
ATOM     10  N   UNL     1      -4.610   0.913  25.461  0.00  0.00    -0.187 N 
ATOM     11  N   UNL     1      -5.756   1.141  26.110  0.00  0.00    -0.041 NA
ATOM     12  N   UNL     1      -4.938   3.042  25.284  0.00  0.00    -0.071 NA
ATOM     13  N   UNL     1      -5.953   2.448  25.999  0.00  0.00    -0.020 NA
ATOM     21  C   UNL     1      -4.117   2.070  24.961  0.00  0.00    +0.342 A 
ENDROOT
BRANCH  10  18
ATOM      3  O   UNL     1      -2.115  -1.664  26.130  0.00  0.00    -0.370 OA
ATOM      4  O   UNL     1      -3.143  -0.974  23.225  0.00  0.00    -0.370 OA
ATOM     15  C   UNL     1      -2.051  -0.523  24.041  0.00  0.00    +0.170 C 
ATOM     16  C   UNL     1      -2.543  -0.457  25.475  0.00  0.00    +0.175 C 
ATOM     17  C   UNL     1      -0.958  -1.564  24.068  0.00  0.00    +0.133 C 
ATOM     18  C   UNL     1      -4.056  -0.439  25.364  0.00  0.00    +0.171 C 
ATOM     19  C   UNL     1      -1.384  -2.475  25.200  0.00  0.00    +0.183 C 
ATOM     20  C   UNL     1      -4.311  -1.148  24.039  0.00  0.00    +0.190 C 
BRANCH  17   9
ATOM      9  N   UNL     1       0.339  -0.926  24.404  0.00  0.00    -0.182 NA
ATOM     36  H   UNL     1       0.932  -1.442  25.066  0.00  0.00    +0.149 HD
BRANCH   9   1
ATOM      1  S   UNL     1       1.097   0.022  23.199  0.00  0.00    +0.065 S 
ATOM      6  O   UNL     1       0.912   1.427  23.503  0.00  0.00    -0.153 OA
ATOM      7  O   UNL     1       0.757  -0.518  21.897  0.00  0.00    -0.153 OA
BRANCH   1  22
ATOM      2  S   UNL     1       3.808   1.005  22.722  0.00  0.00    -0.077 S 
ATOM     22  C   UNL     1       2.861  -0.268  23.328  0.00  0.00    +0.142 A 
ATOM     23  C   UNL     1       3.578  -1.307  23.818  0.00  0.00    +0.036 A 
ATOM     29  C   UNL     1       4.976  -1.066  23.696  0.00  0.00    +0.010 A 
ATOM     30  C   UNL     1       5.241   0.156  23.117  0.00  0.00    +0.047 A 
ENDBRANCH   1  22
ENDBRANCH   9   1
ENDBRANCH  17   9
ENDBRANCH  10  18
BRANCH  21   5
ATOM      5  O   UNL     1      -2.998   2.180  24.268  0.00  0.00    -0.423 OA
BRANCH   5  24
ATOM     24  C   UNL     1      -1.934   2.967  24.685  0.00  0.00    +0.134 A 
ATOM     25  C   UNL     1      -0.165   3.391  26.239  0.00  0.00    +0.033 A 
ATOM     26  C   UNL     1      -1.234   2.600  25.819  0.00  0.00    +0.069 A 
ATOM     31  C   UNL     1      -1.605   4.093  23.956  0.00  0.00    +0.046 A 
ATOM     34  C   UNL     1       0.185   4.532  25.519  0.00  0.00    +0.023 A 
ATOM     35  C   UNL     1      -0.535   4.883  24.376  0.00  0.00    +0.005 A 
BRANCH  25  14
ATOM      8  O   UNL     1       2.075   2.102  29.556  0.00  0.00    -0.377 OA
ATOM     14  N   UNL     1       0.556   3.040  27.386  0.00  0.00    -0.325 N 
ATOM     27  C   UNL     1       2.019   2.963  27.289  0.00  0.00    +0.133 C 
ATOM     28  C   UNL     1      -0.051   2.158  28.390  0.00  0.00    +0.133 C 
ATOM     32  C   UNL     1       2.634   3.080  28.680  0.00  0.00    +0.178 C 
ATOM     33  C   UNL     1       0.674   2.319  29.721  0.00  0.00    +0.178 C 
ENDBRANCH  25  14
ENDBRANCH   5  24
ENDBRANCH  21   5
TORSDOF 7
ENDMDL
MODEL 4
REMARK VINA RESULT:       1.1      2.028      3.180
REMARK  Name = 11879618
REMARK  7 active torsions:
REMARK  status: ('A' for Active; 'I' for Inactive)
REMARK    1  A    between atoms: S_1  and  N_9
REMARK    2  A    between atoms: S_1  and  C_22
REMARK    3  A    between atoms: O_5  and  C_21
REMARK    4  A    between atoms: O_5  and  C_24
REMARK    5  A    between atoms: N_9  and  C_17
REMARK    6  A    between atoms: N_10  and  C_18
REMARK    7  A    between atoms: N_14  and  C_25
REMARK                            x       y       z     vdW  Elec       q    Type
REMARK                         _______ _______ _______ _____ _____    ______ ____
ROOT
ATOM     10  N   UNL     1      -3.284   3.992  25.995  0.00  0.00    -0.187 N 
ATOM     11  N   UNL     1      -3.808   3.988  27.225  0.00  0.00    -0.041 NA
ATOM     12  N   UNL     1      -5.410   3.752  25.693  0.00  0.00    -0.071 NA
ATOM     13  N   UNL     1      -5.113   3.841  27.035  0.00  0.00    -0.020 NA
ATOM     21  C   UNL     1      -4.260   3.849  25.068  0.00  0.00    +0.342 A 
ENDROOT
BRANCH  10  18
ATOM      3  O   UNL     1      -0.254   4.141  23.966  0.00  0.00    -0.370 OA
ATOM      4  O   UNL     1      -0.561   2.240  26.470  0.00  0.00    -0.370 OA
ATOM     15  C   UNL     1      -0.801   2.098  25.061  0.00  0.00    +0.170 C 
ATOM     16  C   UNL     1      -1.351   3.417  24.551  0.00  0.00    +0.175 C 
ATOM     17  C   UNL     1       0.507   1.928  24.326  0.00  0.00    +0.133 C 
ATOM     18  C   UNL     1      -1.840   4.137  25.793  0.00  0.00    +0.171 C 
ATOM     19  C   UNL     1       0.942   3.358  24.073  0.00  0.00    +0.183 C 
ATOM     20  C   UNL     1      -0.972   3.546  26.897  0.00  0.00    +0.190 C 
BRANCH  17   9
ATOM      9  N   UNL     1       0.273   1.243  23.031  0.00  0.00    -0.182 NA
ATOM     36  H   UNL     1       0.091   1.858  22.227  0.00  0.00    +0.149 HD
BRANCH   9   1
ATOM      1  S   UNL     1       1.079  -0.240  22.756  0.00  0.00    +0.065 S 
ATOM      6  O   UNL     1       0.945  -0.610  21.361  0.00  0.00    -0.153 OA
ATOM      7  O   UNL     1       0.731  -1.164  23.818  0.00  0.00    -0.153 OA
BRANCH   1  22
ATOM      2  S   UNL     1       3.644  -1.253  23.724  0.00  0.00    -0.077 S 
ATOM     22  C   UNL     1       2.829   0.053  23.009  0.00  0.00    +0.142 A 
ATOM     23  C   UNL     1       3.621   1.117  22.736  0.00  0.00    +0.036 A 
ATOM     29  C   UNL     1       4.967   0.866  23.128  0.00  0.00    +0.010 A 
ATOM     30  C   UNL     1       5.119  -0.387  23.680  0.00  0.00    +0.047 A 
ENDBRANCH   1  22
ENDBRANCH   9   1
ENDBRANCH  17   9
ENDBRANCH  10  18
BRANCH  21   5
ATOM      5  O   UNL     1      -4.066   3.814  23.763  0.00  0.00    -0.423 OA
BRANCH   5  24
ATOM     24  C   UNL     1      -3.583   2.689  23.109  0.00  0.00    +0.134 A 
ATOM     25  C   UNL     1      -3.129   0.340  23.105  0.00  0.00    +0.033 A 
ATOM     26  C   UNL     1      -3.614   1.470  23.761  0.00  0.00    +0.069 A 
ATOM     31  C   UNL     1      -3.087   2.819  21.827  0.00  0.00    +0.046 A 
ATOM     34  C   UNL     1      -2.623   0.447  21.810  0.00  0.00    +0.023 A 
ATOM     35  C   UNL     1      -2.603   1.687  21.170  0.00  0.00    +0.005 A 
BRANCH  25  14
ATOM      8  O   UNL     1      -3.359  -3.286  25.221  0.00  0.00    -0.377 OA
ATOM     14  N   UNL     1      -3.147  -0.903  23.747  0.00  0.00    -0.325 N 
ATOM     27  C   UNL     1      -4.404  -1.662  23.755  0.00  0.00    +0.133 C 
ATOM     28  C   UNL     1      -2.263  -1.147  24.893  0.00  0.00    +0.133 C 
ATOM     32  C   UNL     1      -4.115  -3.135  24.020  0.00  0.00    +0.178 C 
ATOM     33  C   UNL     1      -2.089  -2.648  25.097  0.00  0.00    +0.178 C 
ENDBRANCH  25  14
ENDBRANCH   5  24
ENDBRANCH  21   5
TORSDOF 7
ENDMDL
