MODEL 1
REMARK VINA RESULT:      -0.4      0.000      0.000
REMARK  Name = 9391205
REMARK  8 active torsions:
REMARK  status: ('A' for Active; 'I' for Inactive)
REMARK    1  A    between atoms: S_1  and  N_9
REMARK    2  A    between atoms: S_1  and  C_23
REMARK    3  A    between atoms: O_4  and  C_22
REMARK    4  A    between atoms: O_4  and  C_25
REMARK    5  A    between atoms: N_9  and  C_17
REMARK    6  A    between atoms: C_19  and  C_22
REMARK    7  A    between atoms: C_23  and  C_24
REMARK    8  A    between atoms: C_24  and  C_26
REMARK                            x       y       z     vdW  Elec       q    Type
REMARK                         _______ _______ _______ _____ _____    ______ ____
ROOT
ATOM      2  O   UNL     1      -1.518  -0.737  27.349  0.00  0.00    -0.268 OA
ATOM      3  O   UNL     1      -4.430   3.076  24.997  0.00  0.00    -0.272 OA
ATOM      7  N   UNL     1      -2.169   3.414  24.584  0.00  0.00    -0.298 N 
ATOM      8  N   UNL     1      -0.675   0.923  25.925  0.00  0.00    -0.310 N 
ATOM     10  C   UNL     1      -0.675   3.398  26.585  0.00  0.00    +0.027 C 
ATOM     11  C   UNL     1       0.209   2.714  24.395  0.00  0.00    +0.055 C 
ATOM     12  C   UNL     1       0.536   3.491  25.670  0.00  0.00    +0.018 C 
ATOM     13  C   UNL     1      -1.920   3.994  25.906  0.00  0.00    +0.113 C 
ATOM     14  C   UNL     1      -0.875   1.931  26.974  0.00  0.00    +0.130 C 
ATOM     15  C   UNL     1      -1.000   3.367  23.694  0.00  0.00    +0.117 C 
ATOM     16  C   UNL     1      -0.092   1.245  24.684  0.00  0.00    +0.049 A 
ATOM     17  C   UNL     1       0.145   0.246  23.807  0.00  0.00    +0.068 A 
ATOM     18  C   UNL     1      -1.019  -0.398  26.275  0.00  0.00    +0.252 A 
ATOM     19  C   UNL     1      -3.462   3.029  24.232  0.00  0.00    +0.253 C 
ATOM     20  C   UNL     1      -0.174  -1.121  24.104  0.00  0.00    +0.031 A 
ATOM     21  C   UNL     1      -0.737  -1.452  25.267  0.00  0.00    +0.072 A 
ENDROOT
BRANCH  17   9
ATOM      9  N   UNL     1       0.700   0.550  22.541  0.00  0.00    -0.219 N 
ATOM     32  H   UNL     1       0.065   0.531  21.737  0.00  0.00    +0.173 HD
BRANCH   9   1
ATOM      1  S   UNL     1       2.241  -0.108  22.249  0.00  0.00    +0.043 S 
ATOM      5  O   UNL     1       2.443  -1.277  23.085  0.00  0.00    -0.155 OA
ATOM      6  O   UNL     1       2.482  -0.157  20.821  0.00  0.00    -0.155 OA
BRANCH   1  23
ATOM     23  C   UNL     1       3.244   1.195  22.919  0.00  0.00    +0.188 C 
BRANCH  23  24
ATOM     24  C   UNL     1       4.724   0.878  22.785  0.00  0.00    +0.021 C 
ATOM     26  C   UNL     1       5.261   0.193  24.032  0.00  0.00    +0.005 C 
ENDBRANCH  23  24
ENDBRANCH   1  23
ENDBRANCH   9   1
ENDBRANCH  17   9
BRANCH  19  22
ATOM     22  C   UNL     1      -3.657   2.518  22.827  0.00  0.00    +0.324 C 
BRANCH  22   4
ATOM      4  O   UNL     1      -2.969   1.294  22.745  0.00  0.00    -0.483 OA
BRANCH   4  25
ATOM     25  C   UNL     1      -3.444   0.249  23.504  0.00  0.00    +0.121 A 
ATOM     27  C   UNL     1      -3.799   0.473  24.826  0.00  0.00    +0.045 A 
ATOM     28  C   UNL     1      -3.560  -1.010  22.934  0.00  0.00    +0.045 A 
ATOM     29  C   UNL     1      -4.281  -0.587  25.595  0.00  0.00    +0.004 A 
ATOM     30  C   UNL     1      -4.042  -2.069  23.703  0.00  0.00    +0.004 A 
ATOM     31  C   UNL     1      -4.402  -1.857  25.034  0.00  0.00    +0.000 A 
ENDBRANCH   4  25
ENDBRANCH  22   4
ENDBRANCH  19  22
TORSDOF 7
ENDMDL
MODEL 2
REMARK VINA RESULT:      -0.3      1.479      1.912
REMARK  Name = 9391205
REMARK  8 active torsions:
REMARK  status: ('A' for Active; 'I' for Inactive)
REMARK    1  A    between atoms: S_1  and  N_9
REMARK    2  A    between atoms: S_1  and  C_23
REMARK    3  A    between atoms: O_4  and  C_22
REMARK    4  A    between atoms: O_4  and  C_25
REMARK    5  A    between atoms: N_9  and  C_17
REMARK    6  A    between atoms: C_19  and  C_22
REMARK    7  A    between atoms: C_23  and  C_24
REMARK    8  A    between atoms: C_24  and  C_26
REMARK                            x       y       z     vdW  Elec       q    Type
REMARK                         _______ _______ _______ _____ _____    ______ ____
ROOT
ATOM      2  O   UNL     1      -0.372   2.542  28.208  0.00  0.00    -0.268 OA
ATOM      3  O   UNL     1      -5.025   3.684  25.842  0.00  0.00    -0.272 OA
ATOM      7  N   UNL     1      -3.295   3.735  24.292  0.00  0.00    -0.298 N 
ATOM      8  N   UNL     1      -0.679   2.843  25.904  0.00  0.00    -0.310 N 
ATOM     10  C   UNL     1      -1.310   5.118  24.910  0.00  0.00    +0.027 C 
ATOM     11  C   UNL     1      -1.031   3.172  23.434  0.00  0.00    +0.055 C 
ATOM     12  C   UNL     1      -0.585   4.615  23.673  0.00  0.00    +0.018 C 
ATOM     13  C   UNL     1      -2.834   5.060  24.712  0.00  0.00    +0.113 C 
ATOM     14  C   UNL     1      -0.851   4.287  26.110  0.00  0.00    +0.130 C 
ATOM     15  C   UNL     1      -2.550   3.143  23.171  0.00  0.00    +0.117 C 
ATOM     16  C   UNL     1      -0.693   2.268  24.617  0.00  0.00    +0.049 A 
ATOM     17  C   UNL     1      -0.435   0.948  24.501  0.00  0.00    +0.068 A 
ATOM     18  C   UNL     1      -0.409   2.088  27.063  0.00  0.00    +0.252 A 
ATOM     19  C   UNL     1      -4.415   3.169  24.901  0.00  0.00    +0.253 C 
ATOM     20  C   UNL     1      -0.145   0.124  25.640  0.00  0.00    +0.031 A 
ATOM     21  C   UNL     1      -0.137   0.641  26.870  0.00  0.00    +0.072 A 
ENDROOT
BRANCH  17   9
ATOM      9  N   UNL     1      -0.475   0.342  23.223  0.00  0.00    -0.219 N 
ATOM     32  H   UNL     1      -1.326  -0.176  22.979  0.00  0.00    +0.173 HD
BRANCH   9   1
ATOM      1  S   UNL     1       0.976  -0.393  22.724  0.00  0.00    +0.043 S 
ATOM      5  O   UNL     1       1.288  -1.509  23.597  0.00  0.00    -0.155 OA
ATOM      6  O   UNL     1       0.966  -0.548  21.283  0.00  0.00    -0.155 OA
BRANCH   1  23
ATOM     23  C   UNL     1       2.112   0.913  23.116  0.00  0.00    +0.188 C 
BRANCH  23  24
ATOM     24  C   UNL     1       3.431   0.738  22.383  0.00  0.00    +0.021 C 
ATOM     26  C   UNL     1       4.583   0.529  23.353  0.00  0.00    +0.005 C 
ENDBRANCH  23  24
ENDBRANCH   1  23
ENDBRANCH   9   1
ENDBRANCH  17   9
BRANCH  19  22
ATOM     22  C   UNL     1      -4.880   1.841  24.359  0.00  0.00    +0.324 C 
BRANCH  22   4
ATOM      4  O   UNL     1      -4.790   0.920  25.419  0.00  0.00    -0.483 OA
BRANCH   4  25
ATOM     25  C   UNL     1      -4.286  -0.328  25.132  0.00  0.00    +0.121 A 
ATOM     27  C   UNL     1      -3.514  -0.986  26.078  0.00  0.00    +0.045 A 
ATOM     28  C   UNL     1      -4.560  -0.906  23.902  0.00  0.00    +0.045 A 
ATOM     29  C   UNL     1      -3.005  -2.251  25.787  0.00  0.00    +0.004 A 
ATOM     30  C   UNL     1      -4.050  -2.171  23.610  0.00  0.00    +0.004 A 
ATOM     31  C   UNL     1      -3.272  -2.844  24.554  0.00  0.00    +0.000 A 
ENDBRANCH   4  25
ENDBRANCH  22   4
ENDBRANCH  19  22
TORSDOF 7
ENDMDL
MODEL 3
REMARK VINA RESULT:       0.6      1.686      3.353
REMARK  Name = 9391205
REMARK  8 active torsions:
REMARK  status: ('A' for Active; 'I' for Inactive)
REMARK    1  A    between atoms: S_1  and  N_9
REMARK    2  A    between atoms: S_1  and  C_23
REMARK    3  A    between atoms: O_4  and  C_22
REMARK    4  A    between atoms: O_4  and  C_25
REMARK    5  A    between atoms: N_9  and  C_17
REMARK    6  A    between atoms: C_19  and  C_22
REMARK    7  A    between atoms: C_23  and  C_24
REMARK    8  A    between atoms: C_24  and  C_26
REMARK                            x       y       z     vdW  Elec       q    Type
REMARK                         _______ _______ _______ _____ _____    ______ ____
ROOT
ATOM      2  O   UNL     1      -1.114   5.404  25.387  0.00  0.00    -0.268 OA
ATOM      3  O   UNL     1      -5.638   2.589  25.793  0.00  0.00    -0.272 OA
ATOM      7  N   UNL     1      -4.321   1.759  24.069  0.00  0.00    -0.298 N 
ATOM      8  N   UNL     1      -1.622   3.475  24.157  0.00  0.00    -0.310 N 
ATOM     10  C   UNL     1      -3.498   3.438  22.413  0.00  0.00    +0.027 C 
ATOM     11  C   UNL     1      -2.187   1.403  22.844  0.00  0.00    +0.055 C 
ATOM     12  C   UNL     1      -2.660   2.358  21.748  0.00  0.00    +0.018 C 
ATOM     13  C   UNL     1      -4.707   2.822  23.138  0.00  0.00    +0.113 C 
ATOM     14  C   UNL     1      -2.597   4.232  23.362  0.00  0.00    +0.130 C 
ATOM     15  C   UNL     1      -3.411   0.746  23.514  0.00  0.00    +0.117 C 
ATOM     16  C   UNL     1      -1.342   2.118  23.896  0.00  0.00    +0.049 A 
ATOM     17  C   UNL     1      -0.366   1.516  24.608  0.00  0.00    +0.068 A 
ATOM     18  C   UNL     1      -0.920   4.215  25.129  0.00  0.00    +0.252 A 
ATOM     19  C   UNL     1      -4.876   1.726  25.347  0.00  0.00    +0.253 C 
ATOM     20  C   UNL     1       0.391   2.214  25.607  0.00  0.00    +0.031 A 
ATOM     21  C   UNL     1       0.140   3.495  25.881  0.00  0.00    +0.072 A 
ENDROOT
BRANCH  17   9
ATOM      9  N   UNL     1      -0.090   0.146  24.387  0.00  0.00    -0.219 N 
ATOM     32  H   UNL     1      -0.063  -0.463  25.212  0.00  0.00    +0.173 HD
BRANCH   9   1
ATOM      1  S   UNL     1       1.110  -0.173  23.225  0.00  0.00    +0.043 S 
ATOM      5  O   UNL     1       1.893  -1.326  23.630  0.00  0.00    -0.155 OA
ATOM      6  O   UNL     1       0.531  -0.089  21.899  0.00  0.00    -0.155 OA
BRANCH   1  23
ATOM     23  C   UNL     1       2.129   1.261  23.458  0.00  0.00    +0.188 C 
BRANCH  23  24
ATOM     24  C   UNL     1       3.391   1.188  22.615  0.00  0.00    +0.021 C 
ATOM     26  C   UNL     1       4.541   0.564  23.389  0.00  0.00    +0.005 C 
ENDBRANCH  23  24
ENDBRANCH   1  23
ENDBRANCH   9   1
ENDBRANCH  17   9
BRANCH  19  22
ATOM     22  C   UNL     1      -4.496   0.557  26.220  0.00  0.00    +0.324 C 
BRANCH  22   4
ATOM      4  O   UNL     1      -4.843  -0.606  25.508  0.00  0.00    -0.483 OA
BRANCH   4  25
ATOM     25  C   UNL     1      -3.821  -1.449  25.135  0.00  0.00    +0.121 A 
ATOM     27  C   UNL     1      -4.033  -2.371  24.121  0.00  0.00    +0.045 A 
ATOM     28  C   UNL     1      -2.596  -1.360  25.779  0.00  0.00    +0.045 A 
ATOM     29  C   UNL     1      -2.996  -3.225  23.744  0.00  0.00    +0.004 A 
ATOM     30  C   UNL     1      -1.559  -2.213  25.402  0.00  0.00    +0.004 A 
ATOM     31  C   UNL     1      -1.760  -3.146  24.383  0.00  0.00    +0.000 A 
ENDBRANCH   4  25
ENDBRANCH  22   4
ENDBRANCH  19  22
TORSDOF 7
ENDMDL
MODEL 4
REMARK VINA RESULT:       0.8      2.016      6.062
REMARK  Name = 9391205
REMARK  8 active torsions:
REMARK  status: ('A' for Active; 'I' for Inactive)
REMARK    1  A    between atoms: S_1  and  N_9
REMARK    2  A    between atoms: S_1  and  C_23
REMARK    3  A    between atoms: O_4  and  C_22
REMARK    4  A    between atoms: O_4  and  C_25
REMARK    5  A    between atoms: N_9  and  C_17
REMARK    6  A    between atoms: C_19  and  C_22
REMARK    7  A    between atoms: C_23  and  C_24
REMARK    8  A    between atoms: C_24  and  C_26
REMARK                            x       y       z     vdW  Elec       q    Type
REMARK                         _______ _______ _______ _____ _____    ______ ____
ROOT
ATOM      2  O   UNL     1      -4.138   3.732  22.066  0.00  0.00    -0.268 OA
ATOM      3  O   UNL     1       1.088   3.127  23.004  0.00  0.00    -0.272 OA
ATOM      7  N   UNL     1      -0.110   3.002  24.990  0.00  0.00    -0.298 N 
ATOM      8  N   UNL     1      -3.189   3.202  24.142  0.00  0.00    -0.310 N 
ATOM     10  C   UNL     1      -1.717   4.864  25.420  0.00  0.00    +0.027 C 
ATOM     11  C   UNL     1      -2.150   2.635  26.363  0.00  0.00    +0.055 C 
ATOM     12  C   UNL     1      -2.219   4.134  26.656  0.00  0.00    +0.018 C 
ATOM     13  C   UNL     1      -0.271   4.454  25.092  0.00  0.00    +0.113 C 
ATOM     14  C   UNL     1      -2.678   4.573  24.265  0.00  0.00    +0.130 C 
ATOM     15  C   UNL     1      -0.684   2.232  26.103  0.00  0.00    +0.117 C 
ATOM     16  C   UNL     1      -3.014   2.248  25.165  0.00  0.00    +0.049 A 
ATOM     17  C   UNL     1      -3.594   1.038  25.020  0.00  0.00    +0.068 A 
ATOM     18  C   UNL     1      -3.943   2.932  22.982  0.00  0.00    +0.252 A 
ATOM     19  C   UNL     1       0.615   2.461  23.929  0.00  0.00    +0.253 C 
ATOM     20  C   UNL     1      -4.380   0.701  23.868  0.00  0.00    +0.031 A 
ATOM     21  C   UNL     1      -4.552   1.581  22.880  0.00  0.00    +0.072 A 
ENDROOT
BRANCH  17   9
ATOM      9  N   UNL     1      -3.405   0.053  26.019  0.00  0.00    -0.219 N 
ATOM     32  H   UNL     1      -3.454   0.363  26.995  0.00  0.00    +0.173 HD
BRANCH   9   1
ATOM      1  S   UNL     1      -2.185  -1.085  25.691  0.00  0.00    +0.043 S 
ATOM      5  O   UNL     1      -1.711  -0.921  24.329  0.00  0.00    -0.155 OA
ATOM      6  O   UNL     1      -1.260  -1.135  26.806  0.00  0.00    -0.155 OA
BRANCH   1  23
ATOM     23  C   UNL     1      -3.155  -2.571  25.733  0.00  0.00    +0.188 C 
BRANCH  23  24
ATOM     24  C   UNL     1      -3.338  -3.152  24.340  0.00  0.00    +0.021 C 
ATOM     26  C   UNL     1      -4.546  -2.550  23.640  0.00  0.00    +0.005 C 
ENDBRANCH  23  24
ENDBRANCH   1  23
ENDBRANCH   9   1
ENDBRANCH  17   9
BRANCH  19  22
ATOM     22  C   UNL     1       0.810   0.966  23.935  0.00  0.00    +0.324 C 
BRANCH  22   4
ATOM      4  O   UNL     1       1.645   0.664  22.844  0.00  0.00    -0.483 OA
BRANCH   4  25
ATOM     25  C   UNL     1       2.918   0.222  23.126  0.00  0.00    +0.121 A 
ATOM     27  C   UNL     1       3.109  -1.086  23.547  0.00  0.00    +0.045 A 
ATOM     28  C   UNL     1       3.988   1.093  22.983  0.00  0.00    +0.045 A 
ATOM     29  C   UNL     1       4.399  -1.533  23.831  0.00  0.00    +0.004 A 
ATOM     30  C   UNL     1       5.278   0.646  23.268  0.00  0.00    +0.004 A 
ATOM     31  C   UNL     1       5.483  -0.668  23.692  0.00  0.00    +0.000 A 
ENDBRANCH   4  25
ENDBRANCH  22   4
ENDBRANCH  19  22
TORSDOF 7
ENDMDL
MODEL 5
REMARK VINA RESULT:       1.2      2.588      5.254
REMARK  Name = 9391205
REMARK  8 active torsions:
REMARK  status: ('A' for Active; 'I' for Inactive)
REMARK    1  A    between atoms: S_1  and  N_9
REMARK    2  A    between atoms: S_1  and  C_23
REMARK    3  A    between atoms: O_4  and  C_22
REMARK    4  A    between atoms: O_4  and  C_25
REMARK    5  A    between atoms: N_9  and  C_17
REMARK    6  A    between atoms: C_19  and  C_22
REMARK    7  A    between atoms: C_23  and  C_24
REMARK    8  A    between atoms: C_24  and  C_26
REMARK                            x       y       z     vdW  Elec       q    Type
REMARK                         _______ _______ _______ _____ _____    ______ ____
ROOT
ATOM      2  O   UNL     1      -3.265   2.987  20.994  0.00  0.00    -0.268 OA
ATOM      3  O   UNL     1       0.091   4.784  24.745  0.00  0.00    -0.272 OA
ATOM      7  N   UNL     1      -1.803   3.865  25.727  0.00  0.00    -0.298 N 
ATOM      8  N   UNL     1      -3.543   2.707  23.305  0.00  0.00    -0.310 N 
ATOM     10  C   UNL     1      -3.996   4.689  24.862  0.00  0.00    +0.027 C 
ATOM     11  C   UNL     1      -3.825   2.418  25.789  0.00  0.00    +0.055 C 
ATOM     12  C   UNL     1      -4.712   3.661  25.723  0.00  0.00    +0.018 C 
ATOM     13  C   UNL     1      -2.627   5.048  25.464  0.00  0.00    +0.113 C 
ATOM     14  C   UNL     1      -3.876   4.130  23.443  0.00  0.00    +0.130 C 
ATOM     15  C   UNL     1      -2.483   2.783  26.456  0.00  0.00    +0.117 C 
ATOM     16  C   UNL     1      -3.571   1.826  24.405  0.00  0.00    +0.049 A 
ATOM     17  C   UNL     1      -3.345   0.514  24.182  0.00  0.00    +0.068 A 
ATOM     18  C   UNL     1      -3.288   2.264  21.992  0.00  0.00    +0.252 A 
ATOM     19  C   UNL     1      -0.459   3.864  25.358  0.00  0.00    +0.253 C 
ATOM     20  C   UNL     1      -3.085  -0.004  22.869  0.00  0.00    +0.031 A 
ATOM     21  C   UNL     1      -3.043   0.810  21.812  0.00  0.00    +0.072 A 
ENDROOT
BRANCH  17   9
ATOM      9  N   UNL     1      -3.335  -0.385  25.275  0.00  0.00    -0.219 N 
ATOM     32  H   UNL     1      -2.709  -0.162  26.056  0.00  0.00    +0.173 HD
BRANCH   9   1
ATOM      1  S   UNL     1      -3.398  -2.033  24.858  0.00  0.00    +0.043 S 
ATOM      5  O   UNL     1      -3.598  -2.834  26.051  0.00  0.00    -0.155 OA
ATOM      6  O   UNL     1      -4.240  -2.203  23.691  0.00  0.00    -0.155 OA
BRANCH   1  23
ATOM     23  C   UNL     1      -1.715  -2.267  24.345  0.00  0.00    +0.188 C 
BRANCH  23  24
ATOM     24  C   UNL     1      -0.741  -1.809  25.418  0.00  0.00    +0.021 C 
ATOM     26  C   UNL     1       0.501  -2.686  25.452  0.00  0.00    +0.005 C 
ENDBRANCH  23  24
ENDBRANCH   1  23
ENDBRANCH   9   1
ENDBRANCH  17   9
BRANCH  19  22
ATOM     22  C   UNL     1       0.345   2.646  25.735  0.00  0.00    +0.324 C 
BRANCH  22   4
ATOM      4  O   UNL     1      -0.096   1.599  24.906  0.00  0.00    -0.483 OA
BRANCH   4  25
ATOM     25  C   UNL     1       0.796   1.104  23.982  0.00  0.00    +0.121 A 
ATOM     27  C   UNL     1       2.072   1.642  23.911  0.00  0.00    +0.045 A 
ATOM     28  C   UNL     1       0.403   0.076  23.138  0.00  0.00    +0.045 A 
ATOM     29  C   UNL     1       2.976   1.140  22.975  0.00  0.00    +0.004 A 
ATOM     30  C   UNL     1       1.307  -0.426  22.202  0.00  0.00    +0.004 A 
ATOM     31  C   UNL     1       2.594   0.107  22.121  0.00  0.00    +0.000 A 
ENDBRANCH   4  25
ENDBRANCH  22   4
ENDBRANCH  19  22
TORSDOF 7
ENDMDL
MODEL 6
REMARK VINA RESULT:       1.7      2.103      6.662
REMARK  Name = 9391205
REMARK  8 active torsions:
REMARK  status: ('A' for Active; 'I' for Inactive)
REMARK    1  A    between atoms: S_1  and  N_9
REMARK    2  A    between atoms: S_1  and  C_23
REMARK    3  A    between atoms: O_4  and  C_22
REMARK    4  A    between atoms: O_4  and  C_25
REMARK    5  A    between atoms: N_9  and  C_17
REMARK    6  A    between atoms: C_19  and  C_22
REMARK    7  A    between atoms: C_23  and  C_24
REMARK    8  A    between atoms: C_24  and  C_26
REMARK                            x       y       z     vdW  Elec       q    Type
REMARK                         _______ _______ _______ _____ _____    ______ ____
ROOT
ATOM      2  O   UNL     1       0.483   2.322  27.662  0.00  0.00    -0.268 OA
ATOM      3  O   UNL     1       1.832  -1.517  24.199  0.00  0.00    -0.272 OA
ATOM      7  N   UNL     1      -0.443  -1.068  24.063  0.00  0.00    -0.298 N 
ATOM      8  N   UNL     1      -0.953   1.366  26.076  0.00  0.00    -0.310 N 
ATOM     10  C   UNL     1      -1.693  -1.082  26.225  0.00  0.00    +0.027 C 
ATOM     11  C   UNL     1      -2.480   0.325  24.368  0.00  0.00    +0.055 C 
ATOM     12  C   UNL     1      -2.938  -0.597  25.498  0.00  0.00    +0.018 C 
ATOM     13  C   UNL     1      -0.761  -1.842  25.265  0.00  0.00    +0.113 C 
ATOM     14  C   UNL     1      -1.006   0.127  26.863  0.00  0.00    +0.130 C 
ATOM     15  C   UNL     1      -1.602  -0.472  23.382  0.00  0.00    +0.117 C 
ATOM     16  C   UNL     1      -1.704   1.530  24.895  0.00  0.00    +0.049 A 
ATOM     17  C   UNL     1      -1.676   2.731  24.278  0.00  0.00    +0.068 A 
ATOM     18  C   UNL     1      -0.180   2.407  26.628  0.00  0.00    +0.252 A 
ATOM     19  C   UNL     1       0.874  -1.009  23.609  0.00  0.00    +0.253 C 
ATOM     20  C   UNL     1      -0.915   3.834  24.791  0.00  0.00    +0.031 A 
ATOM     21  C   UNL     1      -0.187   3.702  25.900  0.00  0.00    +0.072 A 
ENDROOT
BRANCH  17   9
ATOM      9  N   UNL     1      -2.396   2.909  23.073  0.00  0.00    -0.219 N 
ATOM     32  H   UNL     1      -1.858   3.190  22.246  0.00  0.00    +0.173 HD
BRANCH   9   1
ATOM      1  S   UNL     1      -3.905   3.675  23.237  0.00  0.00    +0.043 S 
ATOM      5  O   UNL     1      -3.791   4.798  24.150  0.00  0.00    -0.155 OA
ATOM      6  O   UNL     1      -4.512   3.831  21.930  0.00  0.00    -0.155 OA
BRANCH   1  23
ATOM     23  C   UNL     1      -4.789   2.394  24.091  0.00  0.00    +0.188 C 
BRANCH  23  24
ATOM     24  C   UNL     1      -5.195   2.837  25.486  0.00  0.00    +0.021 C 
ATOM     26  C   UNL     1      -6.137   1.836  26.135  0.00  0.00    +0.005 C 
ENDBRANCH  23  24
ENDBRANCH   1  23
ENDBRANCH   9   1
ENDBRANCH  17   9
BRANCH  19  22
ATOM     22  C   UNL     1       1.112  -0.264  22.320  0.00  0.00    +0.324 C 
BRANCH  22   4
ATOM      4  O   UNL     1       2.375  -0.668  21.849  0.00  0.00    -0.483 OA
BRANCH   4  25
ATOM     25  C   UNL     1       3.471  -0.328  22.608  0.00  0.00    +0.121 A 
ATOM     27  C   UNL     1       3.866   1.000  22.679  0.00  0.00    +0.045 A 
ATOM     28  C   UNL     1       4.162  -1.319  23.289  0.00  0.00    +0.045 A 
ATOM     29  C   UNL     1       4.977   1.344  23.449  0.00  0.00    +0.004 A 
ATOM     30  C   UNL     1       5.273  -0.975  24.059  0.00  0.00    +0.004 A 
ATOM     31  C   UNL     1       5.680   0.357  24.139  0.00  0.00    +0.000 A 
ENDBRANCH   4  25
ENDBRANCH  22   4
ENDBRANCH  19  22
TORSDOF 7
ENDMDL
MODEL 7
REMARK VINA RESULT:       2.1      2.978      5.909
REMARK  Name = 9391205
REMARK  8 active torsions:
REMARK  status: ('A' for Active; 'I' for Inactive)
REMARK    1  A    between atoms: S_1  and  N_9
REMARK    2  A    between atoms: S_1  and  C_23
REMARK    3  A    between atoms: O_4  and  C_22
REMARK    4  A    between atoms: O_4  and  C_25
REMARK    5  A    between atoms: N_9  and  C_17
REMARK    6  A    between atoms: C_19  and  C_22
REMARK    7  A    between atoms: C_23  and  C_24
REMARK    8  A    between atoms: C_24  and  C_26
REMARK                            x       y       z     vdW  Elec       q    Type
REMARK                         _______ _______ _______ _____ _____    ______ ____
ROOT
ATOM      2  O   UNL     1      -2.820   2.484  20.954  0.00  0.00    -0.268 OA
ATOM      3  O   UNL     1      -0.155   4.545  25.103  0.00  0.00    -0.272 OA
ATOM      7  N   UNL     1      -2.307   3.943  25.741  0.00  0.00    -0.298 N 
ATOM      8  N   UNL     1      -3.613   2.579  23.158  0.00  0.00    -0.310 N 
ATOM     10  C   UNL     1      -4.157   4.805  24.303  0.00  0.00    +0.027 C 
ATOM     11  C   UNL     1      -4.446   2.693  25.530  0.00  0.00    +0.055 C 
ATOM     12  C   UNL     1      -5.152   3.981  25.105  0.00  0.00    +0.018 C 
ATOM     13  C   UNL     1      -2.916   5.136  25.148  0.00  0.00    +0.113 C 
ATOM     14  C   UNL     1      -3.803   4.030  23.032  0.00  0.00    +0.130 C 
ATOM     15  C   UNL     1      -3.243   3.043  26.430  0.00  0.00    +0.117 C 
ATOM     16  C   UNL     1      -3.973   1.880  24.327  0.00  0.00    +0.049 A 
ATOM     17  C   UNL     1      -3.855   0.535  24.332  0.00  0.00    +0.068 A 
ATOM     18  C   UNL     1      -3.136   1.924  22.005  0.00  0.00    +0.252 A 
ATOM     19  C   UNL     1      -0.924   3.775  25.688  0.00  0.00    +0.253 C 
ATOM     20  C   UNL     1      -3.383  -0.194  23.190  0.00  0.00    +0.031 A 
ATOM     21  C   UNL     1      -3.025   0.444  22.075  0.00  0.00    +0.072 A 
ENDROOT
BRANCH  17   9
ATOM      9  N   UNL     1      -4.180  -0.186  25.506  0.00  0.00    -0.219 N 
ATOM     32  H   UNL     1      -4.548   0.352  26.297  0.00  0.00    +0.173 HD
BRANCH   9   1
ATOM      1  S   UNL     1      -3.081  -1.414  25.927  0.00  0.00    +0.043 S 
ATOM      5  O   UNL     1      -3.177  -1.694  27.348  0.00  0.00    -0.155 OA
ATOM      6  O   UNL     1      -3.150  -2.480  24.948  0.00  0.00    -0.155 OA
BRANCH   1  23
ATOM     23  C   UNL     1      -1.557  -0.542  25.666  0.00  0.00    +0.188 C 
BRANCH  23  24
ATOM     24  C   UNL     1      -0.590  -1.359  24.826  0.00  0.00    +0.021 C 
ATOM     26  C   UNL     1       0.185  -0.480  23.858  0.00  0.00    +0.005 C 
ENDBRANCH  23  24
ENDBRANCH   1  23
ENDBRANCH   9   1
ENDBRANCH  17   9
BRANCH  19  22
ATOM     22  C   UNL     1      -0.361   2.566  26.392  0.00  0.00    +0.324 C 
BRANCH  22   4
ATOM      4  O   UNL     1       0.983   2.860  26.686  0.00  0.00    -0.483 OA
BRANCH   4  25
ATOM     25  C   UNL     1       1.402   2.672  27.983  0.00  0.00    +0.121 A 
ATOM     27  C   UNL     1       2.753   2.771  28.284  0.00  0.00    +0.045 A 
ATOM     28  C   UNL     1       0.467   2.386  28.967  0.00  0.00    +0.045 A 
ATOM     29  C   UNL     1       3.177   2.581  29.599  0.00  0.00    +0.004 A 
ATOM     30  C   UNL     1       0.892   2.196  30.282  0.00  0.00    +0.004 A 
ATOM     31  C   UNL     1       2.248   2.293  30.598  0.00  0.00    +0.000 A 
ENDBRANCH   4  25
ENDBRANCH  22   4
ENDBRANCH  19  22
TORSDOF 7
ENDMDL
MODEL 8
REMARK VINA RESULT:       2.8      2.820      5.507
REMARK  Name = 9391205
REMARK  8 active torsions:
REMARK  status: ('A' for Active; 'I' for Inactive)
REMARK    1  A    between atoms: S_1  and  N_9
REMARK    2  A    between atoms: S_1  and  C_23
REMARK    3  A    between atoms: O_4  and  C_22
REMARK    4  A    between atoms: O_4  and  C_25
REMARK    5  A    between atoms: N_9  and  C_17
REMARK    6  A    between atoms: C_19  and  C_22
REMARK    7  A    between atoms: C_23  and  C_24
REMARK    8  A    between atoms: C_24  and  C_26
REMARK                            x       y       z     vdW  Elec       q    Type
REMARK                         _______ _______ _______ _____ _____    ______ ____
ROOT
ATOM      2  O   UNL     1      -2.262   1.518  20.643  0.00  0.00    -0.268 OA
ATOM      3  O   UNL     1      -2.149  -2.789  23.804  0.00  0.00    -0.272 OA
ATOM      7  N   UNL     1      -1.084  -1.000  24.835  0.00  0.00    -0.298 N 
ATOM      8  N   UNL     1      -1.451   1.475  22.842  0.00  0.00    -0.310 N 
ATOM     10  C   UNL     1       0.657   0.168  23.480  0.00  0.00    +0.027 C 
ATOM     11  C   UNL     1      -0.584   1.407  25.203  0.00  0.00    +0.055 C 
ATOM     12  C   UNL     1       0.797   1.213  24.575  0.00  0.00    +0.018 C 
ATOM     13  C   UNL     1       0.145  -1.163  24.056  0.00  0.00    +0.113 C 
ATOM     14  C   UNL     1      -0.269   0.725  22.397  0.00  0.00    +0.130 C 
ATOM     15  C   UNL     1      -1.050   0.079  25.833  0.00  0.00    +0.117 C 
ATOM     16  C   UNL     1      -1.612   1.885  24.180  0.00  0.00    +0.049 A 
ATOM     17  C   UNL     1      -2.678   2.652  24.493  0.00  0.00    +0.068 A 
ATOM     18  C   UNL     1      -2.362   1.837  21.829  0.00  0.00    +0.252 A 
ATOM     19  C   UNL     1      -2.142  -1.889  24.649  0.00  0.00    +0.253 C 
ATOM     20  C   UNL     1      -3.639   3.061  23.509  0.00  0.00    +0.031 A 
ATOM     21  C   UNL     1      -3.516   2.678  22.237  0.00  0.00    +0.072 A 
ENDROOT
BRANCH  17   9
ATOM      9  N   UNL     1      -2.879   3.048  25.836  0.00  0.00    -0.219 N 
ATOM     32  H   UNL     1      -3.258   2.344  26.479  0.00  0.00    +0.173 HD
BRANCH   9   1
ATOM      1  S   UNL     1      -3.509   4.614  26.043  0.00  0.00    +0.043 S 
ATOM      5  O   UNL     1      -4.793   4.721  25.376  0.00  0.00    -0.155 OA
ATOM      6  O   UNL     1      -3.346   5.020  27.425  0.00  0.00    -0.155 OA
BRANCH   1  23
ATOM     23  C   UNL     1      -2.336   5.528  25.073  0.00  0.00    +0.188 C 
BRANCH  23  24
ATOM     24  C   UNL     1      -0.927   4.988  25.256  0.00  0.00    +0.021 C 
ATOM     26  C   UNL     1      -0.151   5.005  23.948  0.00  0.00    +0.005 C 
ENDBRANCH  23  24
ENDBRANCH   1  23
ENDBRANCH   9   1
ENDBRANCH  17   9
BRANCH  19  22
ATOM     22  C   UNL     1      -3.341  -1.711  25.545  0.00  0.00    +0.324 C 
BRANCH  22   4
ATOM      4  O   UNL     1      -4.396  -1.273  24.724  0.00  0.00    -0.483 OA
BRANCH   4  25
ATOM     25  C   UNL     1      -5.053  -0.123  25.097  0.00  0.00    +0.121 A 
ATOM     27  C   UNL     1      -5.877   0.519  24.184  0.00  0.00    +0.045 A 
ATOM     28  C   UNL     1      -4.880   0.375  26.380  0.00  0.00    +0.045 A 
ATOM     29  C   UNL     1      -6.543   1.684  24.562  0.00  0.00    +0.004 A 
ATOM     30  C   UNL     1      -5.546   1.541  26.758  0.00  0.00    +0.004 A 
ATOM     31  C   UNL     1      -6.378   2.195  25.849  0.00  0.00    +0.000 A 
ENDBRANCH   4  25
ENDBRANCH  22   4
ENDBRANCH  19  22
TORSDOF 7
ENDMDL
MODEL 9
REMARK VINA RESULT:       2.9      2.455      5.049
REMARK  Name = 9391205
REMARK  8 active torsions:
REMARK  status: ('A' for Active; 'I' for Inactive)
REMARK    1  A    between atoms: S_1  and  N_9
REMARK    2  A    between atoms: S_1  and  C_23
REMARK    3  A    between atoms: O_4  and  C_22
REMARK    4  A    between atoms: O_4  and  C_25
REMARK    5  A    between atoms: N_9  and  C_17
REMARK    6  A    between atoms: C_19  and  C_22
REMARK    7  A    between atoms: C_23  and  C_24
REMARK    8  A    between atoms: C_24  and  C_26
REMARK                            x       y       z     vdW  Elec       q    Type
REMARK                         _______ _______ _______ _____ _____    ______ ____
ROOT
ATOM      2  O   UNL     1       0.657  -0.876  21.871  0.00  0.00    -0.268 OA
ATOM      3  O   UNL     1      -4.172  -2.810  23.097  0.00  0.00    -0.272 OA
ATOM      7  N   UNL     1      -3.108  -2.021  25.006  0.00  0.00    -0.298 N 
ATOM      8  N   UNL     1      -0.350  -0.760  23.985  0.00  0.00    -0.310 N 
ATOM     10  C   UNL     1      -0.787  -2.857  25.391  0.00  0.00    +0.027 C 
ATOM     11  C   UNL     1      -1.448  -0.649  26.247  0.00  0.00    +0.055 C 
ATOM     12  C   UNL     1      -0.653  -1.913  26.575  0.00  0.00    +0.018 C 
ATOM     13  C   UNL     1      -2.262  -3.209  25.138  0.00  0.00    +0.113 C 
ATOM     14  C   UNL     1      -0.131  -2.200  24.174  0.00  0.00    +0.130 C 
ATOM     15  C   UNL     1      -2.935  -1.013  26.062  0.00  0.00    +0.117 C 
ATOM     16  C   UNL     1      -0.924   0.043  24.990  0.00  0.00    +0.049 A 
ATOM     17  C   UNL     1      -1.006   1.374  24.779  0.00  0.00    +0.068 A 
ATOM     18  C   UNL     1       0.135  -0.222  22.776  0.00  0.00    +0.252 A 
ATOM     19  C   UNL     1      -4.044  -1.951  23.975  0.00  0.00    +0.253 C 
ATOM     20  C   UNL     1      -0.525   1.987  23.574  0.00  0.00    +0.031 A 
ATOM     21  C   UNL     1       0.012   1.248  22.602  0.00  0.00    +0.072 A 
ENDROOT
BRANCH  17   9
ATOM      9  N   UNL     1      -1.609   2.197  25.760  0.00  0.00    -0.219 N 
ATOM     32  H   UNL     1      -2.617   2.084  25.909  0.00  0.00    +0.173 HD
BRANCH   9   1
ATOM      1  S   UNL     1      -1.059   3.806  25.792  0.00  0.00    +0.043 S 
ATOM      5  O   UNL     1      -0.722   4.238  24.448  0.00  0.00    -0.155 OA
ATOM      6  O   UNL     1      -1.932   4.597  26.636  0.00  0.00    -0.155 OA
BRANCH   1  23
ATOM     23  C   UNL     1       0.468   3.574  26.667  0.00  0.00    +0.188 C 
BRANCH  23  24
ATOM     24  C   UNL     1       0.393   2.379  27.602  0.00  0.00    +0.021 C 
ATOM     26  C   UNL     1       1.341   2.534  28.781  0.00  0.00    +0.005 C 
ENDBRANCH  23  24
ENDBRANCH   1  23
ENDBRANCH   9   1
ENDBRANCH  17   9
BRANCH  19  22
ATOM     22  C   UNL     1      -4.936  -0.735  23.952  0.00  0.00    +0.324 C 
BRANCH  22   4
ATOM      4  O   UNL     1      -4.109   0.365  23.662  0.00  0.00    -0.483 OA
BRANCH   4  25
ATOM     25  C   UNL     1      -4.453   1.578  24.215  0.00  0.00    +0.121 A 
ATOM     27  C   UNL     1      -5.227   1.608  25.366  0.00  0.00    +0.045 A 
ATOM     28  C   UNL     1      -4.018   2.749  23.613  0.00  0.00    +0.045 A 
ATOM     29  C   UNL     1      -5.575   2.837  25.926  0.00  0.00    +0.004 A 
ATOM     30  C   UNL     1      -4.366   3.978  24.173  0.00  0.00    +0.004 A 
ATOM     31  C   UNL     1      -5.144   4.021  25.330  0.00  0.00    +0.000 A 
ENDBRANCH   4  25
ENDBRANCH  22   4
ENDBRANCH  19  22
TORSDOF 7
ENDMDL
