MODEL 1
REMARK VINA RESULT:      -4.5      0.000      0.000
REMARK  Name = 51137592
REMARK  6 active torsions:
REMARK  status: ('A' for Active; 'I' for Inactive)
REMARK    1  A    between atoms: O_4  and  C_18
REMARK    2  A    between atoms: O_4  and  C_22
REMARK    3  A    between atoms: N_5  and  C_12
REMARK    4  A    between atoms: C_8  and  C_13
REMARK    5  A    between atoms: C_12  and  C_14
REMARK    6  A    between atoms: C_15  and  C_18
REMARK                            x       y       z     vdW  Elec       q    Type
REMARK                         _______ _______ _______ _____ _____    ______ ____
ROOT
ATOM      3  O   UNL     1      15.609  -7.418  27.485  0.00  0.00    -0.421 OA
ATOM      6  N   UNL     1      16.561  -7.004  29.466  0.00  0.00    -0.112 NA
ATOM      7  N   UNL     1      17.127  -6.154  28.534  0.00  0.00    -0.109 NA
ATOM     13  C   UNL     1      15.681  -7.723  28.809  0.00  0.00    +0.222 A 
ATOM     15  C   UNL     1      16.541  -6.431  27.393  0.00  0.00    +0.254 A 
ENDROOT
BRANCH  13   8
ATOM      5  N   UNL     1      13.468  -9.463  31.155  0.00  0.00    -0.297 NA
ATOM      8  C   UNL     1      14.761  -8.812  29.310  0.00  0.00    +0.092 C 
ATOM      9  C   UNL     1      15.464  -9.962  30.051  0.00  0.00    +0.029 C 
ATOM     10  C   UNL     1      13.708  -8.298  30.301  0.00  0.00    +0.097 C 
ATOM     11  C   UNL     1      14.797 -10.017  31.419  0.00  0.00    +0.085 C 
BRANCH   5  12
ATOM     12  C   UNL     1      12.759  -9.118  32.379  0.00  0.00    +0.121 C 
BRANCH  12  14
ATOM      1 CL   UNL     1      11.022  -6.589  32.729  0.00  0.00    -0.083 Cl
ATOM     14  C   UNL     1      11.269  -9.255  32.221  0.00  0.00    -0.015 A 
ATOM     16  C   UNL     1      10.414  -8.162  32.364  0.00  0.00    +0.045 A 
ATOM     17  C   UNL     1      10.747 -10.515  31.925  0.00  0.00    +0.006 A 
ATOM     19  C   UNL     1       9.037  -8.329  32.210  0.00  0.00    +0.020 A 
ATOM     20  C   UNL     1       9.371 -10.681  31.772  0.00  0.00    +0.000 A 
ATOM     21  C   UNL     1       8.516  -9.588  31.914  0.00  0.00    +0.001 A 
ENDBRANCH  12  14
ENDBRANCH   5  12
ENDBRANCH  13   8
BRANCH  15  18
ATOM     18  C   UNL     1      16.749  -5.835  26.066  0.00  0.00    +0.326 C 
BRANCH  18   4
ATOM      4  O   UNL     1      17.405  -4.571  26.189  0.00  0.00    -0.483 OA
BRANCH   4  22
ATOM      2  F   UNL     1      16.264  -0.837  22.321  0.00  0.00    -0.205 F 
ATOM     22  C   UNL     1      17.122  -3.642  25.227  0.00  0.00    +0.121 A 
ATOM     23  C   UNL     1      16.662  -4.052  23.976  0.00  0.00    +0.048 A 
ATOM     24  C   UNL     1      17.292  -2.284  25.497  0.00  0.00    +0.048 A 
ATOM     25  C   UNL     1      16.374  -3.105  22.993  0.00  0.00    +0.042 A 
ATOM     26  C   UNL     1      17.003  -1.337  24.515  0.00  0.00    +0.042 A 
ATOM     27  C   UNL     1      16.544  -1.747  23.263  0.00  0.00    +0.124 A 
ENDBRANCH   4  22
ENDBRANCH  18   4
ENDBRANCH  15  18
TORSDOF 6
ENDMDL
MODEL 2
REMARK VINA RESULT:      -4.0     26.144     28.283
REMARK  Name = 51137592
REMARK  6 active torsions:
REMARK  status: ('A' for Active; 'I' for Inactive)
REMARK    1  A    between atoms: O_4  and  C_18
REMARK    2  A    between atoms: O_4  and  C_22
REMARK    3  A    between atoms: N_5  and  C_12
REMARK    4  A    between atoms: C_8  and  C_13
REMARK    5  A    between atoms: C_12  and  C_14
REMARK    6  A    between atoms: C_15  and  C_18
REMARK                            x       y       z     vdW  Elec       q    Type
REMARK                         _______ _______ _______ _____ _____    ______ ____
ROOT
ATOM      3  O   UNL     1      -8.549  -9.596  10.708  0.00  0.00    -0.421 OA
ATOM      6  N   UNL     1      -9.472  -8.951   8.774  0.00  0.00    -0.112 NA
ATOM      7  N   UNL     1     -10.492  -9.181   9.679  0.00  0.00    -0.109 NA
ATOM     13  C   UNL     1      -8.357  -9.206   9.418  0.00  0.00    +0.222 A 
ATOM     15  C   UNL     1      -9.907  -9.555  10.793  0.00  0.00    +0.254 A 
ENDROOT
BRANCH  13   8
ATOM      5  N   UNL     1      -4.741  -9.799   9.453  0.00  0.00    -0.297 NA
ATOM      8  C   UNL     1      -6.927  -9.126   8.935  0.00  0.00    +0.092 C 
ATOM      9  C   UNL     1      -6.131  -7.923   9.469  0.00  0.00    +0.029 C 
ATOM     10  C   UNL     1      -6.092 -10.351   9.332  0.00  0.00    +0.097 C 
ATOM     11  C   UNL     1      -4.914  -8.529  10.158  0.00  0.00    +0.085 C 
BRANCH   5  12
ATOM     12  C   UNL     1      -3.833 -10.699  10.150  0.00  0.00    +0.121 C 
BRANCH  12  14
ATOM      1 CL   UNL     1      -1.336 -10.284  11.919  0.00  0.00    -0.083 Cl
ATOM     14  C   UNL     1      -4.023 -10.643  11.641  0.00  0.00    -0.015 A 
ATOM     16  C   UNL     1      -2.947 -10.459  12.510  0.00  0.00    +0.045 A 
ATOM     17  C   UNL     1      -5.315 -10.781  12.151  0.00  0.00    +0.006 A 
ATOM     19  C   UNL     1      -3.164 -10.413  13.888  0.00  0.00    +0.020 A 
ATOM     20  C   UNL     1      -5.531 -10.735  13.528  0.00  0.00    +0.000 A 
ATOM     21  C   UNL     1      -4.455 -10.551  14.397  0.00  0.00    +0.001 A 
ENDBRANCH  12  14
ENDBRANCH   5  12
ENDBRANCH  13   8
BRANCH  15  18
ATOM     18  C   UNL     1     -10.502  -9.923  12.084  0.00  0.00    +0.326 C 
BRANCH  18   4
ATOM      4  O   UNL     1      -9.478 -10.277  13.018  0.00  0.00    -0.483 OA
BRANCH   4  22
ATOM      2  F   UNL     1      -9.568  -7.660  17.850  0.00  0.00    -0.205 F 
ATOM     22  C   UNL     1      -9.500  -9.626  14.220  0.00  0.00    +0.121 A 
ATOM     23  C   UNL     1     -10.509  -8.703  14.494  0.00  0.00    +0.048 A 
ATOM     24  C   UNL     1      -8.514  -9.885  15.172  0.00  0.00    +0.048 A 
ATOM     25  C   UNL     1     -10.531  -8.038  15.721  0.00  0.00    +0.042 A 
ATOM     26  C   UNL     1      -8.536  -9.220  16.398  0.00  0.00    +0.042 A 
ATOM     27  C   UNL     1      -9.545  -8.297  16.672  0.00  0.00    +0.124 A 
ENDBRANCH   4  22
ENDBRANCH  18   4
ENDBRANCH  15  18
TORSDOF 6
ENDMDL
MODEL 3
REMARK VINA RESULT:      -3.4     16.613     18.190
REMARK  Name = 51137592
REMARK  6 active torsions:
REMARK  status: ('A' for Active; 'I' for Inactive)
REMARK    1  A    between atoms: O_4  and  C_18
REMARK    2  A    between atoms: O_4  and  C_22
REMARK    3  A    between atoms: N_5  and  C_12
REMARK    4  A    between atoms: C_8  and  C_13
REMARK    5  A    between atoms: C_12  and  C_14
REMARK    6  A    between atoms: C_15  and  C_18
REMARK                            x       y       z     vdW  Elec       q    Type
REMARK                         _______ _______ _______ _____ _____    ______ ____
ROOT
ATOM      3  O   UNL     1       0.262   0.978  23.776  0.00  0.00    -0.421 OA
ATOM      6  N   UNL     1      -0.584  -0.380  25.340  0.00  0.00    -0.112 NA
ATOM      7  N   UNL     1      -0.141  -1.162  24.289  0.00  0.00    -0.109 NA
ATOM     13  C   UNL     1      -0.328   0.861  24.997  0.00  0.00    +0.222 A 
ATOM     15  C   UNL     1       0.345  -0.327  23.399  0.00  0.00    +0.254 A 
ENDROOT
BRANCH  13   8
ATOM      5  N   UNL     1      -2.077   3.951  25.901  0.00  0.00    -0.297 NA
ATOM      8  C   UNL     1      -0.592   2.142  25.753  0.00  0.00    +0.092 C 
ATOM      9  C   UNL     1       0.063   3.396  25.148  0.00  0.00    +0.029 C 
ATOM     10  C   UNL     1      -2.085   2.488  25.842  0.00  0.00    +0.097 C 
ATOM     11  C   UNL     1      -1.088   4.364  24.904  0.00  0.00    +0.085 C 
BRANCH   5  12
ATOM     12  C   UNL     1      -3.391   4.525  25.648  0.00  0.00    +0.121 C 
BRANCH  12  14
ATOM      1 CL   UNL     1      -3.483   3.076  22.921  0.00  0.00    -0.083 Cl
ATOM     14  C   UNL     1      -4.437   3.462  25.445  0.00  0.00    -0.015 A 
ATOM     16  C   UNL     1      -4.546   2.762  24.244  0.00  0.00    +0.045 A 
ATOM     17  C   UNL     1      -5.312   3.184  26.496  0.00  0.00    +0.006 A 
ATOM     19  C   UNL     1      -5.530   1.783  24.094  0.00  0.00    +0.020 A 
ATOM     20  C   UNL     1      -6.295   2.206  26.346  0.00  0.00    +0.000 A 
ATOM     21  C   UNL     1      -6.404   1.506  25.145  0.00  0.00    +0.001 A 
ENDBRANCH  12  14
ENDBRANCH   5  12
ENDBRANCH  13   8
BRANCH  15  18
ATOM     18  C   UNL     1       0.950  -0.603  22.090  0.00  0.00    +0.326 C 
BRANCH  18   4
ATOM      4  O   UNL     1       2.079   0.250  21.877  0.00  0.00    -0.483 OA
BRANCH   4  22
ATOM      2  F   UNL     1       6.564  -0.838  24.861  0.00  0.00    -0.205 F 
ATOM     22  C   UNL     1       3.195  -0.021  22.619  0.00  0.00    +0.121 A 
ATOM     23  C   UNL     1       3.364  -1.282  23.188  0.00  0.00    +0.048 A 
ATOM     24  C   UNL     1       4.163   0.966  22.807  0.00  0.00    +0.048 A 
ATOM     25  C   UNL     1       4.502  -1.558  23.947  0.00  0.00    +0.042 A 
ATOM     26  C   UNL     1       5.301   0.690  23.565  0.00  0.00    +0.042 A 
ATOM     27  C   UNL     1       5.470  -0.572  24.135  0.00  0.00    +0.124 A 
ENDBRANCH   4  22
ENDBRANCH  18   4
ENDBRANCH  15  18
TORSDOF 6
ENDMDL
MODEL 4
REMARK VINA RESULT:      -3.3     17.850     20.119
REMARK  Name = 51137592
REMARK  6 active torsions:
REMARK  status: ('A' for Active; 'I' for Inactive)
REMARK    1  A    between atoms: O_4  and  C_18
REMARK    2  A    between atoms: O_4  and  C_22
REMARK    3  A    between atoms: N_5  and  C_12
REMARK    4  A    between atoms: C_8  and  C_13
REMARK    5  A    between atoms: C_12  and  C_14
REMARK    6  A    between atoms: C_15  and  C_18
REMARK                            x       y       z     vdW  Elec       q    Type
REMARK                         _______ _______ _______ _____ _____    ______ ____
ROOT
ATOM      3  O   UNL     1      -0.155   0.777  25.230  0.00  0.00    -0.421 OA
ATOM      6  N   UNL     1       0.775   2.108  23.692  0.00  0.00    -0.112 NA
ATOM      7  N   UNL     1       1.086   0.800  23.368  0.00  0.00    -0.109 NA
ATOM     13  C   UNL     1       0.051   2.046  24.785  0.00  0.00    +0.222 A 
ATOM     15  C   UNL     1       0.522   0.058  24.293  0.00  0.00    +0.254 A 
ENDROOT
BRANCH  13   8
ATOM      5  N   UNL     1      -2.456   4.550  25.718  0.00  0.00    -0.297 NA
ATOM      8  C   UNL     1      -0.570   3.162  25.593  0.00  0.00    +0.092 C 
ATOM      9  C   UNL     1      -0.196   4.580  25.131  0.00  0.00    +0.029 C 
ATOM     10  C   UNL     1      -2.105   3.137  25.567  0.00  0.00    +0.097 C 
ATOM     11  C   UNL     1      -1.526   5.266  24.844  0.00  0.00    +0.085 C 
BRANCH   5  12
ATOM     12  C   UNL     1      -3.847   4.816  25.382  0.00  0.00    +0.121 C 
BRANCH  12  14
ATOM      1 CL   UNL     1      -3.689   3.117  22.807  0.00  0.00    -0.083 Cl
ATOM     14  C   UNL     1      -4.660   3.552  25.317  0.00  0.00    -0.015 A 
ATOM     16  C   UNL     1      -4.645   2.729  24.191  0.00  0.00    +0.045 A 
ATOM     17  C   UNL     1      -5.443   3.210  26.420  0.00  0.00    +0.006 A 
ATOM     19  C   UNL     1      -5.413   1.564  24.168  0.00  0.00    +0.020 A 
ATOM     20  C   UNL     1      -6.211   2.046  26.397  0.00  0.00    +0.000 A 
ATOM     21  C   UNL     1      -6.195   1.222  25.271  0.00  0.00    +0.001 A 
ENDBRANCH  12  14
ENDBRANCH   5  12
ENDBRANCH  13   8
BRANCH  15  18
ATOM     18  C   UNL     1       0.522  -1.402  24.448  0.00  0.00    +0.326 C 
BRANCH  18   4
ATOM      4  O   UNL     1      -0.439  -1.795  25.432  0.00  0.00    -0.483 OA
BRANCH   4  22
ATOM      2  F   UNL     1      -5.624  -2.355  23.699  0.00  0.00    -0.205 F 
ATOM     22  C   UNL     1      -1.729  -1.934  25.001  0.00  0.00    +0.121 A 
ATOM     23  C   UNL     1      -2.064  -2.970  24.129  0.00  0.00    +0.048 A 
ATOM     24  C   UNL     1      -2.708  -1.040  25.433  0.00  0.00    +0.048 A 
ATOM     25  C   UNL     1      -3.381  -3.111  23.688  0.00  0.00    +0.042 A 
ATOM     26  C   UNL     1      -4.024  -1.182  24.993  0.00  0.00    +0.042 A 
ATOM     27  C   UNL     1      -4.360  -2.217  24.120  0.00  0.00    +0.124 A 
ENDBRANCH   4  22
ENDBRANCH  18   4
ENDBRANCH  15  18
TORSDOF 6
ENDMDL
MODEL 5
REMARK VINA RESULT:      -2.8     17.928     20.458
REMARK  Name = 51137592
REMARK  6 active torsions:
REMARK  status: ('A' for Active; 'I' for Inactive)
REMARK    1  A    between atoms: O_4  and  C_18
REMARK    2  A    between atoms: O_4  and  C_22
REMARK    3  A    between atoms: N_5  and  C_12
REMARK    4  A    between atoms: C_8  and  C_13
REMARK    5  A    between atoms: C_12  and  C_14
REMARK    6  A    between atoms: C_15  and  C_18
REMARK                            x       y       z     vdW  Elec       q    Type
REMARK                         _______ _______ _______ _____ _____    ______ ____
ROOT
ATOM      3  O   UNL     1      -3.981   2.547  24.895  0.00  0.00    -0.421 OA
ATOM      6  N   UNL     1      -4.802   4.606  25.201  0.00  0.00    -0.112 NA
ATOM      7  N   UNL     1      -5.766   3.699  25.600  0.00  0.00    -0.109 NA
ATOM     13  C   UNL     1      -3.779   3.889  24.797  0.00  0.00    +0.222 A 
ATOM     15  C   UNL     1      -5.243   2.510  25.404  0.00  0.00    +0.254 A 
ENDROOT
BRANCH  13   8
ATOM      5  N   UNL     1      -0.235   3.630  23.903  0.00  0.00    -0.297 NA
ATOM      8  C   UNL     1      -2.442   4.340  24.254  0.00  0.00    +0.092 C 
ATOM      9  C   UNL     1      -1.517   5.006  25.287  0.00  0.00    +0.029 C 
ATOM     10  C   UNL     1      -1.612   3.186  23.676  0.00  0.00    +0.097 C 
ATOM     11  C   UNL     1      -0.235   4.183  25.258  0.00  0.00    +0.085 C 
BRANCH   5  12
ATOM     12  C   UNL     1       0.731   2.552  23.746  0.00  0.00    +0.121 C 
BRANCH  12  14
ATOM      1 CL   UNL     1       1.288  -0.047  22.172  0.00  0.00    -0.083 Cl
ATOM     14  C   UNL     1       0.221   1.256  24.316  0.00  0.00    -0.015 A 
ATOM     16  C   UNL     1       0.430   0.038  23.667  0.00  0.00    +0.045 A 
ATOM     17  C   UNL     1      -0.477   1.291  25.523  0.00  0.00    +0.006 A 
ATOM     19  C   UNL     1      -0.059  -1.143  24.227  0.00  0.00    +0.020 A 
ATOM     20  C   UNL     1      -0.965   0.110  26.083  0.00  0.00    +0.000 A 
ATOM     21  C   UNL     1      -0.756  -1.107  25.434  0.00  0.00    +0.001 A 
ENDBRANCH  12  14
ENDBRANCH   5  12
ENDBRANCH  13   8
BRANCH  15  18
ATOM     18  C   UNL     1      -5.819   1.182  25.654  0.00  0.00    +0.326 C 
BRANCH  18   4
ATOM      4  O   UNL     1      -4.859   0.339  26.295  0.00  0.00    -0.483 OA
BRANCH   4  22
ATOM      2  F   UNL     1      -2.936  -3.871  23.332  0.00  0.00    -0.205 F 
ATOM     22  C   UNL     1      -4.380  -0.708  25.558  0.00  0.00    +0.121 A 
ATOM     23  C   UNL     1      -4.514  -0.702  24.170  0.00  0.00    +0.048 A 
ATOM     24  C   UNL     1      -3.760  -1.783  26.195  0.00  0.00    +0.048 A 
ATOM     25  C   UNL     1      -4.027  -1.771  23.418  0.00  0.00    +0.042 A 
ATOM     26  C   UNL     1      -3.272  -2.852  25.443  0.00  0.00    +0.042 A 
ATOM     27  C   UNL     1      -3.406  -2.846  24.055  0.00  0.00    +0.124 A 
ENDBRANCH   4  22
ENDBRANCH  18   4
ENDBRANCH  15  18
TORSDOF 6
ENDMDL
MODEL 6
REMARK VINA RESULT:      -2.7     17.051     19.279
REMARK  Name = 51137592
REMARK  6 active torsions:
REMARK  status: ('A' for Active; 'I' for Inactive)
REMARK    1  A    between atoms: O_4  and  C_18
REMARK    2  A    between atoms: O_4  and  C_22
REMARK    3  A    between atoms: N_5  and  C_12
REMARK    4  A    between atoms: C_8  and  C_13
REMARK    5  A    between atoms: C_12  and  C_14
REMARK    6  A    between atoms: C_15  and  C_18
REMARK                            x       y       z     vdW  Elec       q    Type
REMARK                         _______ _______ _______ _____ _____    ______ ____
ROOT
ATOM      3  O   UNL     1      -2.386   2.925  25.846  0.00  0.00    -0.421 OA
ATOM      6  N   UNL     1      -0.754   4.267  25.110  0.00  0.00    -0.112 NA
ATOM      7  N   UNL     1      -1.903   5.025  25.244  0.00  0.00    -0.109 NA
ATOM     13  C   UNL     1      -1.083   3.049  25.472  0.00  0.00    +0.222 A 
ATOM     15  C   UNL     1      -2.829   4.201  25.676  0.00  0.00    +0.254 A 
ENDROOT
BRANCH  13   8
ATOM      5  N   UNL     1       0.999   0.316  24.198  0.00  0.00    -0.297 NA
ATOM      8  C   UNL     1      -0.235   1.800  25.531  0.00  0.00    +0.092 C 
ATOM      9  C   UNL     1      -1.013   0.482  25.372  0.00  0.00    +0.029 C 
ATOM     10  C   UNL     1       0.837   1.753  24.434  0.00  0.00    +0.097 C 
ATOM     11  C   UNL     1      -0.363  -0.220  24.187  0.00  0.00    +0.085 C 
BRANCH   5  12
ATOM     12  C   UNL     1       1.715   0.033  22.963  0.00  0.00    +0.121 C 
BRANCH  12  14
ATOM      1 CL   UNL     1       3.708   2.317  22.373  0.00  0.00    -0.083 Cl
ATOM     14  C   UNL     1       3.177  -0.222  23.209  0.00  0.00    -0.015 A 
ATOM     16  C   UNL     1       4.142   0.757  22.967  0.00  0.00    +0.045 A 
ATOM     17  C   UNL     1       3.560  -1.474  23.690  0.00  0.00    +0.006 A 
ATOM     19  C   UNL     1       5.489   0.482  23.207  0.00  0.00    +0.020 A 
ATOM     20  C   UNL     1       4.907  -1.748  23.930  0.00  0.00    +0.000 A 
ATOM     21  C   UNL     1       5.871  -0.769  23.689  0.00  0.00    +0.001 A 
ENDBRANCH  12  14
ENDBRANCH   5  12
ENDBRANCH  13   8
BRANCH  15  18
ATOM     18  C   UNL     1      -4.239   4.462  25.993  0.00  0.00    +0.326 C 
BRANCH  18   4
ATOM      4  O   UNL     1      -5.088   3.843  25.023  0.00  0.00    -0.483 OA
BRANCH   4  22
ATOM      2  F   UNL     1      -3.805  -1.303  23.580  0.00  0.00    -0.205 F 
ATOM     22  C   UNL     1      -4.769   2.563  24.664  0.00  0.00    +0.121 A 
ATOM     23  C   UNL     1      -5.226   1.490  25.429  0.00  0.00    +0.048 A 
ATOM     24  C   UNL     1      -3.986   2.331  23.533  0.00  0.00    +0.048 A 
ATOM     25  C   UNL     1      -4.899   0.184  25.063  0.00  0.00    +0.042 A 
ATOM     26  C   UNL     1      -3.660   1.025  23.167  0.00  0.00    +0.042 A 
ATOM     27  C   UNL     1      -4.116  -0.048  23.932  0.00  0.00    +0.124 A 
ENDBRANCH   4  22
ENDBRANCH  18   4
ENDBRANCH  15  18
TORSDOF 6
ENDMDL
MODEL 7
REMARK VINA RESULT:      -2.5     16.947     19.134
REMARK  Name = 51137592
REMARK  6 active torsions:
REMARK  status: ('A' for Active; 'I' for Inactive)
REMARK    1  A    between atoms: O_4  and  C_18
REMARK    2  A    between atoms: O_4  and  C_22
REMARK    3  A    between atoms: N_5  and  C_12
REMARK    4  A    between atoms: C_8  and  C_13
REMARK    5  A    between atoms: C_12  and  C_14
REMARK    6  A    between atoms: C_15  and  C_18
REMARK                            x       y       z     vdW  Elec       q    Type
REMARK                         _______ _______ _______ _____ _____    ______ ____
ROOT
ATOM      3  O   UNL     1      -3.558   0.871  25.481  0.00  0.00    -0.421 OA
ATOM      6  N   UNL     1      -3.589  -0.886  24.096  0.00  0.00    -0.112 NA
ATOM      7  N   UNL     1      -4.881  -0.405  24.205  0.00  0.00    -0.109 NA
ATOM     13  C   UNL     1      -2.852  -0.111  24.857  0.00  0.00    +0.222 A 
ATOM     15  C   UNL     1      -4.814   0.620  25.023  0.00  0.00    +0.254 A 
ENDROOT
BRANCH  13   8
ATOM      5  N   UNL     1       0.719  -0.352  24.068  0.00  0.00    -0.297 NA
ATOM      8  C   UNL     1      -1.365  -0.159  25.126  0.00  0.00    +0.092 C 
ATOM      9  C   UNL     1      -0.796  -1.568  25.363  0.00  0.00    +0.029 C 
ATOM     10  C   UNL     1      -0.529   0.408  23.971  0.00  0.00    +0.097 C 
ATOM     11  C   UNL     1       0.301  -1.732  24.320  0.00  0.00    +0.085 C 
BRANCH   5  12
ATOM     12  C   UNL     1       1.538  -0.231  22.871  0.00  0.00    +0.121 C 
BRANCH  12  14
ATOM      1 CL   UNL     1       3.213   2.342  22.535  0.00  0.00    -0.083 Cl
ATOM     14  C   UNL     1       3.007  -0.297  23.188  0.00  0.00    -0.015 A 
ATOM     16  C   UNL     1       3.834   0.820  23.062  0.00  0.00    +0.045 A 
ATOM     17  C   UNL     1       3.539  -1.513  23.617  0.00  0.00    +0.006 A 
ATOM     19  C   UNL     1       5.192   0.720  23.365  0.00  0.00    +0.020 A 
ATOM     20  C   UNL     1       4.897  -1.613  23.920  0.00  0.00    +0.000 A 
ATOM     21  C   UNL     1       5.724  -0.496  23.794  0.00  0.00    +0.001 A 
ENDBRANCH  12  14
ENDBRANCH   5  12
ENDBRANCH  13   8
BRANCH  15  18
ATOM     18  C   UNL     1      -5.883   1.509  25.497  0.00  0.00    +0.326 C 
BRANCH  18   4
ATOM      4  O   UNL     1      -5.730   2.813  24.929  0.00  0.00    -0.483 OA
BRANCH   4  22
ATOM      2  F   UNL     1      -0.701   5.015  25.179  0.00  0.00    -0.205 F 
ATOM     22  C   UNL     1      -4.479   3.361  24.991  0.00  0.00    +0.121 A 
ATOM     23  C   UNL     1      -3.666   3.372  23.859  0.00  0.00    +0.048 A 
ATOM     24  C   UNL     1      -4.017   3.909  26.188  0.00  0.00    +0.048 A 
ATOM     25  C   UNL     1      -2.389   3.929  23.922  0.00  0.00    +0.042 A 
ATOM     26  C   UNL     1      -2.740   4.467  26.251  0.00  0.00    +0.042 A 
ATOM     27  C   UNL     1      -1.926   4.477  25.119  0.00  0.00    +0.124 A 
ENDBRANCH   4  22
ENDBRANCH  18   4
ENDBRANCH  15  18
TORSDOF 6
ENDMDL
MODEL 8
REMARK VINA RESULT:      -2.4     16.936     19.471
REMARK  Name = 51137592
REMARK  6 active torsions:
REMARK  status: ('A' for Active; 'I' for Inactive)
REMARK    1  A    between atoms: O_4  and  C_18
REMARK    2  A    between atoms: O_4  and  C_22
REMARK    3  A    between atoms: N_5  and  C_12
REMARK    4  A    between atoms: C_8  and  C_13
REMARK    5  A    between atoms: C_12  and  C_14
REMARK    6  A    between atoms: C_15  and  C_18
REMARK                            x       y       z     vdW  Elec       q    Type
REMARK                         _______ _______ _______ _____ _____    ______ ____
ROOT
ATOM      3  O   UNL     1      -3.270   2.250  24.648  0.00  0.00    -0.421 OA
ATOM      6  N   UNL     1      -3.215   4.418  25.199  0.00  0.00    -0.112 NA
ATOM      7  N   UNL     1      -4.521   3.979  25.318  0.00  0.00    -0.109 NA
ATOM     13  C   UNL     1      -2.521   3.375  24.805  0.00  0.00    +0.222 A 
ATOM     15  C   UNL     1      -4.505   2.709  24.987  0.00  0.00    +0.254 A 
ENDROOT
BRANCH  13   8
ATOM      5  N   UNL     1       0.596   1.766  23.746  0.00  0.00    -0.297 NA
ATOM      8  C   UNL     1      -1.043   3.258  24.512  0.00  0.00    +0.092 C 
ATOM      9  C   UNL     1      -0.185   2.783  25.697  0.00  0.00    +0.029 C 
ATOM     10  C   UNL     1      -0.733   2.263  23.385  0.00  0.00    +0.097 C 
ATOM     11  C   UNL     1       0.535   1.540  25.191  0.00  0.00    +0.085 C 
BRANCH   5  12
ATOM     12  C   UNL     1       0.957   0.561  23.012  0.00  0.00    +0.121 C 
BRANCH  12  14
ATOM      1 CL   UNL     1       1.700  -2.093  24.407  0.00  0.00    -0.083 Cl
ATOM     14  C   UNL     1       2.416   0.227  23.167  0.00  0.00    -0.015 A 
ATOM     16  C   UNL     1       2.835  -0.952  23.785  0.00  0.00    +0.045 A 
ATOM     17  C   UNL     1       3.359   1.129  22.674  0.00  0.00    +0.006 A 
ATOM     19  C   UNL     1       4.198  -1.226  23.910  0.00  0.00    +0.020 A 
ATOM     20  C   UNL     1       4.720   0.854  22.799  0.00  0.00    +0.000 A 
ATOM     21  C   UNL     1       5.140  -0.324  23.417  0.00  0.00    +0.001 A 
ENDBRANCH  12  14
ENDBRANCH   5  12
ENDBRANCH  13   8
BRANCH  15  18
ATOM     18  C   UNL     1      -5.610   1.742  24.936  0.00  0.00    +0.326 C 
BRANCH  18   4
ATOM      4  O   UNL     1      -5.331   0.627  25.788  0.00  0.00    -0.483 OA
BRANCH   4  22
ATOM      2  F   UNL     1      -1.694  -3.039  23.910  0.00  0.00    -0.205 F 
ATOM     22  C   UNL     1      -4.427  -0.285  25.321  0.00  0.00    +0.121 A 
ATOM     23  C   UNL     1      -3.252  -0.527  26.031  0.00  0.00    +0.048 A 
ATOM     24  C   UNL     1      -4.679  -0.972  24.133  0.00  0.00    +0.048 A 
ATOM     25  C   UNL     1      -2.327  -1.457  25.554  0.00  0.00    +0.042 A 
ATOM     26  C   UNL     1      -3.756  -1.902  23.657  0.00  0.00    +0.042 A 
ATOM     27  C   UNL     1      -2.580  -2.144  24.366  0.00  0.00    +0.124 A 
ENDBRANCH   4  22
ENDBRANCH  18   4
ENDBRANCH  15  18
TORSDOF 6
ENDMDL
MODEL 9
REMARK VINA RESULT:      -1.8     17.609     19.451
REMARK  Name = 51137592
REMARK  6 active torsions:
REMARK  status: ('A' for Active; 'I' for Inactive)
REMARK    1  A    between atoms: O_4  and  C_18
REMARK    2  A    between atoms: O_4  and  C_22
REMARK    3  A    between atoms: N_5  and  C_12
REMARK    4  A    between atoms: C_8  and  C_13
REMARK    5  A    between atoms: C_12  and  C_14
REMARK    6  A    between atoms: C_15  and  C_18
REMARK                            x       y       z     vdW  Elec       q    Type
REMARK                         _______ _______ _______ _____ _____    ______ ____
ROOT
ATOM      3  O   UNL     1      -0.992  -0.402  23.838  0.00  0.00    -0.421 OA
ATOM      6  N   UNL     1      -0.192  -2.160  24.968  0.00  0.00    -0.112 NA
ATOM      7  N   UNL     1       0.878  -1.501  24.391  0.00  0.00    -0.109 NA
ATOM     13  C   UNL     1      -1.262  -1.484  24.619  0.00  0.00    +0.222 A 
ATOM     15  C   UNL     1       0.363  -0.482  23.742  0.00  0.00    +0.254 A 
ENDROOT
BRANCH  13   8
ATOM      5  N   UNL     1      -4.846  -0.766  24.871  0.00  0.00    -0.297 NA
ATOM      8  C   UNL     1      -2.713  -1.736  24.957  0.00  0.00    +0.092 C 
ATOM      9  C   UNL     1      -3.134  -1.293  26.368  0.00  0.00    +0.029 C 
ATOM     10  C   UNL     1      -3.682  -1.008  24.016  0.00  0.00    +0.097 C 
ATOM     11  C   UNL     1      -4.289  -0.324  26.150  0.00  0.00    +0.085 C 
BRANCH   5  12
ATOM     12  C   UNL     1      -5.762   0.211  24.299  0.00  0.00    +0.121 C 
BRANCH  12  14
ATOM      1 CL   UNL     1      -6.791   1.734  26.781  0.00  0.00    -0.083 Cl
ATOM     14  C   UNL     1      -5.283   1.621  24.513  0.00  0.00    -0.015 A 
ATOM     16  C   UNL     1      -5.700   2.378  25.608  0.00  0.00    +0.045 A 
ATOM     17  C   UNL     1      -4.401   2.169  23.582  0.00  0.00    +0.006 A 
ATOM     19  C   UNL     1      -5.235   3.683  25.772  0.00  0.00    +0.020 A 
ATOM     20  C   UNL     1      -3.935   3.474  23.746  0.00  0.00    +0.000 A 
ATOM     21  C   UNL     1      -4.352   4.231  24.842  0.00  0.00    +0.001 A 
ENDBRANCH  12  14
ENDBRANCH   5  12
ENDBRANCH  13   8
BRANCH  15  18
ATOM     18  C   UNL     1       1.034   0.557  22.949  0.00  0.00    +0.326 C 
BRANCH  18   4
ATOM      4  O   UNL     1       1.555   1.576  23.807  0.00  0.00    -0.483 OA
BRANCH   4  22
ATOM      2  F   UNL     1      -2.131   4.850  26.236  0.00  0.00    -0.205 F 
ATOM     22  C   UNL     1       0.638   2.390  24.411  0.00  0.00    +0.121 A 
ATOM     23  C   UNL     1       0.220   3.559  23.777  0.00  0.00    +0.048 A 
ATOM     24  C   UNL     1       0.122   2.050  25.662  0.00  0.00    +0.048 A 
ATOM     25  C   UNL     1      -0.715   4.391  24.394  0.00  0.00    +0.042 A 
ATOM     26  C   UNL     1      -0.814   2.882  26.278  0.00  0.00    +0.042 A 
ATOM     27  C   UNL     1      -1.231   4.052  25.645  0.00  0.00    +0.124 A 
ENDBRANCH   4  22
ENDBRANCH  18   4
ENDBRANCH  15  18
TORSDOF 6
ENDMDL
MODEL 10
REMARK VINA RESULT:      -1.7     24.786     27.050
REMARK  Name = 51137592
REMARK  6 active torsions:
REMARK  status: ('A' for Active; 'I' for Inactive)
REMARK    1  A    between atoms: O_4  and  C_18
REMARK    2  A    between atoms: O_4  and  C_22
REMARK    3  A    between atoms: N_5  and  C_12
REMARK    4  A    between atoms: C_8  and  C_13
REMARK    5  A    between atoms: C_12  and  C_14
REMARK    6  A    between atoms: C_15  and  C_18
REMARK                            x       y       z     vdW  Elec       q    Type
REMARK                         _______ _______ _______ _____ _____    ______ ____
ROOT
ATOM      3  O   UNL     1      -7.934  -9.761  11.292  0.00  0.00    -0.421 OA
ATOM      6  N   UNL     1      -6.619 -10.762  12.801  0.00  0.00    -0.112 NA
ATOM      7  N   UNL     1      -7.915 -10.781  13.284  0.00  0.00    -0.109 NA
ATOM     13  C   UNL     1      -6.678 -10.157  11.638  0.00  0.00    +0.222 A 
ATOM     15  C   UNL     1      -8.647 -10.186  12.370  0.00  0.00    +0.254 A 
ENDROOT
BRANCH  13   8
ATOM      5  N   UNL     1      -3.240  -9.700  10.455  0.00  0.00    -0.297 NA
ATOM      8  C   UNL     1      -5.572  -9.851  10.655  0.00  0.00    +0.092 C 
ATOM      9  C   UNL     1      -5.156  -8.372  10.589  0.00  0.00    +0.029 C 
ATOM     10  C   UNL     1      -4.272 -10.607  10.962  0.00  0.00    +0.097 C 
ATOM     11  C   UNL     1      -3.663  -8.367  10.889  0.00  0.00    +0.085 C 
BRANCH   5  12
ATOM     12  C   UNL     1      -1.911 -10.043  10.939  0.00  0.00    +0.121 C 
BRANCH  12  14
ATOM      1 CL   UNL     1       0.147  -8.106  12.186  0.00  0.00    -0.083 Cl
ATOM     14  C   UNL     1      -1.824  -9.972  12.440  0.00  0.00    -0.015 A 
ATOM     16  C   UNL     1      -0.922  -9.123  13.082  0.00  0.00    +0.045 A 
ATOM     17  C   UNL     1      -2.676 -10.781  13.192  0.00  0.00    +0.006 A 
ATOM     19  C   UNL     1      -0.871  -9.085  14.476  0.00  0.00    +0.020 A 
ATOM     20  C   UNL     1      -2.625 -10.743  14.585  0.00  0.00    +0.000 A 
ATOM     21  C   UNL     1      -1.723  -9.894  15.227  0.00  0.00    +0.001 A 
ENDBRANCH  12  14
ENDBRANCH   5  12
ENDBRANCH  13   8
BRANCH  15  18
ATOM     18  C   UNL     1     -10.093  -9.927  12.354  0.00  0.00    +0.326 C 
BRANCH  18   4
ATOM      4  O   UNL     1     -10.690 -10.377  13.573  0.00  0.00    -0.483 OA
BRANCH   4  22
ATOM      2  F   UNL     1      -9.969  -7.175  17.981  0.00  0.00    -0.205 F 
ATOM     22  C   UNL     1     -10.511  -9.580  14.669  0.00  0.00    +0.121 A 
ATOM     23  C   UNL     1     -10.221 -10.153  15.907  0.00  0.00    +0.048 A 
ATOM     24  C   UNL     1     -10.618  -8.195  14.549  0.00  0.00    +0.048 A 
ATOM     25  C   UNL     1     -10.039  -9.341  17.027  0.00  0.00    +0.042 A 
ATOM     26  C   UNL     1     -10.435  -7.382  15.668  0.00  0.00    +0.042 A 
ATOM     27  C   UNL     1     -10.146  -7.955  16.907  0.00  0.00    +0.124 A 
ENDBRANCH   4  22
ENDBRANCH  18   4
ENDBRANCH  15  18
TORSDOF 6
ENDMDL
