MODEL 1
REMARK VINA RESULT:      -4.3      0.000      0.000
REMARK  Name = 26744419
REMARK  5 active torsions:
REMARK  status: ('A' for Active; 'I' for Inactive)
REMARK    1  A    between atoms: O_2  and  C_11
REMARK    2  A    between atoms: N_4  and  C_13
REMARK    3  A    between atoms: C_9  and  C_14
REMARK    4  A    between atoms: C_13  and  C_15
REMARK    5  A    between atoms: C_16  and  C_18
REMARK                            x       y       z     vdW  Elec       q    Type
REMARK                         _______ _______ _______ _____ _____    ______ ____
ROOT
ATOM      4  N   UNL     1      -4.737   1.303  25.196  0.00  0.00    -0.282 NA
ATOM      9  C   UNL     1      -3.929   2.154  24.300  0.00  0.00    +0.149 C 
ATOM     10  C   UNL     1      -4.280   3.598  24.706  0.00  0.00    +0.061 C 
ATOM     11  C   UNL     1      -5.325   3.455  25.806  0.00  0.00    +0.130 C 
ATOM     12  C   UNL     1      -5.920   2.083  25.553  0.00  0.00    +0.117 C 
ENDROOT
BRANCH   9  14
ATOM      3  O   UNL     1      -1.893   1.953  25.638  0.00  0.00    -0.336 OA
ATOM      5  N   UNL     1      -1.600   1.530  23.458  0.00  0.00    -0.190 NA
ATOM      8  N   UNL     1      -0.536   1.645  25.480  0.00  0.00    -0.056 NA
ATOM     14  C   UNL     1      -2.446   1.862  24.399  0.00  0.00    +0.245 A 
ATOM     16  C   UNL     1      -0.441   1.408  24.168  0.00  0.00    +0.202 A 
BRANCH  16  18
ATOM      1  F   UNL     1       4.354   0.005  21.722  0.00  0.00    -0.205 F 
ATOM     18  C   UNL     1       0.795   1.046  23.537  0.00  0.00    +0.023 A 
ATOM     20  C   UNL     1       1.913   1.869  23.670  0.00  0.00    +0.014 A 
ATOM     21  C   UNL     1       0.880  -0.129  22.792  0.00  0.00    +0.014 A 
ATOM     22  C   UNL     1       3.115   1.518  23.057  0.00  0.00    +0.039 A 
ATOM     23  C   UNL     1       2.082  -0.481  22.178  0.00  0.00    +0.039 A 
ATOM     24  C   UNL     1       3.200   0.342  22.310  0.00  0.00    +0.123 A 
ENDBRANCH  16  18
ENDBRANCH   9  14
BRANCH  11   2
ATOM      2  O   UNL     1      -6.298   4.476  25.708  0.00  0.00    -0.390 OA
ATOM     25  H   UNL     1      -7.171   4.048  25.685  0.00  0.00    +0.210 HD
ENDBRANCH  11   2
BRANCH   4  13
ATOM     13  C   UNL     1      -5.085   0.016  24.607  0.00  0.00    +0.159 C 
BRANCH  13  15
ATOM      6  N   UNL     1      -2.923  -0.809  25.567  0.00  0.00    -0.347 N 
ATOM      7  N   UNL     1      -3.758  -2.008  23.895  0.00  0.00    -0.239 NA
ATOM     15  C   UNL     1      -3.936  -0.955  24.661  0.00  0.00    +0.121 A 
ATOM     17  C   UNL     1      -2.042  -1.834  25.365  0.00  0.00    +0.104 A 
ATOM     19  C   UNL     1      -2.579  -2.561  24.329  0.00  0.00    +0.130 A 
ATOM     26  H   UNL     1      -2.837  -0.075  26.258  0.00  0.00    +0.167 HD
ENDBRANCH  13  15
ENDBRANCH   4  13
TORSDOF 5
ENDMDL
MODEL 2
REMARK VINA RESULT:      -3.9      1.820      2.205
REMARK  Name = 26744419
REMARK  5 active torsions:
REMARK  status: ('A' for Active; 'I' for Inactive)
REMARK    1  A    between atoms: O_2  and  C_11
REMARK    2  A    between atoms: N_4  and  C_13
REMARK    3  A    between atoms: C_9  and  C_14
REMARK    4  A    between atoms: C_13  and  C_15
REMARK    5  A    between atoms: C_16  and  C_18
REMARK                            x       y       z     vdW  Elec       q    Type
REMARK                         _______ _______ _______ _____ _____    ______ ____
ROOT
ATOM      4  N   UNL     1      -2.956   1.577  24.773  0.00  0.00    -0.282 NA
ATOM      9  C   UNL     1      -1.882   2.193  23.968  0.00  0.00    +0.149 C 
ATOM     10  C   UNL     1      -1.523   3.489  24.717  0.00  0.00    +0.061 C 
ATOM     11  C   UNL     1      -2.478   3.537  25.903  0.00  0.00    +0.130 C 
ATOM     12  C   UNL     1      -3.641   2.671  25.457  0.00  0.00    +0.117 C 
ENDROOT
BRANCH   9  14
ATOM      3  O   UNL     1      -0.962  -0.056  23.696  0.00  0.00    -0.336 OA
ATOM      5  N   UNL     1       0.579   1.570  23.694  0.00  0.00    -0.190 NA
ATOM      8  N   UNL     1       0.275  -0.692  23.532  0.00  0.00    -0.056 NA
ATOM     14  C   UNL     1      -0.692   1.274  23.783  0.00  0.00    +0.245 A 
ATOM     16  C   UNL     1       1.133   0.333  23.541  0.00  0.00    +0.202 A 
BRANCH  16  18
ATOM      1  F   UNL     1       6.625  -0.362  22.985  0.00  0.00    -0.205 F 
ATOM     18  C   UNL     1       2.549   0.153  23.398  0.00  0.00    +0.023 A 
ATOM     20  C   UNL     1       3.337   1.192  22.902  0.00  0.00    +0.014 A 
ATOM     21  C   UNL     1       3.138  -1.059  23.755  0.00  0.00    +0.014 A 
ATOM     22  C   UNL     1       4.714   1.018  22.763  0.00  0.00    +0.039 A 
ATOM     23  C   UNL     1       4.515  -1.233  23.615  0.00  0.00    +0.039 A 
ATOM     24  C   UNL     1       5.303  -0.195  23.119  0.00  0.00    +0.123 A 
ENDBRANCH  16  18
ENDBRANCH   9  14
BRANCH  11   2
ATOM      2  O   UNL     1      -2.883   4.866  26.168  0.00  0.00    -0.390 OA
ATOM     25  H   UNL     1      -2.166   5.453  25.877  0.00  0.00    +0.210 HD
ENDBRANCH  11   2
BRANCH   4  13
ATOM     13  C   UNL     1      -3.873   0.764  23.983  0.00  0.00    +0.159 C 
BRANCH  13  15
ATOM      6  N   UNL     1      -3.176  -1.108  25.495  0.00  0.00    -0.347 N 
ATOM      7  N   UNL     1      -4.230  -1.709  23.636  0.00  0.00    -0.239 NA
ATOM     15  C   UNL     1      -3.778  -0.695  24.340  0.00  0.00    +0.121 A 
ATOM     17  C   UNL     1      -3.249  -2.472  25.531  0.00  0.00    +0.104 A 
ATOM     19  C   UNL     1      -3.904  -2.820  24.374  0.00  0.00    +0.130 A 
ATOM     26  H   UNL     1      -2.752  -0.514  26.196  0.00  0.00    +0.167 HD
ENDBRANCH  13  15
ENDBRANCH   4  13
TORSDOF 5
ENDMDL
MODEL 3
REMARK VINA RESULT:      -2.6      1.997      3.597
REMARK  Name = 26744419
REMARK  5 active torsions:
REMARK  status: ('A' for Active; 'I' for Inactive)
REMARK    1  A    between atoms: O_2  and  C_11
REMARK    2  A    between atoms: N_4  and  C_13
REMARK    3  A    between atoms: C_9  and  C_14
REMARK    4  A    between atoms: C_13  and  C_15
REMARK    5  A    between atoms: C_16  and  C_18
REMARK                            x       y       z     vdW  Elec       q    Type
REMARK                         _______ _______ _______ _____ _____    ______ ____
ROOT
ATOM      4  N   UNL     1      -3.951   2.690  25.317  0.00  0.00    -0.282 NA
ATOM      9  C   UNL     1      -3.858   1.240  25.585  0.00  0.00    +0.149 C 
ATOM     10  C   UNL     1      -5.174   0.655  25.039  0.00  0.00    +0.061 C 
ATOM     11  C   UNL     1      -5.958   1.857  24.527  0.00  0.00    +0.130 C 
ATOM     12  C   UNL     1      -5.375   3.019  25.307  0.00  0.00    +0.117 C 
ENDROOT
BRANCH   9  14
ATOM      3  O   UNL     1      -2.629  -0.747  24.868  0.00  0.00    -0.336 OA
ATOM      5  N   UNL     1      -1.555   1.180  24.483  0.00  0.00    -0.190 NA
ATOM      8  N   UNL     1      -1.413  -1.093  24.267  0.00  0.00    -0.056 NA
ATOM     14  C   UNL     1      -2.632   0.609  24.958  0.00  0.00    +0.245 A 
ATOM     16  C   UNL     1      -0.836   0.097  24.070  0.00  0.00    +0.202 A 
BRANCH  16  18
ATOM      1  F   UNL     1       4.175   0.641  21.715  0.00  0.00    -0.205 F 
ATOM     18  C   UNL     1       0.456   0.236  23.463  0.00  0.00    +0.023 A 
ATOM     20  C   UNL     1       1.346   1.202  23.932  0.00  0.00    +0.014 A 
ATOM     21  C   UNL     1       0.822  -0.592  22.403  0.00  0.00    +0.014 A 
ATOM     22  C   UNL     1       2.603   1.339  23.342  0.00  0.00    +0.039 A 
ATOM     23  C   UNL     1       2.078  -0.456  21.813  0.00  0.00    +0.039 A 
ATOM     24  C   UNL     1       2.968   0.510  22.282  0.00  0.00    +0.123 A 
ENDBRANCH  16  18
ENDBRANCH   9  14
BRANCH  11   2
ATOM      2  O   UNL     1      -7.341   1.697  24.778  0.00  0.00    -0.390 OA
ATOM     25  H   UNL     1      -7.597   0.817  24.454  0.00  0.00    +0.210 HD
ENDBRANCH  11   2
BRANCH   4  13
ATOM     13  C   UNL     1      -3.207   3.500  26.274  0.00  0.00    +0.159 C 
BRANCH  13  15
ATOM      6  N   UNL     1      -0.901   3.687  25.315  0.00  0.00    -0.347 N 
ATOM      7  N   UNL     1      -2.127   5.537  25.251  0.00  0.00    -0.239 NA
ATOM     15  C   UNL     1      -2.099   4.274  25.612  0.00  0.00    +0.121 A 
ATOM     17  C   UNL     1      -0.114   4.638  24.727  0.00  0.00    +0.104 A 
ATOM     19  C   UNL     1      -0.892   5.770  24.698  0.00  0.00    +0.130 A 
ATOM     26  H   UNL     1      -0.641   2.727  25.499  0.00  0.00    +0.167 HD
ENDBRANCH  13  15
ENDBRANCH   4  13
TORSDOF 5
ENDMDL
MODEL 4
REMARK VINA RESULT:      -2.5      2.188      4.205
REMARK  Name = 26744419
REMARK  5 active torsions:
REMARK  status: ('A' for Active; 'I' for Inactive)
REMARK    1  A    between atoms: O_2  and  C_11
REMARK    2  A    between atoms: N_4  and  C_13
REMARK    3  A    between atoms: C_9  and  C_14
REMARK    4  A    between atoms: C_13  and  C_15
REMARK    5  A    between atoms: C_16  and  C_18
REMARK                            x       y       z     vdW  Elec       q    Type
REMARK                         _______ _______ _______ _____ _____    ______ ____
ROOT
ATOM      4  N   UNL     1      -3.221  -0.383  24.537  0.00  0.00    -0.282 NA
ATOM      9  C   UNL     1      -2.022  -1.201  24.809  0.00  0.00    +0.149 C 
ATOM     10  C   UNL     1      -2.353  -2.589  24.231  0.00  0.00    +0.061 C 
ATOM     11  C   UNL     1      -3.775  -2.465  23.697  0.00  0.00    +0.130 C 
ATOM     12  C   UNL     1      -4.351  -1.308  24.490  0.00  0.00    +0.117 C 
ENDROOT
BRANCH   9  14
ATOM      3  O   UNL     1      -0.924   0.501  23.441  0.00  0.00    -0.336 OA
ATOM      5  N   UNL     1       0.480  -0.998  24.335  0.00  0.00    -0.190 NA
ATOM      8  N   UNL     1       0.359   0.863  23.012  0.00  0.00    -0.056 NA
ATOM     14  C   UNL     1      -0.763  -0.605  24.215  0.00  0.00    +0.245 A 
ATOM     16  C   UNL     1       1.131  -0.068  23.579  0.00  0.00    +0.202 A 
BRANCH  16  18
ATOM      1  F   UNL     1       6.656  -0.175  22.935  0.00  0.00    -0.205 F 
ATOM     18  C   UNL     1       2.555  -0.095  23.413  0.00  0.00    +0.023 A 
ATOM     20  C   UNL     1       3.284  -1.212  23.822  0.00  0.00    +0.014 A 
ATOM     21  C   UNL     1       3.212   0.994  22.842  0.00  0.00    +0.014 A 
ATOM     22  C   UNL     1       4.669  -1.239  23.661  0.00  0.00    +0.039 A 
ATOM     23  C   UNL     1       4.597   0.967  22.681  0.00  0.00    +0.039 A 
ATOM     24  C   UNL     1       5.326  -0.149  23.090  0.00  0.00    +0.123 A 
ENDBRANCH  16  18
ENDBRANCH   9  14
BRANCH  11   2
ATOM      2  O   UNL     1      -4.498  -3.662  23.912  0.00  0.00    -0.390 OA
ATOM     25  H   UNL     1      -4.394  -4.212  23.117  0.00  0.00    +0.210 HD
ENDBRANCH  11   2
BRANCH   4  13
ATOM     13  C   UNL     1      -3.424   0.681  25.512  0.00  0.00    +0.159 C 
BRANCH  13  15
ATOM      6  N   UNL     1      -3.451   2.178  23.504  0.00  0.00    -0.347 N 
ATOM      7  N   UNL     1      -3.975   3.142  25.434  0.00  0.00    -0.239 NA
ATOM     15  C   UNL     1      -3.626   2.018  24.849  0.00  0.00    +0.121 A 
ATOM     17  C   UNL     1      -3.705   3.488  23.210  0.00  0.00    +0.104 A 
ATOM     19  C   UNL     1      -4.026   4.063  24.417  0.00  0.00    +0.130 A 
ATOM     26  H   UNL     1      -3.181   1.460  22.844  0.00  0.00    +0.167 HD
ENDBRANCH  13  15
ENDBRANCH   4  13
TORSDOF 5
ENDMDL
MODEL 5
REMARK VINA RESULT:      -2.4      2.389      4.088
REMARK  Name = 26744419
REMARK  5 active torsions:
REMARK  status: ('A' for Active; 'I' for Inactive)
REMARK    1  A    between atoms: O_2  and  C_11
REMARK    2  A    between atoms: N_4  and  C_13
REMARK    3  A    between atoms: C_9  and  C_14
REMARK    4  A    between atoms: C_13  and  C_15
REMARK    5  A    between atoms: C_16  and  C_18
REMARK                            x       y       z     vdW  Elec       q    Type
REMARK                         _______ _______ _______ _____ _____    ______ ____
ROOT
ATOM      4  N   UNL     1      -3.075  -0.009  24.422  0.00  0.00    -0.282 NA
ATOM      9  C   UNL     1      -1.966  -0.946  24.692  0.00  0.00    +0.149 C 
ATOM     10  C   UNL     1      -2.475  -2.313  24.197  0.00  0.00    +0.061 C 
ATOM     11  C   UNL     1      -3.895  -2.051  23.708  0.00  0.00    +0.130 C 
ATOM     12  C   UNL     1      -4.304  -0.799  24.462  0.00  0.00    +0.117 C 
ENDROOT
BRANCH   9  14
ATOM      3  O   UNL     1      -0.789   0.239  22.908  0.00  0.00    -0.336 OA
ATOM      5  N   UNL     1       0.562  -0.794  24.365  0.00  0.00    -0.190 NA
ATOM      8  N   UNL     1       0.518   0.496  22.477  0.00  0.00    -0.056 NA
ATOM     14  C   UNL     1      -0.673  -0.527  24.025  0.00  0.00    +0.245 A 
ATOM     16  C   UNL     1       1.258  -0.146  23.386  0.00  0.00    +0.202 A 
BRANCH  16  18
ATOM      1  F   UNL     1       6.818  -0.191  23.227  0.00  0.00    -0.205 F 
ATOM     18  C   UNL     1       2.691  -0.158  23.346  0.00  0.00    +0.023 A 
ATOM     20  C   UNL     1       3.384   0.949  22.857  0.00  0.00    +0.014 A 
ATOM     21  C   UNL     1       3.393  -1.276  23.794  0.00  0.00    +0.014 A 
ATOM     22  C   UNL     1       4.778   0.939  22.817  0.00  0.00    +0.039 A 
ATOM     23  C   UNL     1       4.787  -1.287  23.754  0.00  0.00    +0.039 A 
ATOM     24  C   UNL     1       5.480  -0.181  23.265  0.00  0.00    +0.123 A 
ENDBRANCH  16  18
ENDBRANCH   9  14
BRANCH  11   2
ATOM      2  O   UNL     1      -4.739  -3.145  24.009  0.00  0.00    -0.390 OA
ATOM     25  H   UNL     1      -5.435  -3.171  23.332  0.00  0.00    +0.210 HD
ENDBRANCH  11   2
BRANCH   4  13
ATOM     13  C   UNL     1      -3.116   1.115  25.348  0.00  0.00    +0.159 C 
BRANCH  13  15
ATOM      6  N   UNL     1      -1.747   2.739  24.020  0.00  0.00    -0.347 N 
ATOM      7  N   UNL     1      -0.977   2.257  26.046  0.00  0.00    -0.239 NA
ATOM     15  C   UNL     1      -1.933   2.030  25.173  0.00  0.00    +0.121 A 
ATOM     17  C   UNL     1      -0.598   3.466  24.167  0.00  0.00    +0.104 A 
ATOM     19  C   UNL     1      -0.142   3.152  25.425  0.00  0.00    +0.130 A 
ATOM     26  H   UNL     1      -2.346   2.728  23.205  0.00  0.00    +0.167 HD
ENDBRANCH  13  15
ENDBRANCH   4  13
TORSDOF 5
ENDMDL
MODEL 6
REMARK VINA RESULT:      -2.3      3.279      6.384
REMARK  Name = 26744419
REMARK  5 active torsions:
REMARK  status: ('A' for Active; 'I' for Inactive)
REMARK    1  A    between atoms: O_2  and  C_11
REMARK    2  A    between atoms: N_4  and  C_13
REMARK    3  A    between atoms: C_9  and  C_14
REMARK    4  A    between atoms: C_13  and  C_15
REMARK    5  A    between atoms: C_16  and  C_18
REMARK                            x       y       z     vdW  Elec       q    Type
REMARK                         _______ _______ _______ _____ _____    ______ ____
ROOT
ATOM      4  N   UNL     1       0.378  -0.595  23.674  0.00  0.00    -0.282 NA
ATOM      9  C   UNL     1       1.022   0.583  24.290  0.00  0.00    +0.149 C 
ATOM     10  C   UNL     1       1.933   1.155  23.188  0.00  0.00    +0.061 C 
ATOM     11  C   UNL     1       1.767   0.206  22.007  0.00  0.00    +0.130 C 
ATOM     12  C   UNL     1       1.302  -1.085  22.653  0.00  0.00    +0.117 C 
ENDROOT
BRANCH   9  14
ATOM      3  O   UNL     1       0.511   2.598  25.576  0.00  0.00    -0.336 OA
ATOM      5  N   UNL     1      -1.276   1.648  24.616  0.00  0.00    -0.190 NA
ATOM      8  N   UNL     1      -0.587   3.392  25.927  0.00  0.00    -0.056 NA
ATOM     14  C   UNL     1       0.018   1.593  24.804  0.00  0.00    +0.245 A 
ATOM     16  C   UNL     1      -1.604   2.768  25.324  0.00  0.00    +0.202 A 
BRANCH  16  18
ATOM      1  F   UNL     1      -6.850   4.588  25.648  0.00  0.00    -0.205 F 
ATOM     18  C   UNL     1      -2.956   3.237  25.408  0.00  0.00    +0.023 A 
ATOM     20  C   UNL     1      -3.994   2.474  24.873  0.00  0.00    +0.014 A 
ATOM     21  C   UNL     1      -3.234   4.457  26.024  0.00  0.00    +0.014 A 
ATOM     22  C   UNL     1      -5.309   2.930  24.954  0.00  0.00    +0.039 A 
ATOM     23  C   UNL     1      -4.550   4.913  26.105  0.00  0.00    +0.039 A 
ATOM     24  C   UNL     1      -5.587   4.150  25.570  0.00  0.00    +0.123 A 
ENDBRANCH  16  18
ENDBRANCH   9  14
BRANCH  11   2
ATOM      2  O   UNL     1       2.992   0.040  21.322  0.00  0.00    -0.390 OA
ATOM     25  H   UNL     1       2.852   0.317  20.401  0.00  0.00    +0.210 HD
ENDBRANCH  11   2
BRANCH   4  13
ATOM     13  C   UNL     1       0.029  -1.630  24.640  0.00  0.00    +0.159 C 
BRANCH  13  15
ATOM      6  N   UNL     1      -2.165  -0.954  25.641  0.00  0.00    -0.347 N 
ATOM      7  N   UNL     1      -2.242  -2.633  24.191  0.00  0.00    -0.239 NA
ATOM     15  C   UNL     1      -1.462  -1.768  24.799  0.00  0.00    +0.121 A 
ATOM     17  C   UNL     1      -3.479  -1.323  25.566  0.00  0.00    +0.104 A 
ATOM     19  C   UNL     1      -3.501  -2.361  24.665  0.00  0.00    +0.130 A 
ATOM     26  H   UNL     1      -1.785  -0.214  26.218  0.00  0.00    +0.167 HD
ENDBRANCH  13  15
ENDBRANCH   4  13
TORSDOF 5
ENDMDL
MODEL 7
REMARK VINA RESULT:      -1.1      2.284      3.626
REMARK  Name = 26744419
REMARK  5 active torsions:
REMARK  status: ('A' for Active; 'I' for Inactive)
REMARK    1  A    between atoms: O_2  and  C_11
REMARK    2  A    between atoms: N_4  and  C_13
REMARK    3  A    between atoms: C_9  and  C_14
REMARK    4  A    between atoms: C_13  and  C_15
REMARK    5  A    between atoms: C_16  and  C_18
REMARK                            x       y       z     vdW  Elec       q    Type
REMARK                         _______ _______ _______ _____ _____    ______ ____
ROOT
ATOM      4  N   UNL     1      -1.883   2.152  25.205  0.00  0.00    -0.282 NA
ATOM      9  C   UNL     1      -1.241   2.402  23.899  0.00  0.00    +0.149 C 
ATOM     10  C   UNL     1      -0.780   3.870  23.962  0.00  0.00    +0.061 C 
ATOM     11  C   UNL     1      -1.248   4.372  25.323  0.00  0.00    +0.130 C 
ATOM     12  C   UNL     1      -2.393   3.440  25.670  0.00  0.00    +0.117 C 
ENDROOT
BRANCH   9  14
ATOM      3  O   UNL     1      -0.449   0.222  23.127  0.00  0.00    -0.336 OA
ATOM      5  N   UNL     1       1.184   1.612  23.774  0.00  0.00    -0.190 NA
ATOM      8  N   UNL     1       0.751  -0.477  22.948  0.00  0.00    -0.056 NA
ATOM     14  C   UNL     1      -0.104   1.443  23.616  0.00  0.00    +0.245 A 
ATOM     16  C   UNL     1       1.668   0.408  23.351  0.00  0.00    +0.202 A 
BRANCH  16  18
ATOM      1  F   UNL     1       7.118  -0.705  23.317  0.00  0.00    -0.205 F 
ATOM     18  C   UNL     1       3.072   0.120  23.343  0.00  0.00    +0.023 A 
ATOM     20  C   UNL     1       3.982   1.096  22.934  0.00  0.00    +0.014 A 
ATOM     21  C   UNL     1       3.531  -1.134  23.743  0.00  0.00    +0.014 A 
ATOM     22  C   UNL     1       5.348   0.818  22.925  0.00  0.00    +0.039 A 
ATOM     23  C   UNL     1       4.897  -1.413  23.734  0.00  0.00    +0.039 A 
ATOM     24  C   UNL     1       5.806  -0.438  23.325  0.00  0.00    +0.123 A 
ENDBRANCH  16  18
ENDBRANCH   9  14
BRANCH  11   2
ATOM      2  O   UNL     1      -1.672   5.719  25.242  0.00  0.00    -0.390 OA
ATOM     25  H   UNL     1      -1.473   6.034  24.344  0.00  0.00    +0.210 HD
ENDBRANCH  11   2
BRANCH   4  13
ATOM     13  C   UNL     1      -2.929   1.138  25.146  0.00  0.00    +0.159 C 
BRANCH  13  15
ATOM      6  N   UNL     1      -5.406   1.081  24.781  0.00  0.00    -0.347 N 
ATOM      7  N   UNL     1      -4.614   2.918  25.744  0.00  0.00    -0.239 NA
ATOM     15  C   UNL     1      -4.303   1.744  25.241  0.00  0.00    +0.121 A 
ATOM     17  C   UNL     1      -6.490   1.883  25.006  0.00  0.00    +0.104 A 
ATOM     19  C   UNL     1      -5.976   3.010  25.601  0.00  0.00    +0.130 A 
ATOM     26  H   UNL     1      -5.420   0.166  24.351  0.00  0.00    +0.167 HD
ENDBRANCH  13  15
ENDBRANCH   4  13
TORSDOF 5
ENDMDL
MODEL 8
REMARK VINA RESULT:      -0.9      2.333      4.104
REMARK  Name = 26744419
REMARK  5 active torsions:
REMARK  status: ('A' for Active; 'I' for Inactive)
REMARK    1  A    between atoms: O_2  and  C_11
REMARK    2  A    between atoms: N_4  and  C_13
REMARK    3  A    between atoms: C_9  and  C_14
REMARK    4  A    between atoms: C_13  and  C_15
REMARK    5  A    between atoms: C_16  and  C_18
REMARK                            x       y       z     vdW  Elec       q    Type
REMARK                         _______ _______ _______ _____ _____    ______ ____
ROOT
ATOM      4  N   UNL     1      -2.806   1.174  23.491  0.00  0.00    -0.282 NA
ATOM      9  C   UNL     1      -1.810   0.866  24.537  0.00  0.00    +0.149 C 
ATOM     10  C   UNL     1      -2.517  -0.131  25.473  0.00  0.00    +0.061 C 
ATOM     11  C   UNL     1      -3.920  -0.286  24.897  0.00  0.00    +0.130 C 
ATOM     12  C   UNL     1      -4.120   0.992  24.104  0.00  0.00    +0.117 C 
ENDROOT
BRANCH   9  14
ATOM      3  O   UNL     1      -0.634  -0.686  23.060  0.00  0.00    -0.336 OA
ATOM      5  N   UNL     1       0.717   0.672  24.221  0.00  0.00    -0.190 NA
ATOM      8  N   UNL     1       0.673  -1.022  22.684  0.00  0.00    -0.056 NA
ATOM     14  C   UNL     1      -0.517   0.319  23.967  0.00  0.00    +0.245 A 
ATOM     16  C   UNL     1       1.412  -0.178  23.411  0.00  0.00    +0.202 A 
BRANCH  16  18
ATOM      1  F   UNL     1       6.969  -0.104  23.172  0.00  0.00    -0.205 F 
ATOM     18  C   UNL     1       2.844  -0.159  23.349  0.00  0.00    +0.023 A 
ATOM     20  C   UNL     1       3.575  -1.283  23.734  0.00  0.00    +0.014 A 
ATOM     21  C   UNL     1       3.508   0.984  22.904  0.00  0.00    +0.014 A 
ATOM     22  C   UNL     1       4.968  -1.265  23.674  0.00  0.00    +0.039 A 
ATOM     23  C   UNL     1       4.901   1.002  22.844  0.00  0.00    +0.039 A 
ATOM     24  C   UNL     1       5.631  -0.121  23.230  0.00  0.00    +0.123 A 
ENDBRANCH  16  18
ENDBRANCH   9  14
BRANCH  11   2
ATOM      2  O   UNL     1      -4.875  -0.418  25.931  0.00  0.00    -0.390 OA
ATOM     25  H   UNL     1      -5.563  -1.028  25.617  0.00  0.00    +0.210 HD
ENDBRANCH  11   2
BRANCH   4  13
ATOM     13  C   UNL     1      -2.647   2.506  22.921  0.00  0.00    +0.159 C 
BRANCH  13  15
ATOM      6  N   UNL     1      -2.939   4.027  24.891  0.00  0.00    -0.347 N 
ATOM      7  N   UNL     1      -0.894   3.943  24.029  0.00  0.00    -0.239 NA
ATOM     15  C   UNL     1      -2.124   3.491  23.933  0.00  0.00    +0.121 A 
ATOM     17  C   UNL     1      -2.179   4.875  25.647  0.00  0.00    +0.104 A 
ATOM     19  C   UNL     1      -0.921   4.806  25.096  0.00  0.00    +0.130 A 
ATOM     26  H   UNL     1      -3.924   3.834  25.017  0.00  0.00    +0.167 HD
ENDBRANCH  13  15
ENDBRANCH   4  13
TORSDOF 5
ENDMDL
MODEL 9
REMARK VINA RESULT:      -0.5      3.274      3.863
REMARK  Name = 26744419
REMARK  5 active torsions:
REMARK  status: ('A' for Active; 'I' for Inactive)
REMARK    1  A    between atoms: O_2  and  C_11
REMARK    2  A    between atoms: N_4  and  C_13
REMARK    3  A    between atoms: C_9  and  C_14
REMARK    4  A    between atoms: C_13  and  C_15
REMARK    5  A    between atoms: C_16  and  C_18
REMARK                            x       y       z     vdW  Elec       q    Type
REMARK                         _______ _______ _______ _____ _____    ______ ____
ROOT
ATOM      4  N   UNL     1      -4.154   1.751  24.706  0.00  0.00    -0.282 NA
ATOM      9  C   UNL     1      -3.302   2.950  24.570  0.00  0.00    +0.149 C 
ATOM     10  C   UNL     1      -4.093   4.075  25.264  0.00  0.00    +0.061 C 
ATOM     11  C   UNL     1      -5.393   3.422  25.716  0.00  0.00    +0.130 C 
ATOM     12  C   UNL     1      -5.533   2.230  24.789  0.00  0.00    +0.117 C 
ENDROOT
BRANCH   9  14
ATOM      3  O   UNL     1      -0.940   2.384  24.297  0.00  0.00    -0.336 OA
ATOM      5  N   UNL     1      -1.523   2.885  26.401  0.00  0.00    -0.190 NA
ATOM      8  N   UNL     1       0.226   2.264  25.063  0.00  0.00    -0.056 NA
ATOM     14  C   UNL     1      -1.922   2.753  25.162  0.00  0.00    +0.245 A 
ATOM     16  C   UNL     1      -0.199   2.575  26.292  0.00  0.00    +0.202 A 
BRANCH  16  18
ATOM      1  F   UNL     1       3.186   2.620  30.706  0.00  0.00    -0.205 F 
ATOM     18  C   UNL     1       0.674   2.587  27.430  0.00  0.00    +0.023 A 
ATOM     20  C   UNL     1       0.187   2.228  28.687  0.00  0.00    +0.014 A 
ATOM     21  C   UNL     1       2.010   2.956  27.280  0.00  0.00    +0.014 A 
ATOM     22  C   UNL     1       1.035   2.239  29.793  0.00  0.00    +0.039 A 
ATOM     23  C   UNL     1       2.859   2.967  28.387  0.00  0.00    +0.039 A 
ATOM     24  C   UNL     1       2.371   2.609  29.644  0.00  0.00    +0.123 A 
ENDBRANCH  16  18
ENDBRANCH   9  14
BRANCH  11   2
ATOM      2  O   UNL     1      -6.478   4.321  25.584  0.00  0.00    -0.390 OA
ATOM     25  H   UNL     1      -6.237   4.971  24.903  0.00  0.00    +0.210 HD
ENDBRANCH  11   2
BRANCH   4  13
ATOM     13  C   UNL     1      -3.972   0.791  23.624  0.00  0.00    +0.159 C 
BRANCH  13  15
ATOM      6  N   UNL     1      -2.149  -0.654  24.554  0.00  0.00    -0.347 N 
ATOM      7  N   UNL     1      -4.101  -1.658  24.218  0.00  0.00    -0.239 NA
ATOM     15  C   UNL     1      -3.441  -0.525  24.127  0.00  0.00    +0.121 A 
ATOM     17  C   UNL     1      -1.974  -1.953  24.943  0.00  0.00    +0.104 A 
ATOM     19  C   UNL     1      -3.192  -2.552  24.726  0.00  0.00    +0.130 A 
ATOM     26  H   UNL     1      -1.449   0.076  24.577  0.00  0.00    +0.167 HD
ENDBRANCH  13  15
ENDBRANCH   4  13
TORSDOF 5
ENDMDL
MODEL 10
REMARK VINA RESULT:      -0.5      2.954      5.444
REMARK  Name = 26744419
REMARK  5 active torsions:
REMARK  status: ('A' for Active; 'I' for Inactive)
REMARK    1  A    between atoms: O_2  and  C_11
REMARK    2  A    between atoms: N_4  and  C_13
REMARK    3  A    between atoms: C_9  and  C_14
REMARK    4  A    between atoms: C_13  and  C_15
REMARK    5  A    between atoms: C_16  and  C_18
REMARK                            x       y       z     vdW  Elec       q    Type
REMARK                         _______ _______ _______ _____ _____    ______ ____
ROOT
ATOM      4  N   UNL     1      -0.810   3.667  25.002  0.00  0.00    -0.282 NA
ATOM      9  C   UNL     1      -2.007   3.566  25.860  0.00  0.00    +0.149 C 
ATOM     10  C   UNL     1      -2.752   4.898  25.656  0.00  0.00    +0.061 C 
ATOM     11  C   UNL     1      -1.873   5.699  24.702  0.00  0.00    +0.130 C 
ATOM     12  C   UNL     1      -0.497   5.090  24.894  0.00  0.00    +0.117 C 
ENDROOT
BRANCH   9  14
ATOM      3  O   UNL     1      -4.205   2.567  25.472  0.00  0.00    -0.336 OA
ATOM      5  N   UNL     1      -2.499   1.127  25.283  0.00  0.00    -0.190 NA
ATOM      8  N   UNL     1      -4.774   1.328  25.155  0.00  0.00    -0.056 NA
ATOM     14  C   UNL     1      -2.862   2.360  25.528  0.00  0.00    +0.245 A 
ATOM     16  C   UNL     1      -3.706   0.531  25.061  0.00  0.00    +0.202 A 
BRANCH  16  18
ATOM      1  F   UNL     1      -4.114  -4.879  23.829  0.00  0.00    -0.205 F 
ATOM     18  C   UNL     1      -3.811  -0.864  24.743  0.00  0.00    +0.023 A 
ATOM     20  C   UNL     1      -4.551  -1.273  23.634  0.00  0.00    +0.014 A 
ATOM     21  C   UNL     1      -3.173  -1.811  25.543  0.00  0.00    +0.014 A 
ATOM     22  C   UNL     1      -4.653  -2.629  23.325  0.00  0.00    +0.039 A 
ATOM     23  C   UNL     1      -3.276  -3.167  25.234  0.00  0.00    +0.039 A 
ATOM     24  C   UNL     1      -4.016  -3.577  24.126  0.00  0.00    +0.123 A 
ENDBRANCH  16  18
ENDBRANCH   9  14
BRANCH  11   2
ATOM      2  O   UNL     1      -1.892   7.073  25.037  0.00  0.00    -0.390 OA
ATOM     25  H   UNL     1      -1.618   7.570  24.248  0.00  0.00    +0.210 HD
ENDBRANCH  11   2
BRANCH   4  13
ATOM     13  C   UNL     1       0.321   2.894  25.499  0.00  0.00    +0.159 C 
BRANCH  13  15
ATOM      6  N   UNL     1       0.001   0.494  24.853  0.00  0.00    -0.347 N 
ATOM      7  N   UNL     1       1.429   1.649  23.604  0.00  0.00    -0.239 NA
ATOM     15  C   UNL     1       0.608   1.698  24.630  0.00  0.00    +0.121 A 
ATOM     17  C   UNL     1       0.464  -0.379  23.909  0.00  0.00    +0.104 A 
ATOM     19  C   UNL     1       1.343   0.356  23.150  0.00  0.00    +0.130 A 
ATOM     26  H   UNL     1      -0.666   0.285  25.584  0.00  0.00    +0.167 HD
ENDBRANCH  13  15
ENDBRANCH   4  13
TORSDOF 5
ENDMDL
