MODEL 1
REMARK VINA RESULT:      -1.2      0.000      0.000
REMARK  Name = 11913093
REMARK  10 active torsions:
REMARK  status: ('A' for Active; 'I' for Inactive)
REMARK    1  A    between atoms: O_3  and  C_13
REMARK    2  A    between atoms: O_3  and  C_17
REMARK    3  A    between atoms: O_5  and  C_28
REMARK    4  A    between atoms: O_5  and  C_31
REMARK    5  A    between atoms: N_6  and  C_12
REMARK    6  A    between atoms: N_9  and  C_25
REMARK    7  A    between atoms: C_18  and  C_19
REMARK    8  A    between atoms: C_18  and  C_22
REMARK    9  A    between atoms: C_18  and  C_23
REMARK   10  A    between atoms: C_18  and  C_24
REMARK                            x       y       z     vdW  Elec       q    Type
REMARK                         _______ _______ _______ _____ _____    ______ ____
ROOT
ATOM      1  O   UNL     1      -2.438   0.382  24.866  0.00  0.00    -0.368 OA
ATOM      2  O   UNL     1      -3.975  -2.238  24.437  0.00  0.00    -0.368 OA
ATOM     10  C   UNL     1      -4.375  -0.977  25.013  0.00  0.00    +0.173 C 
ATOM     11  C   UNL     1      -3.179  -0.445  25.777  0.00  0.00    +0.192 C 
ATOM     12  C   UNL     1      -4.595   0.043  23.921  0.00  0.00    +0.130 C 
ATOM     13  C   UNL     1      -2.426  -1.707  26.126  0.00  0.00    +0.235 C 
ATOM     14  C   UNL     1      -3.185   0.536  23.649  0.00  0.00    +0.185 C 
ATOM     15  C   UNL     1      -2.659  -2.565  24.904  0.00  0.00    +0.207 C 
ENDROOT
BRANCH  12   6
ATOM      6  N   UNL     1      -5.421   1.129  24.408  0.00  0.00    -0.306 N 
ATOM      7  N   UNL     1      -3.569   2.528  24.754  0.00  0.00    -0.219 NA
ATOM      8  N   UNL     1      -5.803   3.285  25.251  0.00  0.00    -0.223 NA
ATOM     16  C   UNL     1      -4.916   2.350  24.817  0.00  0.00    +0.216 A 
ATOM     19  C   UNL     1      -3.112   3.731  25.160  0.00  0.00    +0.052 A 
ATOM     20  C   UNL     1      -3.926   4.746  25.616  0.00  0.00    +0.043 A 
ATOM     21  C   UNL     1      -5.277   4.464  25.641  0.00  0.00    +0.116 A 
ATOM     32  H   UNL     1      -6.429   1.025  24.409  0.00  0.00    +0.149 HD
BRANCH  19  18
ATOM     18  C   UNL     1      -1.636   3.943  25.097  0.00  0.00    +0.005 C 
ATOM     22  C   UNL     1      -1.283   5.463  25.099  0.00  0.00    +0.017 C 
ATOM     23  C   UNL     1      -0.926   3.352  23.835  0.00  0.00    +0.017 C 
ATOM     24  C   UNL     1      -0.920   3.292  26.321  0.00  0.00    +0.017 C 
ENDBRANCH  19  18
ENDBRANCH  12   6
BRANCH  13   3
ATOM      3  O   UNL     1      -1.055  -1.493  26.374  0.00  0.00    -0.442 OA
BRANCH   3  17
ATOM      4  O   UNL     1       0.211  -2.852  25.040  0.00  0.00    -0.226 OA
ATOM      9  N   UNL     1       0.125  -0.537  24.707  0.00  0.00    -0.251 N 
ATOM     17  C   UNL     1      -0.188  -1.730  25.329  0.00  0.00    +0.405 C 
ATOM     33  H   UNL     1      -0.310   0.298  25.093  0.00  0.00    +0.158 HD
BRANCH   9  25
ATOM     25  C   UNL     1       0.976  -0.330  23.598  0.00  0.00    +0.040 A 
ATOM     26  C   UNL     1       2.235   0.215  23.799  0.00  0.00    +0.069 A 
ATOM     27  C   UNL     1       0.537  -0.677  22.330  0.00  0.00    +0.023 A 
ATOM     28  C   UNL     1       3.074   0.419  22.704  0.00  0.00    +0.122 A 
ATOM     29  C   UNL     1       1.377  -0.474  21.236  0.00  0.00    +0.005 A 
ATOM     30  C   UNL     1       2.645   0.074  21.422  0.00  0.00    +0.046 A 
BRANCH  28   5
ATOM      5  O   UNL     1       4.313   0.953  22.886  0.00  0.00    -0.495 OA
ATOM     31  C   UNL     1       5.311   0.100  23.445  0.00  0.00    +0.277 C 
ENDBRANCH  28   5
ENDBRANCH   9  25
ENDBRANCH   3  17
ENDBRANCH  13   3
TORSDOF 6
ENDMDL
MODEL 2
REMARK VINA RESULT:       0.2      1.506      2.279
REMARK  Name = 11913093
REMARK  10 active torsions:
REMARK  status: ('A' for Active; 'I' for Inactive)
REMARK    1  A    between atoms: O_3  and  C_13
REMARK    2  A    between atoms: O_3  and  C_17
REMARK    3  A    between atoms: O_5  and  C_28
REMARK    4  A    between atoms: O_5  and  C_31
REMARK    5  A    between atoms: N_6  and  C_12
REMARK    6  A    between atoms: N_9  and  C_25
REMARK    7  A    between atoms: C_18  and  C_19
REMARK    8  A    between atoms: C_18  and  C_22
REMARK    9  A    between atoms: C_18  and  C_23
REMARK   10  A    between atoms: C_18  and  C_24
REMARK                            x       y       z     vdW  Elec       q    Type
REMARK                         _______ _______ _______ _____ _____    ______ ____
ROOT
ATOM      1  O   UNL     1      -3.255  -1.013  23.392  0.00  0.00    -0.368 OA
ATOM      2  O   UNL     1      -1.905  -1.250  26.137  0.00  0.00    -0.368 OA
ATOM     10  C   UNL     1      -2.712  -0.205  25.554  0.00  0.00    +0.173 C 
ATOM     11  C   UNL     1      -2.349  -0.139  24.085  0.00  0.00    +0.192 C 
ATOM     12  C   UNL     1      -4.166  -0.616  25.554  0.00  0.00    +0.130 C 
ATOM     13  C   UNL     1      -0.937  -0.672  24.072  0.00  0.00    +0.235 C 
ATOM     14  C   UNL     1      -4.259  -1.478  24.307  0.00  0.00    +0.185 C 
ATOM     15  C   UNL     1      -0.988  -1.735  25.146  0.00  0.00    +0.207 C 
ENDROOT
BRANCH  12   6
ATOM      6  N   UNL     1      -5.016   0.549  25.423  0.00  0.00    -0.306 N 
ATOM      7  N   UNL     1      -3.183   2.002  25.239  0.00  0.00    -0.219 NA
ATOM      8  N   UNL     1      -5.441   2.841  25.154  0.00  0.00    -0.223 NA
ATOM     16  C   UNL     1      -4.532   1.836  25.267  0.00  0.00    +0.216 A 
ATOM     19  C   UNL     1      -2.746   3.270  25.085  0.00  0.00    +0.052 A 
ATOM     20  C   UNL     1      -3.584   4.359  24.961  0.00  0.00    +0.043 A 
ATOM     21  C   UNL     1      -4.935   4.082  25.003  0.00  0.00    +0.116 A 
ATOM     32  H   UNL     1      -6.022   0.430  25.390  0.00  0.00    +0.149 HD
BRANCH  19  18
ATOM     18  C   UNL     1      -1.268   3.471  25.052  0.00  0.00    +0.005 C 
ATOM     22  C   UNL     1      -0.903   4.988  25.061  0.00  0.00    +0.017 C 
ATOM     23  C   UNL     1      -0.538   2.874  23.804  0.00  0.00    +0.017 C 
ATOM     24  C   UNL     1      -0.581   2.814  26.289  0.00  0.00    +0.017 C 
ENDBRANCH  19  18
ENDBRANCH  12   6
BRANCH  13   3
ATOM      3  O   UNL     1      -0.545  -1.196  22.823  0.00  0.00    -0.442 OA
BRANCH   3  17
ATOM      4  O   UNL     1       0.866  -0.669  21.102  0.00  0.00    -0.226 OA
ATOM      9  N   UNL     1       1.512  -0.427  23.339  0.00  0.00    -0.251 N 
ATOM     17  C   UNL     1       0.653  -0.749  22.307  0.00  0.00    +0.405 C 
ATOM     33  H   UNL     1       1.151  -0.561  24.281  0.00  0.00    +0.158 HD
BRANCH   9  25
ATOM     25  C   UNL     1       2.833   0.067  23.251  0.00  0.00    +0.040 A 
ATOM     26  C   UNL     1       3.893  -0.767  23.572  0.00  0.00    +0.069 A 
ATOM     27  C   UNL     1       3.044   1.374  22.845  0.00  0.00    +0.023 A 
ATOM     28  C   UNL     1       5.197  -0.279  23.485  0.00  0.00    +0.122 A 
ATOM     29  C   UNL     1       4.348   1.861  22.757  0.00  0.00    +0.005 A 
ATOM     30  C   UNL     1       5.424   1.035  23.077  0.00  0.00    +0.046 A 
BRANCH  28   5
ATOM      5  O   UNL     1       6.248  -1.087  23.796  0.00  0.00    -0.495 OA
ATOM     31  C   UNL     1       7.491  -0.810  23.155  0.00  0.00    +0.277 C 
ENDBRANCH  28   5
ENDBRANCH   9  25
ENDBRANCH   3  17
ENDBRANCH  13   3
TORSDOF 6
ENDMDL
MODEL 3
REMARK VINA RESULT:       0.4     14.400     17.511
REMARK  Name = 11913093
REMARK  10 active torsions:
REMARK  status: ('A' for Active; 'I' for Inactive)
REMARK    1  A    between atoms: O_3  and  C_13
REMARK    2  A    between atoms: O_3  and  C_17
REMARK    3  A    between atoms: O_5  and  C_28
REMARK    4  A    between atoms: O_5  and  C_31
REMARK    5  A    between atoms: N_6  and  C_12
REMARK    6  A    between atoms: N_9  and  C_25
REMARK    7  A    between atoms: C_18  and  C_19
REMARK    8  A    between atoms: C_18  and  C_22
REMARK    9  A    between atoms: C_18  and  C_23
REMARK   10  A    between atoms: C_18  and  C_24
REMARK                            x       y       z     vdW  Elec       q    Type
REMARK                         _______ _______ _______ _____ _____    ______ ____
ROOT
ATOM      1  O   UNL     1      -4.781  -8.863  11.395  0.00  0.00    -0.368 OA
ATOM      2  O   UNL     1      -5.052 -10.466   8.793  0.00  0.00    -0.368 OA
ATOM     10  C   UNL     1      -4.094  -9.470   9.208  0.00  0.00    +0.173 C 
ATOM     11  C   UNL     1      -4.855  -8.443  10.023  0.00  0.00    +0.192 C 
ATOM     12  C   UNL     1      -3.119 -10.069  10.194  0.00  0.00    +0.130 C 
ATOM     13  C   UNL     1      -6.256  -8.564   9.475  0.00  0.00    +0.235 C 
ATOM     14  C   UNL     1      -3.884  -9.979  11.503  0.00  0.00    +0.185 C 
ATOM     15  C   UNL     1      -6.363 -10.046   9.196  0.00  0.00    +0.207 C 
ENDROOT
BRANCH  12   6
ATOM      6  N   UNL     1      -1.915  -9.267  10.260  0.00  0.00    -0.306 N 
ATOM      7  N   UNL     1      -1.714  -9.562  12.579  0.00  0.00    -0.219 NA
ATOM      8  N   UNL     1      -0.106  -8.250  11.354  0.00  0.00    -0.223 NA
ATOM     16  C   UNL     1      -1.225  -9.019  11.433  0.00  0.00    +0.216 A 
ATOM     19  C   UNL     1      -1.015  -9.300  13.704  0.00  0.00    +0.052 A 
ATOM     20  C   UNL     1       0.131  -8.533  13.732  0.00  0.00    +0.043 A 
ATOM     21  C   UNL     1       0.543  -8.028  12.516  0.00  0.00    +0.116 A 
ATOM     32  H   UNL     1      -1.514  -8.902   9.404  0.00  0.00    +0.149 HD
BRANCH  19  18
ATOM     18  C   UNL     1      -1.539  -9.889  14.971  0.00  0.00    +0.005 C 
ATOM     22  C   UNL     1      -2.791 -10.781  14.704  0.00  0.00    +0.017 C 
ATOM     23  C   UNL     1      -1.988  -8.855  16.056  0.00  0.00    +0.017 C 
ATOM     24  C   UNL     1      -0.465 -10.781  15.665  0.00  0.00    +0.017 C 
ENDBRANCH  19  18
ENDBRANCH  12   6
BRANCH  13   3
ATOM      3  O   UNL     1      -7.250  -8.118  10.370  0.00  0.00    -0.442 OA
BRANCH   3  17
ATOM      4  O   UNL     1      -8.361 -10.104  10.601  0.00  0.00    -0.226 OA
ATOM      9  N   UNL     1      -7.954  -8.704  12.432  0.00  0.00    -0.251 N 
ATOM     17  C   UNL     1      -7.908  -9.083  11.104  0.00  0.00    +0.405 C 
ATOM     33  H   UNL     1      -7.517  -7.813  12.659  0.00  0.00    +0.158 HD
BRANCH   9  25
ATOM     25  C   UNL     1      -8.533  -9.400  13.516  0.00  0.00    +0.040 A 
ATOM     26  C   UNL     1      -7.746  -9.734  14.608  0.00  0.00    +0.069 A 
ATOM     27  C   UNL     1      -9.877  -9.735  13.469  0.00  0.00    +0.023 A 
ATOM     28  C   UNL     1      -8.318 -10.421  15.678  0.00  0.00    +0.122 A 
ATOM     29  C   UNL     1     -10.449 -10.421  14.540  0.00  0.00    +0.005 A 
ATOM     30  C   UNL     1      -9.669 -10.765  15.644  0.00  0.00    +0.046 A 
BRANCH  28   5
ATOM      5  O   UNL     1      -7.557 -10.755  16.757  0.00  0.00    -0.495 OA
ATOM     31  C   UNL     1      -7.277  -9.721  17.699  0.00  0.00    +0.277 C 
ENDBRANCH  28   5
ENDBRANCH   9  25
ENDBRANCH   3  17
ENDBRANCH  13   3
TORSDOF 6
ENDMDL
MODEL 4
REMARK VINA RESULT:       2.1      2.053      4.538
REMARK  Name = 11913093
REMARK  10 active torsions:
REMARK  status: ('A' for Active; 'I' for Inactive)
REMARK    1  A    between atoms: O_3  and  C_13
REMARK    2  A    between atoms: O_3  and  C_17
REMARK    3  A    between atoms: O_5  and  C_28
REMARK    4  A    between atoms: O_5  and  C_31
REMARK    5  A    between atoms: N_6  and  C_12
REMARK    6  A    between atoms: N_9  and  C_25
REMARK    7  A    between atoms: C_18  and  C_19
REMARK    8  A    between atoms: C_18  and  C_22
REMARK    9  A    between atoms: C_18  and  C_23
REMARK   10  A    between atoms: C_18  and  C_24
REMARK                            x       y       z     vdW  Elec       q    Type
REMARK                         _______ _______ _______ _____ _____    ______ ____
ROOT
ATOM      1  O   UNL     1      -3.032   1.946  25.550  0.00  0.00    -0.368 OA
ATOM      2  O   UNL     1      -5.219   4.002  24.921  0.00  0.00    -0.368 OA
ATOM     10  C   UNL     1      -4.891   2.737  24.310  0.00  0.00    +0.173 C 
ATOM     11  C   UNL     1      -3.380   2.619  24.330  0.00  0.00    +0.192 C 
ATOM     12  C   UNL     1      -5.358   1.602  25.191  0.00  0.00    +0.130 C 
ATOM     13  C   UNL     1      -2.940   4.063  24.341  0.00  0.00    +0.235 C 
ATOM     14  C   UNL     1      -4.228   1.487  26.199  0.00  0.00    +0.185 C 
ATOM     15  C   UNL     1      -4.004   4.714  25.195  0.00  0.00    +0.207 C 
ENDROOT
BRANCH  12   6
ATOM      6  N   UNL     1      -5.469   0.381  24.420  0.00  0.00    -0.306 N 
ATOM      7  N   UNL     1      -3.411  -0.430  25.203  0.00  0.00    -0.219 NA
ATOM      8  N   UNL     1      -4.740  -1.715  23.658  0.00  0.00    -0.223 NA
ATOM     16  C   UNL     1      -4.511  -0.618  24.427  0.00  0.00    +0.216 A 
ATOM     19  C   UNL     1      -2.498  -1.424  25.186  0.00  0.00    +0.052 A 
ATOM     20  C   UNL     1      -2.635  -2.577  24.441  0.00  0.00    +0.043 A 
ATOM     21  C   UNL     1      -3.787  -2.669  23.688  0.00  0.00    +0.116 A 
ATOM     32  H   UNL     1      -6.309   0.209  23.880  0.00  0.00    +0.149 HD
BRANCH  19  18
ATOM     18  C   UNL     1      -1.284  -1.234  26.032  0.00  0.00    +0.005 C 
ATOM     22  C   UNL     1      -1.569  -1.606  27.521  0.00  0.00    +0.017 C 
ATOM     23  C   UNL     1      -0.713   0.222  26.069  0.00  0.00    +0.017 C 
ATOM     24  C   UNL     1      -0.106  -2.131  25.540  0.00  0.00    +0.017 C 
ENDBRANCH  19  18
ENDBRANCH  12   6
BRANCH  13   3
ATOM      3  O   UNL     1      -1.646   4.252  24.868  0.00  0.00    -0.442 OA
BRANCH   3  17
ATOM      4  O   UNL     1       0.134   4.534  23.461  0.00  0.00    -0.226 OA
ATOM      9  N   UNL     1      -0.507   2.415  24.223  0.00  0.00    -0.251 N 
ATOM     17  C   UNL     1      -0.590   3.790  24.112  0.00  0.00    +0.405 C 
ATOM     33  H   UNL     1      -1.204   1.971  24.817  0.00  0.00    +0.158 HD
BRANCH   9  25
ATOM     25  C   UNL     1       0.426   1.547  23.613  0.00  0.00    +0.040 A 
ATOM     26  C   UNL     1       1.779   1.842  23.687  0.00  0.00    +0.069 A 
ATOM     27  C   UNL     1      -0.028   0.417  22.952  0.00  0.00    +0.023 A 
ATOM     28  C   UNL     1       2.699   0.985  23.085  0.00  0.00    +0.122 A 
ATOM     29  C   UNL     1       0.893  -0.440  22.351  0.00  0.00    +0.005 A 
ATOM     30  C   UNL     1       2.257  -0.156  22.417  0.00  0.00    +0.046 A 
BRANCH  28   5
ATOM      5  O   UNL     1       4.031   1.262  23.151  0.00  0.00    -0.495 OA
ATOM     31  C   UNL     1       4.922   0.150  23.221  0.00  0.00    +0.277 C 
ENDBRANCH  28   5
ENDBRANCH   9  25
ENDBRANCH   3  17
ENDBRANCH  13   3
TORSDOF 6
ENDMDL
MODEL 5
REMARK VINA RESULT:       2.3      2.059      4.029
REMARK  Name = 11913093
REMARK  10 active torsions:
REMARK  status: ('A' for Active; 'I' for Inactive)
REMARK    1  A    between atoms: O_3  and  C_13
REMARK    2  A    between atoms: O_3  and  C_17
REMARK    3  A    between atoms: O_5  and  C_28
REMARK    4  A    between atoms: O_5  and  C_31
REMARK    5  A    between atoms: N_6  and  C_12
REMARK    6  A    between atoms: N_9  and  C_25
REMARK    7  A    between atoms: C_18  and  C_19
REMARK    8  A    between atoms: C_18  and  C_22
REMARK    9  A    between atoms: C_18  and  C_23
REMARK   10  A    between atoms: C_18  and  C_24
REMARK                            x       y       z     vdW  Elec       q    Type
REMARK                         _______ _______ _______ _____ _____    ______ ____
ROOT
ATOM      1  O   UNL     1      -2.253  -0.151  24.126  0.00  0.00    -0.368 OA
ATOM      2  O   UNL     1      -2.801  -3.128  24.623  0.00  0.00    -0.368 OA
ATOM     10  C   UNL     1      -3.260  -1.943  25.307  0.00  0.00    +0.173 C 
ATOM     11  C   UNL     1      -2.105  -0.961  25.303  0.00  0.00    +0.192 C 
ATOM     12  C   UNL     1      -4.328  -1.255  24.491  0.00  0.00    +0.130 C 
ATOM     13  C   UNL     1      -0.903  -1.869  25.211  0.00  0.00    +0.235 C 
ATOM     14  C   UNL     1      -3.509  -0.449  23.498  0.00  0.00    +0.185 C 
ATOM     15  C   UNL     1      -1.408  -2.977  24.315  0.00  0.00    +0.207 C 
ENDROOT
BRANCH  12   6
ATOM      6  N   UNL     1      -5.110  -0.372  25.330  0.00  0.00    -0.306 N 
ATOM      7  N   UNL     1      -4.474   1.529  24.110  0.00  0.00    -0.219 NA
ATOM      8  N   UNL     1      -5.956   1.710  26.002  0.00  0.00    -0.223 NA
ATOM     16  C   UNL     1      -5.182   0.997  25.142  0.00  0.00    +0.216 A 
ATOM     19  C   UNL     1      -4.568   2.867  23.957  0.00  0.00    +0.052 A 
ATOM     20  C   UNL     1      -5.325   3.681  24.773  0.00  0.00    +0.043 A 
ATOM     21  C   UNL     1      -6.004   3.042  25.790  0.00  0.00    +0.116 A 
ATOM     32  H   UNL     1      -5.683  -0.765  26.068  0.00  0.00    +0.149 HD
BRANCH  19  18
ATOM     18  C   UNL     1      -3.797   3.467  22.830  0.00  0.00    +0.005 C 
ATOM     22  C   UNL     1      -4.636   3.481  21.514  0.00  0.00    +0.017 C 
ATOM     23  C   UNL     1      -2.463   2.736  22.464  0.00  0.00    +0.017 C 
ATOM     24  C   UNL     1      -3.391   4.940  23.144  0.00  0.00    +0.017 C 
ENDBRANCH  19  18
ENDBRANCH  12   6
BRANCH  13   3
ATOM      3  O   UNL     1       0.240  -1.237  24.682  0.00  0.00    -0.442 OA
BRANCH   3  17
ATOM      4  O   UNL     1       0.221   0.346  23.032  0.00  0.00    -0.226 OA
ATOM      9  N   UNL     1      -0.247   0.888  25.260  0.00  0.00    -0.251 N 
ATOM     17  C   UNL     1       0.081   0.050  24.212  0.00  0.00    +0.405 C 
ATOM     33  H   UNL     1      -0.319   0.453  26.177  0.00  0.00    +0.158 HD
BRANCH   9  25
ATOM     25  C   UNL     1      -0.496   2.279  25.218  0.00  0.00    +0.040 A 
ATOM     26  C   UNL     1      -1.589   2.794  25.897  0.00  0.00    +0.069 A 
ATOM     27  C   UNL     1       0.358   3.100  24.500  0.00  0.00    +0.023 A 
ATOM     28  C   UNL     1      -1.834   4.167  25.855  0.00  0.00    +0.122 A 
ATOM     29  C   UNL     1       0.113   4.473  24.459  0.00  0.00    +0.005 A 
ATOM     30  C   UNL     1      -0.984   5.006  25.136  0.00  0.00    +0.046 A 
BRANCH  28   5
ATOM      5  O   UNL     1      -2.904   4.687  26.518  0.00  0.00    -0.495 OA
ATOM     31  C   UNL     1      -3.227   4.110  27.781  0.00  0.00    +0.277 C 
ENDBRANCH  28   5
ENDBRANCH   9  25
ENDBRANCH   3  17
ENDBRANCH  13   3
TORSDOF 6
ENDMDL
