MODEL 1
REMARK VINA RESULT:       1.9      0.000      0.000
REMARK  Name = 51137446
REMARK  7 active torsions:
REMARK  status: ('A' for Active; 'I' for Inactive)
REMARK    1  A    between atoms: S_1  and  C_20
REMARK    2  A    between atoms: S_1  and  C_24
REMARK    3  A    between atoms: N_5  and  C_12
REMARK    4  A    between atoms: C_8  and  C_13
REMARK    5  A    between atoms: C_12  and  C_14
REMARK    6  A    between atoms: C_17  and  C_21
REMARK    7  A    between atoms: C_27  and  C_28
REMARK                            x       y       z     vdW  Elec       q    Type
REMARK                         _______ _______ _______ _____ _____    ______ ____
ROOT
ATOM      5  N   UNL     1      -1.560  -3.070  24.467  0.00  0.00    -0.297 NA
ATOM      8  C   UNL     1       0.239  -1.685  23.882  0.00  0.00    +0.092 C 
ATOM      9  C   UNL     1       0.544  -2.390  25.215  0.00  0.00    +0.029 C 
ATOM     10  C   UNL     1      -1.272  -1.867  23.684  0.00  0.00    +0.097 C 
ATOM     11  C   UNL     1      -0.803  -2.903  25.707  0.00  0.00    +0.085 C 
ENDROOT
BRANCH   8  13
ATOM      2  O   UNL     1      -0.228   0.694  24.233  0.00  0.00    -0.420 OA
ATOM      6  N   UNL     1       1.809   0.275  23.408  0.00  0.00    -0.112 NA
ATOM      7  N   UNL     1       1.680   1.644  23.554  0.00  0.00    -0.107 NA
ATOM     13  C   UNL     1       0.672  -0.239  23.816  0.00  0.00    +0.222 A 
ATOM     17  C   UNL     1       0.476   1.841  24.039  0.00  0.00    +0.248 A 
BRANCH  17  21
ATOM     21  C   UNL     1      -0.198   3.058  24.389  0.00  0.00    +0.038 A 
ATOM     22  C   UNL     1       0.103   4.241  23.714  0.00  0.00    +0.013 A 
ATOM     23  C   UNL     1      -1.155   3.057  25.403  0.00  0.00    +0.013 A 
ATOM     25  C   UNL     1      -0.554   5.424  24.055  0.00  0.00    +0.004 A 
ATOM     26  C   UNL     1      -1.812   4.241  25.743  0.00  0.00    +0.004 A 
ATOM     27  C   UNL     1      -1.511   5.424  25.069  0.00  0.00    -0.050 A 
ATOM     28  C   UNL     1      -2.212   6.689  25.433  0.00  0.00    +0.044 C 
ENDBRANCH  17  21
ENDBRANCH   8  13
BRANCH   5  12
ATOM     12  C   UNL     1      -2.986  -3.247  24.708  0.00  0.00    +0.119 C 
BRANCH  12  14
ATOM     14  C   UNL     1      -3.698  -1.929  24.856  0.00  0.00    -0.033 A 
ATOM     15  C   UNL     1      -3.575  -1.198  26.037  0.00  0.00    +0.007 A 
ATOM     16  C   UNL     1      -4.482  -1.439  23.811  0.00  0.00    +0.007 A 
ATOM     18  C   UNL     1      -4.234   0.023  26.174  0.00  0.00    +0.027 A 
ATOM     19  C   UNL     1      -5.141  -0.218  23.948  0.00  0.00    +0.027 A 
ATOM     20  C   UNL     1      -5.018   0.512  25.129  0.00  0.00    +0.088 A 
BRANCH  20   1
ATOM      1  S   UNL     1      -5.842   2.043  25.300  0.00  0.00    -0.006 S 
ATOM      3  O   UNL     1      -7.079   2.001  24.533  0.00  0.00    -0.170 OA
ATOM      4  O   UNL     1      -5.881   2.376  26.716  0.00  0.00    -0.170 OA
ATOM     24  C   UNL     1      -4.772   3.213  24.493  0.00  0.00    +0.200 C 
ENDBRANCH  20   1
ENDBRANCH  12  14
ENDBRANCH   5  12
TORSDOF 5
ENDMDL
MODEL 2
REMARK VINA RESULT:       3.0      2.924      7.446
REMARK  Name = 51137446
REMARK  7 active torsions:
REMARK  status: ('A' for Active; 'I' for Inactive)
REMARK    1  A    between atoms: S_1  and  C_20
REMARK    2  A    between atoms: S_1  and  C_24
REMARK    3  A    between atoms: N_5  and  C_12
REMARK    4  A    between atoms: C_8  and  C_13
REMARK    5  A    between atoms: C_12  and  C_14
REMARK    6  A    between atoms: C_17  and  C_21
REMARK    7  A    between atoms: C_27  and  C_28
REMARK                            x       y       z     vdW  Elec       q    Type
REMARK                         _______ _______ _______ _____ _____    ______ ____
ROOT
ATOM      5  N   UNL     1      -2.613   5.091  25.531  0.00  0.00    -0.297 NA
ATOM      8  C   UNL     1      -4.559   3.798  25.322  0.00  0.00    +0.092 C 
ATOM      9  C   UNL     1      -4.332   4.153  26.803  0.00  0.00    +0.029 C 
ATOM     10  C   UNL     1      -3.215   4.095  24.643  0.00  0.00    +0.097 C 
ATOM     11  C   UNL     1      -2.878   4.599  26.883  0.00  0.00    +0.085 C 
ENDROOT
BRANCH   8  13
ATOM      2  O   UNL     1      -4.099   1.445  24.821  0.00  0.00    -0.420 OA
ATOM      6  N   UNL     1      -6.272   1.919  25.066  0.00  0.00    -0.112 NA
ATOM      7  N   UNL     1      -6.157   0.570  24.788  0.00  0.00    -0.107 NA
ATOM     13  C   UNL     1      -5.046   2.390  25.075  0.00  0.00    +0.222 A 
ATOM     17  C   UNL     1      -4.872   0.339  24.652  0.00  0.00    +0.248 A 
BRANCH  17  21
ATOM     21  C   UNL     1      -4.171  -0.878  24.361  0.00  0.00    +0.038 A 
ATOM     22  C   UNL     1      -4.834  -1.932  23.733  0.00  0.00    +0.013 A 
ATOM     23  C   UNL     1      -2.825  -1.007  24.706  0.00  0.00    +0.013 A 
ATOM     25  C   UNL     1      -4.151  -3.115  23.449  0.00  0.00    +0.004 A 
ATOM     26  C   UNL     1      -2.143  -2.191  24.422  0.00  0.00    +0.004 A 
ATOM     27  C   UNL     1      -2.807  -3.244  23.794  0.00  0.00    -0.050 A 
ATOM     28  C   UNL     1      -2.077  -4.509  23.491  0.00  0.00    +0.044 C 
ENDBRANCH  17  21
ENDBRANCH   8  13
BRANCH   5  12
ATOM     12  C   UNL     1      -1.191   5.275  25.277  0.00  0.00    +0.119 C 
BRANCH  12  14
ATOM     14  C   UNL     1      -0.543   4.013  24.771  0.00  0.00    -0.033 A 
ATOM     15  C   UNL     1      -0.563   2.858  25.553  0.00  0.00    +0.007 A 
ATOM     16  C   UNL     1       0.075   3.999  23.521  0.00  0.00    +0.007 A 
ATOM     18  C   UNL     1       0.037   1.689  25.085  0.00  0.00    +0.027 A 
ATOM     19  C   UNL     1       0.675   2.831  23.053  0.00  0.00    +0.027 A 
ATOM     20  C   UNL     1       0.656   1.676  23.834  0.00  0.00    +0.088 A 
BRANCH  20   1
ATOM      1  S   UNL     1       1.404   0.211  23.247  0.00  0.00    -0.006 S 
ATOM      3  O   UNL     1       1.261  -0.829  24.256  0.00  0.00    -0.170 OA
ATOM      4  O   UNL     1       0.925  -0.025  21.893  0.00  0.00    -0.170 OA
ATOM     24  C   UNL     1       3.136   0.606  23.152  0.00  0.00    +0.200 C 
ENDBRANCH  20   1
ENDBRANCH  12  14
ENDBRANCH   5  12
TORSDOF 5
ENDMDL
MODEL 3
REMARK VINA RESULT:       3.1      2.832      4.656
REMARK  Name = 51137446
REMARK  7 active torsions:
REMARK  status: ('A' for Active; 'I' for Inactive)
REMARK    1  A    between atoms: S_1  and  C_20
REMARK    2  A    between atoms: S_1  and  C_24
REMARK    3  A    between atoms: N_5  and  C_12
REMARK    4  A    between atoms: C_8  and  C_13
REMARK    5  A    between atoms: C_12  and  C_14
REMARK    6  A    between atoms: C_17  and  C_21
REMARK    7  A    between atoms: C_27  and  C_28
REMARK                            x       y       z     vdW  Elec       q    Type
REMARK                         _______ _______ _______ _____ _____    ______ ____
ROOT
ATOM      5  N   UNL     1      -3.492  -1.988  24.361  0.00  0.00    -0.297 NA
ATOM      8  C   UNL     1      -1.210  -1.742  23.884  0.00  0.00    +0.092 C 
ATOM      9  C   UNL     1      -1.382  -2.246  25.327  0.00  0.00    +0.029 C 
ATOM     10  C   UNL     1      -2.600  -1.229  23.483  0.00  0.00    +0.097 C 
ATOM     11  C   UNL     1      -2.840  -1.968  25.670  0.00  0.00    +0.085 C 
ENDROOT
BRANCH   8  13
ATOM      2  O   UNL     1       1.159  -1.159  23.668  0.00  0.00    -0.420 OA
ATOM      6  N   UNL     1      -0.226   0.595  23.563  0.00  0.00    -0.112 NA
ATOM      7  N   UNL     1       1.069   1.063  23.429  0.00  0.00    -0.107 NA
ATOM     13  C   UNL     1      -0.124  -0.707  23.699  0.00  0.00    +0.222 A 
ATOM     17  C   UNL     1       1.842   0.005  23.497  0.00  0.00    +0.248 A 
BRANCH  17  21
ATOM     21  C   UNL     1       3.270  -0.111  23.418  0.00  0.00    +0.038 A 
ATOM     22  C   UNL     1       4.027   0.940  22.901  0.00  0.00    +0.013 A 
ATOM     23  C   UNL     1       3.900  -1.273  23.860  0.00  0.00    +0.013 A 
ATOM     25  C   UNL     1       5.415   0.828  22.825  0.00  0.00    +0.004 A 
ATOM     26  C   UNL     1       5.289  -1.385  23.785  0.00  0.00    +0.004 A 
ATOM     27  C   UNL     1       6.046  -0.334  23.267  0.00  0.00    -0.050 A 
ATOM     28  C   UNL     1       7.531  -0.455  23.186  0.00  0.00    +0.044 C 
ENDBRANCH  17  21
ENDBRANCH   8  13
BRANCH   5  12
ATOM     12  C   UNL     1      -4.837  -1.430  24.403  0.00  0.00    +0.119 C 
BRANCH  12  14
ATOM     14  C   UNL     1      -4.819   0.063  24.595  0.00  0.00    -0.033 A 
ATOM     15  C   UNL     1      -5.721   0.664  25.473  0.00  0.00    +0.007 A 
ATOM     16  C   UNL     1      -3.901   0.845  23.894  0.00  0.00    +0.007 A 
ATOM     18  C   UNL     1      -5.704   2.047  25.651  0.00  0.00    +0.027 A 
ATOM     19  C   UNL     1      -3.884   2.228  24.072  0.00  0.00    +0.027 A 
ATOM     20  C   UNL     1      -4.786   2.829  24.950  0.00  0.00    +0.088 A 
BRANCH  20   1
ATOM      1  S   UNL     1      -4.764   4.561  25.175  0.00  0.00    -0.006 S 
ATOM      3  O   UNL     1      -4.340   5.193  23.933  0.00  0.00    -0.170 OA
ATOM      4  O   UNL     1      -6.025   4.949  25.790  0.00  0.00    -0.170 OA
ATOM     24  C   UNL     1      -3.469   4.836  26.364  0.00  0.00    +0.200 C 
ENDBRANCH  20   1
ENDBRANCH  12  14
ENDBRANCH   5  12
TORSDOF 5
ENDMDL
MODEL 4
REMARK VINA RESULT:       3.7      1.391      5.735
REMARK  Name = 51137446
REMARK  7 active torsions:
REMARK  status: ('A' for Active; 'I' for Inactive)
REMARK    1  A    between atoms: S_1  and  C_20
REMARK    2  A    between atoms: S_1  and  C_24
REMARK    3  A    between atoms: N_5  and  C_12
REMARK    4  A    between atoms: C_8  and  C_13
REMARK    5  A    between atoms: C_12  and  C_14
REMARK    6  A    between atoms: C_17  and  C_21
REMARK    7  A    between atoms: C_27  and  C_28
REMARK                            x       y       z     vdW  Elec       q    Type
REMARK                         _______ _______ _______ _____ _____    ______ ____
ROOT
ATOM      5  N   UNL     1      -0.615   5.190  24.868  0.00  0.00    -0.297 NA
ATOM      8  C   UNL     1       0.675   3.270  24.483  0.00  0.00    +0.092 C 
ATOM      9  C   UNL     1       0.756   4.198  23.258  0.00  0.00    +0.029 C 
ATOM     10  C   UNL     1      -0.526   3.790  25.286  0.00  0.00    +0.097 C 
ATOM     11  C   UNL     1      -0.410   5.165  23.419  0.00  0.00    +0.085 C 
ENDROOT
BRANCH   8  13
ATOM      2  O   UNL     1      -0.647   1.216  24.310  0.00  0.00    -0.420 OA
ATOM      6  N   UNL     1       1.502   0.969  23.740  0.00  0.00    -0.112 NA
ATOM      7  N   UNL     1       0.879  -0.257  23.598  0.00  0.00    -0.107 NA
ATOM     13  C   UNL     1       0.574   1.798  24.157  0.00  0.00    +0.222 A 
ATOM     17  C   UNL     1      -0.374  -0.065  23.943  0.00  0.00    +0.248 A 
BRANCH  17  21
ATOM     21  C   UNL     1      -1.477  -0.981  23.988  0.00  0.00    +0.038 A 
ATOM     22  C   UNL     1      -1.282  -2.287  24.435  0.00  0.00    +0.013 A 
ATOM     23  C   UNL     1      -2.746  -0.563  23.585  0.00  0.00    +0.013 A 
ATOM     25  C   UNL     1      -2.355  -3.177  24.479  0.00  0.00    +0.004 A 
ATOM     26  C   UNL     1      -3.819  -1.454  23.629  0.00  0.00    +0.004 A 
ATOM     27  C   UNL     1      -3.624  -2.760  24.077  0.00  0.00    -0.050 A 
ATOM     28  C   UNL     1      -4.771  -3.711  24.124  0.00  0.00    +0.044 C 
ENDBRANCH  17  21
ENDBRANCH   8  13
BRANCH   5  12
ATOM     12  C   UNL     1      -1.885   5.800  25.237  0.00  0.00    +0.119 C 
BRANCH  12  14
ATOM     14  C   UNL     1      -2.991   4.783  25.328  0.00  0.00    -0.033 A 
ATOM     15  C   UNL     1      -3.459   4.156  24.173  0.00  0.00    +0.007 A 
ATOM     16  C   UNL     1      -3.548   4.467  26.567  0.00  0.00    +0.007 A 
ATOM     18  C   UNL     1      -4.483   3.213  24.257  0.00  0.00    +0.027 A 
ATOM     19  C   UNL     1      -4.572   3.524  26.651  0.00  0.00    +0.027 A 
ATOM     20  C   UNL     1      -5.040   2.898  25.497  0.00  0.00    +0.088 A 
BRANCH  20   1
ATOM      1  S   UNL     1      -6.321   1.715  25.602  0.00  0.00    -0.006 S 
ATOM      3  O   UNL     1      -6.939   1.804  26.917  0.00  0.00    -0.170 OA
ATOM      4  O   UNL     1      -7.143   1.837  24.407  0.00  0.00    -0.170 OA
ATOM     24  C   UNL     1      -5.482   0.148  25.530  0.00  0.00    +0.200 C 
ENDBRANCH  20   1
ENDBRANCH  12  14
ENDBRANCH   5  12
TORSDOF 5
ENDMDL
MODEL 5
REMARK VINA RESULT:       4.3      2.850      5.250
REMARK  Name = 51137446
REMARK  7 active torsions:
REMARK  status: ('A' for Active; 'I' for Inactive)
REMARK    1  A    between atoms: S_1  and  C_20
REMARK    2  A    between atoms: S_1  and  C_24
REMARK    3  A    between atoms: N_5  and  C_12
REMARK    4  A    between atoms: C_8  and  C_13
REMARK    5  A    between atoms: C_12  and  C_14
REMARK    6  A    between atoms: C_17  and  C_21
REMARK    7  A    between atoms: C_27  and  C_28
REMARK                            x       y       z     vdW  Elec       q    Type
REMARK                         _______ _______ _______ _____ _____    ______ ____
ROOT
ATOM      5  N   UNL     1      -3.532  -2.579  25.187  0.00  0.00    -0.297 NA
ATOM      8  C   UNL     1      -4.844  -0.637  25.260  0.00  0.00    +0.092 C 
ATOM      9  C   UNL     1      -5.065  -1.357  23.918  0.00  0.00    +0.029 C 
ATOM     10  C   UNL     1      -3.566  -1.265  25.832  0.00  0.00    +0.097 C 
ATOM     11  C   UNL     1      -3.895  -2.324  23.793  0.00  0.00    +0.085 C 
ENDROOT
BRANCH   8  13
ATOM      2  O   UNL     1      -3.529   1.420  25.062  0.00  0.00    -0.420 OA
ATOM      6  N   UNL     1      -5.738   1.756  25.170  0.00  0.00    -0.112 NA
ATOM      7  N   UNL     1      -5.123   2.989  25.062  0.00  0.00    -0.107 NA
ATOM     13  C   UNL     1      -4.769   0.869  25.166  0.00  0.00    +0.222 A 
ATOM     17  C   UNL     1      -3.834   2.744  25.002  0.00  0.00    +0.248 A 
BRANCH  17  21
ATOM     21  C   UNL     1      -2.721   3.641  24.884  0.00  0.00    +0.038 A 
ATOM     22  C   UNL     1      -2.877   4.991  25.196  0.00  0.00    +0.013 A 
ATOM     23  C   UNL     1      -1.482   3.161  24.458  0.00  0.00    +0.013 A 
ATOM     25  C   UNL     1      -1.794   5.862  25.082  0.00  0.00    +0.004 A 
ATOM     26  C   UNL     1      -0.399   4.033  24.344  0.00  0.00    +0.004 A 
ATOM     27  C   UNL     1      -0.555   5.384  24.656  0.00  0.00    -0.050 A 
ATOM     28  C   UNL     1       0.603   6.316  24.534  0.00  0.00    +0.044 C 
ENDBRANCH  17  21
ENDBRANCH   8  13
BRANCH   5  12
ATOM     12  C   UNL     1      -2.233  -3.226  25.312  0.00  0.00    +0.119 C 
BRANCH  12  14
ATOM     14  C   UNL     1      -1.129  -2.388  24.723  0.00  0.00    -0.033 A 
ATOM     15  C   UNL     1       0.163  -2.475  25.240  0.00  0.00    +0.007 A 
ATOM     16  C   UNL     1      -1.400  -1.525  23.661  0.00  0.00    +0.007 A 
ATOM     18  C   UNL     1       1.186  -1.699  24.695  0.00  0.00    +0.027 A 
ATOM     19  C   UNL     1      -0.377  -0.750  23.116  0.00  0.00    +0.027 A 
ATOM     20  C   UNL     1       0.915  -0.836  23.632  0.00  0.00    +0.088 A 
BRANCH  20   1
ATOM      1  S   UNL     1       2.197   0.134  22.948  0.00  0.00    -0.006 S 
ATOM      3  O   UNL     1       2.182  -0.019  21.500  0.00  0.00    -0.170 OA
ATOM      4  O   UNL     1       2.116   1.463  23.536  0.00  0.00    -0.170 OA
ATOM     24  C   UNL     1       3.691  -0.633  23.534  0.00  0.00    +0.200 C 
ENDBRANCH  20   1
ENDBRANCH  12  14
ENDBRANCH   5  12
TORSDOF 5
ENDMDL
MODEL 6
REMARK VINA RESULT:       5.2      2.616      5.194
REMARK  Name = 51137446
REMARK  7 active torsions:
REMARK  status: ('A' for Active; 'I' for Inactive)
REMARK    1  A    between atoms: S_1  and  C_20
REMARK    2  A    between atoms: S_1  and  C_24
REMARK    3  A    between atoms: N_5  and  C_12
REMARK    4  A    between atoms: C_8  and  C_13
REMARK    5  A    between atoms: C_12  and  C_14
REMARK    6  A    between atoms: C_17  and  C_21
REMARK    7  A    between atoms: C_27  and  C_28
REMARK                            x       y       z     vdW  Elec       q    Type
REMARK                         _______ _______ _______ _____ _____    ______ ____
ROOT
ATOM      5  N   UNL     1      -5.478   0.391  25.012  0.00  0.00    -0.297 NA
ATOM      8  C   UNL     1      -4.041  -1.433  24.687  0.00  0.00    +0.092 C 
ATOM      9  C   UNL     1      -4.345  -1.278  26.187  0.00  0.00    +0.029 C 
ATOM     10  C   UNL     1      -4.478  -0.100  24.063  0.00  0.00    +0.097 C 
ATOM     11  C   UNL     1      -4.905   0.131  26.333  0.00  0.00    +0.085 C 
ENDROOT
BRANCH   8  13
ATOM      2  O   UNL     1      -1.757  -0.765  24.110  0.00  0.00    -0.420 OA
ATOM      6  N   UNL     1      -2.044  -2.977  24.286  0.00  0.00    -0.112 NA
ATOM      7  N   UNL     1      -0.721  -2.742  23.959  0.00  0.00    -0.107 NA
ATOM     13  C   UNL     1      -2.610  -1.795  24.364  0.00  0.00    +0.222 A 
ATOM     17  C   UNL     1      -0.600  -1.438  23.866  0.00  0.00    +0.248 A 
BRANCH  17  21
ATOM     21  C   UNL     1       0.543  -0.630  23.554  0.00  0.00    +0.038 A 
ATOM     22  C   UNL     1       0.547   0.727  23.877  0.00  0.00    +0.013 A 
ATOM     23  C   UNL     1       1.651  -1.201  22.930  0.00  0.00    +0.013 A 
ATOM     25  C   UNL     1       1.659   1.513  23.575  0.00  0.00    +0.004 A 
ATOM     26  C   UNL     1       2.764  -0.415  22.627  0.00  0.00    +0.004 A 
ATOM     27  C   UNL     1       2.767   0.942  22.950  0.00  0.00    -0.050 A 
ATOM     28  C   UNL     1       3.957   1.782  22.627  0.00  0.00    +0.044 C 
ENDBRANCH  17  21
ENDBRANCH   8  13
BRANCH   5  12
ATOM     12  C   UNL     1      -5.789   1.800  24.811  0.00  0.00    +0.119 C 
BRANCH  12  14
ATOM     14  C   UNL     1      -4.548   2.652  24.798  0.00  0.00    -0.033 A 
ATOM     15  C   UNL     1      -4.267   3.491  25.877  0.00  0.00    +0.007 A 
ATOM     16  C   UNL     1      -3.680   2.603  23.708  0.00  0.00    +0.007 A 
ATOM     18  C   UNL     1      -3.117   4.281  25.865  0.00  0.00    +0.027 A 
ATOM     19  C   UNL     1      -2.530   3.393  23.696  0.00  0.00    +0.027 A 
ATOM     20  C   UNL     1      -2.249   4.232  24.774  0.00  0.00    +0.088 A 
BRANCH  20   1
ATOM      1  S   UNL     1      -0.808   5.219  24.761  0.00  0.00    -0.006 S 
ATOM      3  O   UNL     1      -1.192   6.616  24.907  0.00  0.00    -0.170 OA
ATOM      4  O   UNL     1       0.146   4.630  25.689  0.00  0.00    -0.170 OA
ATOM     24  C   UNL     1      -0.158   5.030  23.116  0.00  0.00    +0.200 C 
ENDBRANCH  20   1
ENDBRANCH  12  14
ENDBRANCH   5  12
TORSDOF 5
ENDMDL
