MODEL 1
REMARK VINA RESULT:      -5.1      0.000      0.000
REMARK  Name = 45783685
REMARK  6 active torsions:
REMARK  status: ('A' for Active; 'I' for Inactive)
REMARK    1  A    between atoms: O_2  and  C_24
REMARK    2  A    between atoms: O_2  and  C_25
REMARK    3  A    between atoms: N_3  and  C_11
REMARK    4  A    between atoms: C_7  and  C_12
REMARK    5  A    between atoms: C_11  and  C_13
REMARK    6  A    between atoms: C_16  and  C_19
REMARK                            x       y       z     vdW  Elec       q    Type
REMARK                         _______ _______ _______ _____ _____    ______ ____
ROOT
ATOM      1  O   UNL     1      -2.116   2.616  25.620  0.00  0.00    -0.336 OA
ATOM      4  N   UNL     1      -1.836   1.764  23.568  0.00  0.00    -0.190 NA
ATOM      5  N   UNL     1      -0.766   2.255  25.528  0.00  0.00    -0.056 NA
ATOM     12  C   UNL     1      -2.674   2.292  24.423  0.00  0.00    +0.245 A 
ATOM     16  C   UNL     1      -0.679   1.761  24.291  0.00  0.00    +0.204 A 
ENDROOT
BRANCH  16  19
ATOM      6  N   UNL     1       2.912   1.565  23.343  0.00  0.00    -0.221 NA
ATOM     19  C   UNL     1       0.549   1.255  23.746  0.00  0.00    +0.041 A 
ATOM     21  C   UNL     1       0.595   0.018  23.113  0.00  0.00    +0.018 A 
ATOM     22  C   UNL     1       1.725   1.983  23.835  0.00  0.00    +0.126 A 
ATOM     23  C   UNL     1       1.799  -0.446  22.594  0.00  0.00    +0.068 A 
ATOM     24  C   UNL     1       2.918   0.359  22.734  0.00  0.00    +0.214 A 
BRANCH  24   2
ATOM      2  O   UNL     1       4.116  -0.077  22.231  0.00  0.00    -0.480 OA
ATOM     25  C   UNL     1       5.254   0.060  23.076  0.00  0.00    +0.279 C 
ENDBRANCH  24   2
ENDBRANCH  16  19
BRANCH  12   7
ATOM      3  N   UNL     1      -5.003   1.628  24.991  0.00  0.00    -0.287 NA
ATOM      7  C   UNL     1      -4.149   2.589  24.264  0.00  0.00    +0.146 C 
ATOM      8  C   UNL     1      -4.543   3.966  24.826  0.00  0.00    +0.030 C 
ATOM      9  C   UNL     1      -5.665   3.686  25.817  0.00  0.00    +0.017 C 
ATOM     10  C   UNL     1      -6.220   2.352  25.358  0.00  0.00    +0.085 C 
BRANCH   3  11
ATOM     11  C   UNL     1      -5.293   0.422  24.224  0.00  0.00    +0.120 C 
BRANCH  11  13
ATOM     13  C   UNL     1      -4.358  -0.704  24.578  0.00  0.00    -0.033 A 
ATOM     14  C   UNL     1      -3.525  -0.595  25.692  0.00  0.00    +0.005 A 
ATOM     15  C   UNL     1      -4.324  -1.855  23.791  0.00  0.00    +0.005 A 
ATOM     17  C   UNL     1      -2.658  -1.639  26.018  0.00  0.00    +0.000 A 
ATOM     18  C   UNL     1      -3.457  -2.898  24.118  0.00  0.00    +0.000 A 
ATOM     20  C   UNL     1      -2.624  -2.790  25.231  0.00  0.00    +0.000 A 
ENDBRANCH  11  13
ENDBRANCH   3  11
ENDBRANCH  12   7
TORSDOF 5
ENDMDL
MODEL 2
REMARK VINA RESULT:      -4.3     15.548     17.402
REMARK  Name = 45783685
REMARK  6 active torsions:
REMARK  status: ('A' for Active; 'I' for Inactive)
REMARK    1  A    between atoms: O_2  and  C_24
REMARK    2  A    between atoms: O_2  and  C_25
REMARK    3  A    between atoms: N_3  and  C_11
REMARK    4  A    between atoms: C_7  and  C_12
REMARK    5  A    between atoms: C_11  and  C_13
REMARK    6  A    between atoms: C_16  and  C_19
REMARK                            x       y       z     vdW  Elec       q    Type
REMARK                         _______ _______ _______ _____ _____    ______ ____
ROOT
ATOM      1  O   UNL     1      -6.313  -8.757   8.508  0.00  0.00    -0.336 OA
ATOM      4  N   UNL     1      -6.596  -9.629  10.552  0.00  0.00    -0.190 NA
ATOM      5  N   UNL     1      -5.029  -8.925   9.042  0.00  0.00    -0.056 NA
ATOM     12  C   UNL     1      -7.177  -9.197   9.462  0.00  0.00    +0.245 A 
ATOM     16  C   UNL     1      -5.279  -9.442  10.247  0.00  0.00    +0.204 A 
ENDROOT
BRANCH  16  19
ATOM      6  N   UNL     1      -3.594 -10.527  13.381  0.00  0.00    -0.221 NA
ATOM     19  C   UNL     1      -4.235  -9.783  11.172  0.00  0.00    +0.041 A 
ATOM     21  C   UNL     1      -2.898  -9.710  10.800  0.00  0.00    +0.018 A 
ATOM     22  C   UNL     1      -4.529 -10.193  12.462  0.00  0.00    +0.126 A 
ATOM     23  C   UNL     1      -1.908 -10.046  11.717  0.00  0.00    +0.068 A 
ATOM     24  C   UNL     1      -2.305 -10.445  12.983  0.00  0.00    +0.214 A 
BRANCH  24   2
ATOM      2  O   UNL     1      -1.348 -10.780  13.904  0.00  0.00    -0.480 OA
ATOM     25  C   UNL     1      -1.611 -10.427  15.258  0.00  0.00    +0.279 C 
ENDBRANCH  24   2
ENDBRANCH  16  19
BRANCH  12   7
ATOM      3  N   UNL     1      -9.490  -8.837  10.306  0.00  0.00    -0.287 NA
ATOM      7  C   UNL     1      -8.650  -9.121   9.125  0.00  0.00    +0.146 C 
ATOM      8  C   UNL     1      -8.976  -7.991   8.132  0.00  0.00    +0.030 C 
ATOM      9  C   UNL     1     -10.050  -7.157   8.817  0.00  0.00    +0.017 C 
ATOM     10  C   UNL     1     -10.665  -8.118   9.815  0.00  0.00    +0.085 C 
BRANCH   3  11
ATOM     11  C   UNL     1      -9.853 -10.034  11.054  0.00  0.00    +0.120 C 
BRANCH  11  13
ATOM     13  C   UNL     1      -9.686  -9.839  12.538  0.00  0.00    -0.033 A 
ATOM     14  C   UNL     1      -8.497 -10.219  13.162  0.00  0.00    +0.005 A 
ATOM     15  C   UNL     1     -10.719  -9.279  13.289  0.00  0.00    +0.005 A 
ATOM     17  C   UNL     1      -8.344 -10.038  14.537  0.00  0.00    +0.000 A 
ATOM     18  C   UNL     1     -10.565  -9.098  14.663  0.00  0.00    +0.000 A 
ATOM     20  C   UNL     1      -9.377  -9.478  15.288  0.00  0.00    +0.000 A 
ENDBRANCH  11  13
ENDBRANCH   3  11
ENDBRANCH  12   7
TORSDOF 5
ENDMDL
MODEL 3
REMARK VINA RESULT:      -3.5      1.328      1.853
REMARK  Name = 45783685
REMARK  6 active torsions:
REMARK  status: ('A' for Active; 'I' for Inactive)
REMARK    1  A    between atoms: O_2  and  C_24
REMARK    2  A    between atoms: O_2  and  C_25
REMARK    3  A    between atoms: N_3  and  C_11
REMARK    4  A    between atoms: C_7  and  C_12
REMARK    5  A    between atoms: C_11  and  C_13
REMARK    6  A    between atoms: C_16  and  C_19
REMARK                            x       y       z     vdW  Elec       q    Type
REMARK                         _______ _______ _______ _____ _____    ______ ____
ROOT
ATOM      1  O   UNL     1      -2.247   1.126  22.812  0.00  0.00    -0.336 OA
ATOM      4  N   UNL     1      -0.630   2.110  24.009  0.00  0.00    -0.190 NA
ATOM      5  N   UNL     1      -1.054   0.482  22.459  0.00  0.00    -0.056 NA
ATOM     12  C   UNL     1      -1.908   2.071  23.728  0.00  0.00    +0.245 A 
ATOM     16  C   UNL     1      -0.147   1.118  23.206  0.00  0.00    +0.204 A 
ENDROOT
BRANCH  16  19
ATOM      6  N   UNL     1       3.548   1.532  23.147  0.00  0.00    -0.221 NA
ATOM     19  C   UNL     1       1.249   0.787  23.172  0.00  0.00    +0.041 A 
ATOM     21  C   UNL     1       1.670  -0.537  23.133  0.00  0.00    +0.018 A 
ATOM     22  C   UNL     1       2.219   1.776  23.178  0.00  0.00    +0.126 A 
ATOM     23  C   UNL     1       3.029  -0.828  23.100  0.00  0.00    +0.068 A 
ATOM     24  C   UNL     1       3.919   0.233  23.109  0.00  0.00    +0.214 A 
BRANCH  24   2
ATOM      2  O   UNL     1       5.264  -0.028  23.077  0.00  0.00    -0.480 OA
ATOM     25  C   UNL     1       5.813  -0.696  24.208  0.00  0.00    +0.279 C 
ENDBRANCH  24   2
ENDBRANCH  16  19
BRANCH  12   7
ATOM      3  N   UNL     1      -3.731   2.272  25.409  0.00  0.00    -0.287 NA
ATOM      7  C   UNL     1      -3.037   2.916  24.276  0.00  0.00    +0.146 C 
ATOM      8  C   UNL     1      -2.554   4.267  24.831  0.00  0.00    +0.030 C 
ATOM      9  C   UNL     1      -3.072   4.320  26.261  0.00  0.00    +0.017 C 
ATOM     10  C   UNL     1      -4.241   3.353  26.252  0.00  0.00    +0.085 C 
BRANCH   3  11
ATOM     11  C   UNL     1      -4.787   1.358  24.992  0.00  0.00    +0.120 C 
BRANCH  11  13
ATOM     13  C   UNL     1      -4.303  -0.067  24.931  0.00  0.00    -0.033 A 
ATOM     14  C   UNL     1      -4.633  -0.869  23.838  0.00  0.00    +0.005 A 
ATOM     15  C   UNL     1      -3.526  -0.585  25.966  0.00  0.00    +0.005 A 
ATOM     17  C   UNL     1      -4.185  -2.189  23.782  0.00  0.00    +0.000 A 
ATOM     18  C   UNL     1      -3.078  -1.905  25.910  0.00  0.00    +0.000 A 
ATOM     20  C   UNL     1      -3.408  -2.707  24.818  0.00  0.00    +0.000 A 
ENDBRANCH  11  13
ENDBRANCH   3  11
ENDBRANCH  12   7
TORSDOF 5
ENDMDL
MODEL 4
REMARK VINA RESULT:      -2.9     15.207     17.025
REMARK  Name = 45783685
REMARK  6 active torsions:
REMARK  status: ('A' for Active; 'I' for Inactive)
REMARK    1  A    between atoms: O_2  and  C_24
REMARK    2  A    between atoms: O_2  and  C_25
REMARK    3  A    between atoms: N_3  and  C_11
REMARK    4  A    between atoms: C_7  and  C_12
REMARK    5  A    between atoms: C_11  and  C_13
REMARK    6  A    between atoms: C_16  and  C_19
REMARK                            x       y       z     vdW  Elec       q    Type
REMARK                         _______ _______ _______ _____ _____    ______ ____
ROOT
ATOM      1  O   UNL     1      -7.181 -10.032   9.072  0.00  0.00    -0.336 OA
ATOM      4  N   UNL     1      -6.456 -10.057  11.191  0.00  0.00    -0.190 NA
ATOM      5  N   UNL     1      -5.788  -9.895   9.009  0.00  0.00    -0.056 NA
ATOM     12  C   UNL     1      -7.491 -10.120  10.393  0.00  0.00    +0.245 A 
ATOM     16  C   UNL     1      -5.434  -9.918  10.297  0.00  0.00    +0.204 A 
ENDROOT
BRANCH  16  19
ATOM      6  N   UNL     1      -1.855  -8.909  10.350  0.00  0.00    -0.221 NA
ATOM     19  C   UNL     1      -4.069  -9.805  10.724  0.00  0.00    +0.041 A 
ATOM     21  C   UNL     1      -3.623 -10.445  11.874  0.00  0.00    +0.018 A 
ATOM     22  C   UNL     1      -3.154  -9.055  10.003  0.00  0.00    +0.126 A 
ATOM     23  C   UNL     1      -2.294 -10.319  12.264  0.00  0.00    +0.068 A 
ATOM     24  C   UNL     1      -1.459  -9.545  11.473  0.00  0.00    +0.214 A 
BRANCH  24   2
ATOM      2  O   UNL     1      -0.145  -9.405  11.836  0.00  0.00    -0.480 OA
ATOM     25  C   UNL     1       0.642  -8.508  11.059  0.00  0.00    +0.279 C 
ENDBRANCH  24   2
ENDBRANCH  16  19
BRANCH  12   7
ATOM      3  N   UNL     1      -9.282  -9.785  12.086  0.00  0.00    -0.287 NA
ATOM      7  C   UNL     1      -8.957 -10.277  10.733  0.00  0.00    +0.146 C 
ATOM      8  C   UNL     1      -9.875  -9.474   9.794  0.00  0.00    +0.030 C 
ATOM      9  C   UNL     1     -10.719  -8.602  10.712  0.00  0.00    +0.017 C 
ATOM     10  C   UNL     1     -10.673  -9.332  12.039  0.00  0.00    +0.085 C 
BRANCH   3  11
ATOM     11  C   UNL     1      -9.065 -10.781  13.128  0.00  0.00    +0.120 C 
BRANCH  11  13
ATOM     13  C   UNL     1      -8.802 -10.143  14.467  0.00  0.00    -0.033 A 
ATOM     14  C   UNL     1      -9.833  -9.490  15.143  0.00  0.00    +0.005 A 
ATOM     15  C   UNL     1      -7.528 -10.204  15.030  0.00  0.00    +0.005 A 
ATOM     17  C   UNL     1      -9.588  -8.899  16.383  0.00  0.00    +0.000 A 
ATOM     18  C   UNL     1      -7.284  -9.613  16.270  0.00  0.00    +0.000 A 
ATOM     20  C   UNL     1      -8.314  -8.960  16.946  0.00  0.00    +0.000 A 
ENDBRANCH  11  13
ENDBRANCH   3  11
ENDBRANCH  12   7
TORSDOF 5
ENDMDL
MODEL 5
REMARK VINA RESULT:      -2.6      1.852      3.719
REMARK  Name = 45783685
REMARK  6 active torsions:
REMARK  status: ('A' for Active; 'I' for Inactive)
REMARK    1  A    between atoms: O_2  and  C_24
REMARK    2  A    between atoms: O_2  and  C_25
REMARK    3  A    between atoms: N_3  and  C_11
REMARK    4  A    between atoms: C_7  and  C_12
REMARK    5  A    between atoms: C_11  and  C_13
REMARK    6  A    between atoms: C_16  and  C_19
REMARK                            x       y       z     vdW  Elec       q    Type
REMARK                         _______ _______ _______ _____ _____    ______ ____
ROOT
ATOM      1  O   UNL     1      -3.161   1.676  23.065  0.00  0.00    -0.336 OA
ATOM      4  N   UNL     1      -1.697   0.911  24.577  0.00  0.00    -0.190 NA
ATOM      5  N   UNL     1      -1.941   1.537  22.390  0.00  0.00    -0.056 NA
ATOM     12  C   UNL     1      -2.929   1.287  24.346  0.00  0.00    +0.245 A 
ATOM     16  C   UNL     1      -1.129   1.081  23.348  0.00  0.00    +0.204 A 
ENDROOT
BRANCH  16  19
ATOM      6  N   UNL     1       2.579   1.316  23.518  0.00  0.00    -0.221 NA
ATOM     19  C   UNL     1       0.256   0.788  23.110  0.00  0.00    +0.041 A 
ATOM     21  C   UNL     1       0.633  -0.260  22.277  0.00  0.00    +0.018 A 
ATOM     22  C   UNL     1       1.259   1.540  23.701  0.00  0.00    +0.126 A 
ATOM     23  C   UNL     1       1.982  -0.520  22.064  0.00  0.00    +0.068 A 
ATOM     24  C   UNL     1       2.907   0.290  22.703  0.00  0.00    +0.214 A 
BRANCH  24   2
ATOM      2  O   UNL     1       4.243   0.053  22.508  0.00  0.00    -0.480 OA
ATOM     25  C   UNL     1       5.118   0.415  23.571  0.00  0.00    +0.279 C 
ENDBRANCH  24   2
ENDBRANCH  16  19
BRANCH  12   7
ATOM      3  N   UNL     1      -4.688   2.699  25.395  0.00  0.00    -0.287 NA
ATOM      7  C   UNL     1      -4.108   1.345  25.293  0.00  0.00    +0.146 C 
ATOM      8  C   UNL     1      -5.277   0.452  24.843  0.00  0.00    +0.030 C 
ATOM      9  C   UNL     1      -6.484   1.377  24.776  0.00  0.00    +0.017 C 
ATOM     10  C   UNL     1      -6.108   2.519  25.700  0.00  0.00    +0.085 C 
BRANCH   3  11
ATOM     11  C   UNL     1      -4.019   3.539  26.380  0.00  0.00    +0.120 C 
BRANCH  11  13
ATOM     13  C   UNL     1      -2.681   4.023  25.887  0.00  0.00    -0.033 A 
ATOM     14  C   UNL     1      -1.518   3.338  26.241  0.00  0.00    +0.005 A 
ATOM     15  C   UNL     1      -2.604   5.156  25.078  0.00  0.00    +0.005 A 
ATOM     17  C   UNL     1      -0.278   3.788  25.784  0.00  0.00    +0.000 A 
ATOM     18  C   UNL     1      -1.364   5.605  24.621  0.00  0.00    +0.000 A 
ATOM     20  C   UNL     1      -0.202   4.921  24.975  0.00  0.00    +0.000 A 
ENDBRANCH  11  13
ENDBRANCH   3  11
ENDBRANCH  12   7
TORSDOF 5
ENDMDL
MODEL 6
REMARK VINA RESULT:      -2.2     15.206     17.186
REMARK  Name = 45783685
REMARK  6 active torsions:
REMARK  status: ('A' for Active; 'I' for Inactive)
REMARK    1  A    between atoms: O_2  and  C_24
REMARK    2  A    between atoms: O_2  and  C_25
REMARK    3  A    between atoms: N_3  and  C_11
REMARK    4  A    between atoms: C_7  and  C_12
REMARK    5  A    between atoms: C_11  and  C_13
REMARK    6  A    between atoms: C_16  and  C_19
REMARK                            x       y       z     vdW  Elec       q    Type
REMARK                         _______ _______ _______ _____ _____    ______ ____
ROOT
ATOM      1  O   UNL     1      -3.830  -9.359   9.524  0.00  0.00    -0.336 OA
ATOM      4  N   UNL     1      -5.053  -9.974  11.297  0.00  0.00    -0.190 NA
ATOM      5  N   UNL     1      -2.932  -9.488  10.592  0.00  0.00    -0.056 NA
ATOM     12  C   UNL     1      -5.056  -9.663  10.025  0.00  0.00    +0.245 A 
ATOM     16  C   UNL     1      -3.728  -9.852  11.600  0.00  0.00    +0.204 A 
ENDROOT
BRANCH  16  19
ATOM      6  N   UNL     1      -1.360 -10.158  14.452  0.00  0.00    -0.221 NA
ATOM     19  C   UNL     1      -3.232 -10.101  12.924  0.00  0.00    +0.041 A 
ATOM     21  C   UNL     1      -4.085 -10.512  13.942  0.00  0.00    +0.018 A 
ATOM     22  C   UNL     1      -1.890  -9.939  13.227  0.00  0.00    +0.126 A 
ATOM     23  C   UNL     1      -3.577 -10.747  15.215  0.00  0.00    +0.068 A 
ATOM     24  C   UNL     1      -2.219 -10.556  15.415  0.00  0.00    +0.214 A 
BRANCH  24   2
ATOM      2  O   UNL     1      -1.694 -10.781  16.661  0.00  0.00    -0.480 OA
ATOM     25  C   UNL     1      -0.344 -10.381  16.868  0.00  0.00    +0.279 C 
ENDBRANCH  24   2
ENDBRANCH  16  19
BRANCH  12   7
ATOM      3  N   UNL     1      -7.520  -9.476   9.737  0.00  0.00    -0.287 NA
ATOM      7  C   UNL     1      -6.216  -9.599   9.055  0.00  0.00    +0.146 C 
ATOM      8  C   UNL     1      -6.146  -8.375   8.124  0.00  0.00    +0.030 C 
ATOM      9  C   UNL     1      -7.476  -7.658   8.306  0.00  0.00    +0.017 C 
ATOM     10  C   UNL     1      -8.398  -8.745   8.823  0.00  0.00    +0.085 C 
BRANCH   3  11
ATOM     11  C   UNL     1      -8.086 -10.761  10.130  0.00  0.00    +0.120 C 
BRANCH  11  13
ATOM     13  C   UNL     1      -8.695 -10.707  11.506  0.00  0.00    -0.033 A 
ATOM     14  C   UNL     1      -7.877 -10.781  12.634  0.00  0.00    +0.005 A 
ATOM     15  C   UNL     1     -10.076 -10.585  11.654  0.00  0.00    +0.005 A 
ATOM     17  C   UNL     1      -8.442 -10.732  13.909  0.00  0.00    +0.000 A 
ATOM     18  C   UNL     1     -10.641 -10.535  12.928  0.00  0.00    +0.000 A 
ATOM     20  C   UNL     1      -9.824 -10.609  14.056  0.00  0.00    +0.000 A 
ENDBRANCH  11  13
ENDBRANCH   3  11
ENDBRANCH  12   7
TORSDOF 5
ENDMDL
MODEL 7
REMARK VINA RESULT:      -1.3      1.537      3.724
REMARK  Name = 45783685
REMARK  6 active torsions:
REMARK  status: ('A' for Active; 'I' for Inactive)
REMARK    1  A    between atoms: O_2  and  C_24
REMARK    2  A    between atoms: O_2  and  C_25
REMARK    3  A    between atoms: N_3  and  C_11
REMARK    4  A    between atoms: C_7  and  C_12
REMARK    5  A    between atoms: C_11  and  C_13
REMARK    6  A    between atoms: C_16  and  C_19
REMARK                            x       y       z     vdW  Elec       q    Type
REMARK                         _______ _______ _______ _____ _____    ______ ____
ROOT
ATOM      1  O   UNL     1      -1.022   1.793  24.138  0.00  0.00    -0.336 OA
ATOM      4  N   UNL     1      -0.013  -0.204  24.233  0.00  0.00    -0.190 NA
ATOM      5  N   UNL     1       0.299   2.003  23.720  0.00  0.00    -0.056 NA
ATOM     12  C   UNL     1      -1.121   0.467  24.421  0.00  0.00    +0.245 A 
ATOM     16  C   UNL     1       0.829   0.780  23.804  0.00  0.00    +0.204 A 
ENDROOT
BRANCH  16  19
ATOM      6  N   UNL     1       4.012  -1.083  23.323  0.00  0.00    -0.221 NA
ATOM     19  C   UNL     1       2.197   0.507  23.466  0.00  0.00    +0.041 A 
ATOM     21  C   UNL     1       3.026   1.509  22.973  0.00  0.00    +0.018 A 
ATOM     22  C   UNL     1       2.733  -0.761  23.621  0.00  0.00    +0.126 A 
ATOM     23  C   UNL     1       4.347   1.216  22.656  0.00  0.00    +0.068 A 
ATOM     24  C   UNL     1       4.787  -0.084  22.847  0.00  0.00    +0.214 A 
BRANCH  24   2
ATOM      2  O   UNL     1       6.086  -0.397  22.541  0.00  0.00    -0.480 OA
ATOM     25  C   UNL     1       7.030  -0.320  23.604  0.00  0.00    +0.279 C 
ENDBRANCH  24   2
ENDBRANCH  16  19
BRANCH  12   7
ATOM      3  N   UNL     1      -3.322  -0.508  23.797  0.00  0.00    -0.287 NA
ATOM      7  C   UNL     1      -2.471  -0.022  24.901  0.00  0.00    +0.146 C 
ATOM      8  C   UNL     1      -2.362  -1.215  25.866  0.00  0.00    +0.030 C 
ATOM      9  C   UNL     1      -3.232  -2.304  25.254  0.00  0.00    +0.017 C 
ATOM     10  C   UNL     1      -4.194  -1.535  24.369  0.00  0.00    +0.085 C 
BRANCH   3  11
ATOM     11  C   UNL     1      -4.081   0.553  23.146  0.00  0.00    +0.120 C 
BRANCH  11  13
ATOM     13  C   UNL     1      -4.420   1.667  24.101  0.00  0.00    -0.033 A 
ATOM     14  C   UNL     1      -3.809   2.913  23.964  0.00  0.00    +0.005 A 
ATOM     15  C   UNL     1      -5.344   1.452  25.123  0.00  0.00    +0.005 A 
ATOM     17  C   UNL     1      -4.123   3.945  24.850  0.00  0.00    +0.000 A 
ATOM     18  C   UNL     1      -5.658   2.483  26.008  0.00  0.00    +0.000 A 
ATOM     20  C   UNL     1      -5.047   3.729  25.872  0.00  0.00    +0.000 A 
ENDBRANCH  11  13
ENDBRANCH   3  11
ENDBRANCH  12   7
TORSDOF 5
ENDMDL
