MODEL 1
REMARK VINA RESULT:       1.1      0.000      0.000
REMARK  Name = 40779333
REMARK  9 active torsions:
REMARK  status: ('A' for Active; 'I' for Inactive)
REMARK    1  A    between atoms: S_1  and  N_8
REMARK    2  A    between atoms: S_1  and  C_24
REMARK    3  A    between atoms: N_7  and  C_22
REMARK    4  A    between atoms: N_8  and  C_18
REMARK    5  A    between atoms: N_10  and  C_32
REMARK    6  A    between atoms: C_12  and  C_19
REMARK    7  A    between atoms: C_13  and  C_18
REMARK    8  A    between atoms: C_21  and  C_23
REMARK    9  A    between atoms: C_33  and  C_34
REMARK                            x       y       z     vdW  Elec       q    Type
REMARK                         _______ _______ _______ _____ _____    ______ ____
ROOT
ATOM      6  N   UNL     1      -4.662   2.240  24.040  0.00  0.00    -0.297 NA
ATOM     11  C   UNL     1      -3.918   4.052  25.757  0.00  0.00    +0.002 C 
ATOM     12  C   UNL     1      -2.710   3.590  24.896  0.00  0.00    +0.055 C 
ATOM     13  C   UNL     1      -5.145   1.881  25.399  0.00  0.00    +0.072 C 
ATOM     14  C   UNL     1      -4.542   2.828  26.460  0.00  0.00    +0.024 C 
ATOM     15  C   UNL     1      -4.977   4.602  24.777  0.00  0.00    +0.019 C 
ATOM     16  C   UNL     1      -3.184   2.377  24.045  0.00  0.00    +0.094 C 
ATOM     17  C   UNL     1      -5.247   3.554  23.682  0.00  0.00    +0.085 C 
ENDROOT
BRANCH  12  19
ATOM      7  N   UNL     1      -0.196   3.249  24.942  0.00  0.00    -0.270 N 
ATOM      9  N   UNL     1       0.853   3.001  25.745  0.00  0.00    -0.168 NA
ATOM     19  C   UNL     1      -1.388   3.320  25.600  0.00  0.00    +0.044 A 
ATOM     20  C   UNL     1      -1.100   3.102  26.926  0.00  0.00    +0.056 A 
ATOM     21  C   UNL     1       0.296   2.912  26.955  0.00  0.00    +0.128 A 
ATOM     22  C   UNL     1       0.025   3.413  23.524  0.00  0.00    +0.172 C 
BRANCH  21  23
ATOM      4  O   UNL     1       2.454   2.716  28.213  0.00  0.00    -0.461 OA
ATOM     23  C   UNL     1       1.098   2.642  28.162  0.00  0.00    +0.155 A 
ATOM     25  C   UNL     1       0.587   2.281  29.387  0.00  0.00    +0.051 A 
ATOM     28  C   UNL     1       1.701   2.124  30.246  0.00  0.00    +0.042 A 
ATOM     29  C   UNL     1       2.813   2.400  29.485  0.00  0.00    +0.196 A 
ENDBRANCH  21  23
ENDBRANCH  12  19
BRANCH  13  18
ATOM     18  C   UNL     1      -4.892   0.411  25.738  0.00  0.00    +0.124 C 
BRANCH  18   8
ATOM      8  N   UNL     1      -4.596  -0.328  24.500  0.00  0.00    -0.188 NA
ATOM     35  H   UNL     1      -5.279  -0.239  23.738  0.00  0.00    +0.148 HD
BRANCH   8   1
ATOM      1  S   UNL     1      -3.712  -1.783  24.562  0.00  0.00    +0.058 S 
ATOM      2  O   UNL     1      -4.103  -2.628  23.449  0.00  0.00    -0.153 OA
ATOM      3  O   UNL     1      -3.743  -2.300  25.916  0.00  0.00    -0.153 OA
BRANCH   1  24
ATOM     24  C   UNL     1      -2.064  -1.217  24.263  0.00  0.00    +0.105 A 
ATOM     26  C   UNL     1      -0.982  -1.894  24.825  0.00  0.00    +0.030 A 
ATOM     27  C   UNL     1      -1.846  -0.093  23.467  0.00  0.00    +0.030 A 
ATOM     30  C   UNL     1       0.318  -1.448  24.590  0.00  0.00    +0.025 A 
ATOM     31  C   UNL     1      -0.546   0.354  23.232  0.00  0.00    +0.025 A 
ATOM     32  C   UNL     1       0.536  -0.323  23.793  0.00  0.00    +0.033 A 
BRANCH  32  10
ATOM      5  O   UNL     1       2.145  -0.249  21.248  0.00  0.00    -0.276 OA
ATOM     10  N   UNL     1       1.837   0.122  23.556  0.00  0.00    -0.286 N 
ATOM     33  C   UNL     1       2.542   0.131  22.345  0.00  0.00    +0.214 C 
ATOM     34  C   UNL     1       3.931   0.695  22.512  0.00  0.00    +0.109 C 
ATOM     36  H   UNL     1       2.328   0.482  24.373  0.00  0.00    +0.155 HD
ENDBRANCH  32  10
ENDBRANCH   1  24
ENDBRANCH   8   1
ENDBRANCH  18   8
ENDBRANCH  13  18
TORSDOF 7
ENDMDL
MODEL 2
REMARK VINA RESULT:       1.9      2.390      5.514
REMARK  Name = 40779333
REMARK  9 active torsions:
REMARK  status: ('A' for Active; 'I' for Inactive)
REMARK    1  A    between atoms: S_1  and  N_8
REMARK    2  A    between atoms: S_1  and  C_24
REMARK    3  A    between atoms: N_7  and  C_22
REMARK    4  A    between atoms: N_8  and  C_18
REMARK    5  A    between atoms: N_10  and  C_32
REMARK    6  A    between atoms: C_12  and  C_19
REMARK    7  A    between atoms: C_13  and  C_18
REMARK    8  A    between atoms: C_21  and  C_23
REMARK    9  A    between atoms: C_33  and  C_34
REMARK                            x       y       z     vdW  Elec       q    Type
REMARK                         _______ _______ _______ _____ _____    ______ ____
ROOT
ATOM      6  N   UNL     1      -3.618  -1.492  25.904  0.00  0.00    -0.297 NA
ATOM     11  C   UNL     1      -2.824  -1.980  23.472  0.00  0.00    +0.002 C 
ATOM     12  C   UNL     1      -1.604  -1.825  24.422  0.00  0.00    +0.055 C 
ATOM     13  C   UNL     1      -4.296  -0.572  24.954  0.00  0.00    +0.072 C 
ATOM     14  C   UNL     1      -3.689  -0.703  23.541  0.00  0.00    +0.024 C 
ATOM     15  C   UNL     1      -3.679  -3.138  24.032  0.00  0.00    +0.019 C 
ATOM     16  C   UNL     1      -2.146  -1.339  25.797  0.00  0.00    +0.094 C 
ATOM     17  C   UNL     1      -3.968  -2.880  25.521  0.00  0.00    +0.085 C 
ENDROOT
BRANCH  12  19
ATOM      7  N   UNL     1      -0.562   0.160  23.234  0.00  0.00    -0.270 N 
ATOM      9  N   UNL     1       0.604   0.740  22.903  0.00  0.00    -0.168 NA
ATOM     19  C   UNL     1      -0.421  -0.997  23.942  0.00  0.00    +0.044 A 
ATOM     20  C   UNL     1       0.932  -1.189  24.083  0.00  0.00    +0.056 A 
ATOM     21  C   UNL     1       1.514  -0.088  23.424  0.00  0.00    +0.128 A 
ATOM     22  C   UNL     1      -1.800   0.787  22.833  0.00  0.00    +0.172 C 
BRANCH  21  23
ATOM      4  O   UNL     1       3.500   1.368  22.960  0.00  0.00    -0.461 OA
ATOM     23  C   UNL     1       2.960   0.167  23.296  0.00  0.00    +0.155 A 
ATOM     25  C   UNL     1       3.948  -0.768  23.496  0.00  0.00    +0.051 A 
ATOM     28  C   UNL     1       5.175  -0.098  23.269  0.00  0.00    +0.042 A 
ATOM     29  C   UNL     1       4.848   1.199  22.947  0.00  0.00    +0.196 A 
ENDBRANCH  21  23
ENDBRANCH  12  19
BRANCH  13  18
ATOM     18  C   UNL     1      -4.292   0.878  25.443  0.00  0.00    +0.124 C 
BRANCH  18   8
ATOM      8  N   UNL     1      -4.601   1.770  24.313  0.00  0.00    -0.188 NA
ATOM     35  H   UNL     1      -4.728   1.324  23.397  0.00  0.00    +0.148 HD
BRANCH   8   1
ATOM      1  S   UNL     1      -4.018   3.371  24.304  0.00  0.00    +0.058 S 
ATOM      2  O   UNL     1      -4.869   4.195  25.142  0.00  0.00    -0.153 OA
ATOM      3  O   UNL     1      -3.738   3.766  22.936  0.00  0.00    -0.153 OA
BRANCH   1  24
ATOM     24  C   UNL     1      -2.459   3.192  25.118  0.00  0.00    +0.105 A 
ATOM     26  C   UNL     1      -1.544   4.245  25.111  0.00  0.00    +0.030 A 
ATOM     27  C   UNL     1      -2.145   1.999  25.768  0.00  0.00    +0.030 A 
ATOM     30  C   UNL     1      -0.314   4.104  25.754  0.00  0.00    +0.025 A 
ATOM     31  C   UNL     1      -0.915   1.858  26.410  0.00  0.00    +0.025 A 
ATOM     32  C   UNL     1       0.001   2.910  26.403  0.00  0.00    +0.033 A 
BRANCH  32  10
ATOM      5  O   UNL     1       0.654   2.631  29.330  0.00  0.00    -0.276 OA
ATOM     10  N   UNL     1       1.231   2.770  27.047  0.00  0.00    -0.286 N 
ATOM     33  C   UNL     1       1.479   2.646  28.421  0.00  0.00    +0.214 C 
ATOM     34  C   UNL     1       2.953   2.517  28.712  0.00  0.00    +0.109 C 
ATOM     36  H   UNL     1       2.043   2.760  26.434  0.00  0.00    +0.155 HD
ENDBRANCH  32  10
ENDBRANCH   1  24
ENDBRANCH   8   1
ENDBRANCH  18   8
ENDBRANCH  13  18
TORSDOF 7
ENDMDL
MODEL 3
REMARK VINA RESULT:       5.0      3.319      5.467
REMARK  Name = 40779333
REMARK  9 active torsions:
REMARK  status: ('A' for Active; 'I' for Inactive)
REMARK    1  A    between atoms: S_1  and  N_8
REMARK    2  A    between atoms: S_1  and  C_24
REMARK    3  A    between atoms: N_7  and  C_22
REMARK    4  A    between atoms: N_8  and  C_18
REMARK    5  A    between atoms: N_10  and  C_32
REMARK    6  A    between atoms: C_12  and  C_19
REMARK    7  A    between atoms: C_13  and  C_18
REMARK    8  A    between atoms: C_21  and  C_23
REMARK    9  A    between atoms: C_33  and  C_34
REMARK                            x       y       z     vdW  Elec       q    Type
REMARK                         _______ _______ _______ _____ _____    ______ ____
ROOT
ATOM      6  N   UNL     1      -2.916  -2.710  23.958  0.00  0.00    -0.297 NA
ATOM     11  C   UNL     1      -2.821  -1.428  26.223  0.00  0.00    +0.002 C 
ATOM     12  C   UNL     1      -3.709  -0.663  25.202  0.00  0.00    +0.055 C 
ATOM     13  C   UNL     1      -1.505  -2.560  24.398  0.00  0.00    +0.072 C 
ATOM     14  C   UNL     1      -1.413  -1.628  25.625  0.00  0.00    +0.024 C 
ATOM     15  C   UNL     1      -3.447  -2.830  26.392  0.00  0.00    +0.019 C 
ATOM     16  C   UNL     1      -3.553  -1.375  23.828  0.00  0.00    +0.094 C 
ATOM     17  C   UNL     1      -3.641  -3.468  25.005  0.00  0.00    +0.085 C 
ENDROOT
BRANCH  12  19
ATOM      7  N   UNL     1      -4.593   1.706  24.996  0.00  0.00    -0.270 N 
ATOM      9  N   UNL     1      -4.233   2.998  24.908  0.00  0.00    -0.168 NA
ATOM     19  C   UNL     1      -3.541   0.845  25.093  0.00  0.00    +0.044 A 
ATOM     20  C   UNL     1      -2.411   1.628  25.065  0.00  0.00    +0.056 A 
ATOM     21  C   UNL     1      -2.899   2.944  24.951  0.00  0.00    +0.128 A 
ATOM     22  C   UNL     1      -5.997   1.364  24.984  0.00  0.00    +0.172 C 
BRANCH  21  23
ATOM      4  O   UNL     1      -2.540   5.421  25.083  0.00  0.00    -0.461 OA
ATOM     23  C   UNL     1      -2.070   4.161  24.882  0.00  0.00    +0.155 A 
ATOM     25  C   UNL     1      -0.723   4.186  24.605  0.00  0.00    +0.051 A 
ATOM     28  C   UNL     1      -0.340   5.548  24.640  0.00  0.00    +0.042 A 
ATOM     29  C   UNL     1      -1.480   6.259  24.935  0.00  0.00    +0.196 A 
ENDBRANCH  21  23
ENDBRANCH  12  19
BRANCH  13  18
ATOM     18  C   UNL     1      -0.586  -2.101  23.264  0.00  0.00    +0.124 C 
BRANCH  18   8
ATOM      8  N   UNL     1       0.363  -1.104  23.784  0.00  0.00    -0.188 NA
ATOM     35  H   UNL     1       0.315  -0.904  24.791  0.00  0.00    +0.148 HD
BRANCH   8   1
ATOM      1  S   UNL     1       0.905   0.165  22.784  0.00  0.00    +0.058 S 
ATOM      2  O   UNL     1       0.386   1.424  23.284  0.00  0.00    -0.153 OA
ATOM      3  O   UNL     1       0.706  -0.207  21.396  0.00  0.00    -0.153 OA
BRANCH   1  24
ATOM     24  C   UNL     1       2.648   0.137  23.080  0.00  0.00    +0.105 A 
ATOM     26  C   UNL     1       3.250  -1.013  23.591  0.00  0.00    +0.030 A 
ATOM     27  C   UNL     1       3.420   1.265  22.804  0.00  0.00    +0.030 A 
ATOM     30  C   UNL     1       4.625  -1.035  23.824  0.00  0.00    +0.025 A 
ATOM     31  C   UNL     1       4.795   1.244  23.039  0.00  0.00    +0.025 A 
ATOM     32  C   UNL     1       5.397   0.094  23.549  0.00  0.00    +0.033 A 
BRANCH  32  10
ATOM      5  O   UNL     1       7.640  -1.057  21.901  0.00  0.00    -0.276 OA
ATOM     10  N   UNL     1       6.773   0.071  23.781  0.00  0.00    -0.286 N 
ATOM     33  C   UNL     1       7.778  -0.484  22.977  0.00  0.00    +0.214 C 
ATOM     34  C   UNL     1       9.145  -0.300  23.585  0.00  0.00    +0.109 C 
ATOM     36  H   UNL     1       7.074   0.514  24.647  0.00  0.00    +0.155 HD
ENDBRANCH  32  10
ENDBRANCH   1  24
ENDBRANCH   8   1
ENDBRANCH  18   8
ENDBRANCH  13  18
TORSDOF 7
ENDMDL
