MODEL 1
REMARK VINA RESULT:      -4.6      0.000      0.000
REMARK  Name = 26743766
REMARK  6 active torsions:
REMARK  status: ('A' for Active; 'I' for Inactive)
REMARK    1  A    between atoms: O_2  and  C_9
REMARK    2  A    between atoms: N_4  and  C_11
REMARK    3  A    between atoms: C_7  and  C_12
REMARK    4  A    between atoms: C_11  and  C_13
REMARK    5  A    between atoms: C_14  and  C_17
REMARK    6  A    between atoms: C_25  and  C_26
REMARK                            x       y       z     vdW  Elec       q    Type
REMARK                         _______ _______ _______ _____ _____    ______ ____
ROOT
ATOM      4  N   UNL     1      -3.121   2.016  24.980  0.00  0.00    -0.285 NA
ATOM      7  C   UNL     1      -2.129   2.591  24.049  0.00  0.00    +0.149 C 
ATOM      8  C   UNL     1      -1.674   3.901  24.719  0.00  0.00    +0.061 C 
ATOM      9  C   UNL     1      -2.500   3.998  25.996  0.00  0.00    +0.130 C 
ATOM     10  C   UNL     1      -3.715   3.141  25.700  0.00  0.00    +0.116 C 
ENDROOT
BRANCH   7  12
ATOM      3  O   UNL     1      -1.310   0.376  23.418  0.00  0.00    -0.336 OA
ATOM      5  N   UNL     1       0.310   1.873  23.811  0.00  0.00    -0.190 NA
ATOM      6  N   UNL     1      -0.099  -0.297  23.211  0.00  0.00    -0.056 NA
ATOM     12  C   UNL     1      -0.978   1.647  23.768  0.00  0.00    +0.245 A 
ATOM     14  C   UNL     1       0.808   0.651  23.463  0.00  0.00    +0.202 A 
BRANCH  14  17
ATOM      1  F   UNL     1       4.608  -2.254  24.008  0.00  0.00    -0.205 F 
ATOM     17  C   UNL     1       2.220   0.412  23.371  0.00  0.00    +0.025 A 
ATOM     21  C   UNL     1       2.742  -0.828  23.741  0.00  0.00    +0.050 A 
ATOM     22  C   UNL     1       3.070   1.418  22.911  0.00  0.00    +0.012 A 
ATOM     23  C   UNL     1       4.115  -1.060  23.650  0.00  0.00    +0.127 A 
ATOM     24  C   UNL     1       4.442   1.185  22.821  0.00  0.00    +0.007 A 
ATOM     25  C   UNL     1       4.964  -0.054  23.191  0.00  0.00    -0.015 A 
ATOM     26  C   UNL     1       6.432  -0.301  23.093  0.00  0.00    +0.047 C 
ENDBRANCH  14  17
ENDBRANCH   7  12
BRANCH   9   2
ATOM      2  O   UNL     1      -2.856   5.340  26.263  0.00  0.00    -0.390 OA
ATOM     27  H   UNL     1      -2.982   5.784  25.407  0.00  0.00    +0.210 HD
ENDBRANCH   9   2
BRANCH   4  11
ATOM     11  C   UNL     1      -4.127   1.198  24.315  0.00  0.00    +0.120 C 
BRANCH  11  13
ATOM     13  C   UNL     1      -3.907  -0.271  24.559  0.00  0.00    -0.033 A 
ATOM     15  C   UNL     1      -4.288  -1.204  23.595  0.00  0.00    +0.005 A 
ATOM     16  C   UNL     1      -3.323  -0.700  25.752  0.00  0.00    +0.005 A 
ATOM     18  C   UNL     1      -4.084  -2.565  23.823  0.00  0.00    +0.000 A 
ATOM     19  C   UNL     1      -3.120  -2.061  25.979  0.00  0.00    +0.000 A 
ATOM     20  C   UNL     1      -3.499  -2.993  25.015  0.00  0.00    +0.000 A 
ENDBRANCH  11  13
ENDBRANCH   4  11
TORSDOF 5
ENDMDL
MODEL 2
REMARK VINA RESULT:      -4.3     16.040     18.659
REMARK  Name = 26743766
REMARK  6 active torsions:
REMARK  status: ('A' for Active; 'I' for Inactive)
REMARK    1  A    between atoms: O_2  and  C_9
REMARK    2  A    between atoms: N_4  and  C_11
REMARK    3  A    between atoms: C_7  and  C_12
REMARK    4  A    between atoms: C_11  and  C_13
REMARK    5  A    between atoms: C_14  and  C_17
REMARK    6  A    between atoms: C_25  and  C_26
REMARK                            x       y       z     vdW  Elec       q    Type
REMARK                         _______ _______ _______ _____ _____    ______ ____
ROOT
ATOM      4  N   UNL     1      15.763  -5.776  30.512  0.00  0.00    -0.285 NA
ATOM      7  C   UNL     1      15.403  -6.133  31.900  0.00  0.00    +0.149 C 
ATOM      8  C   UNL     1      14.962  -4.807  32.546  0.00  0.00    +0.061 C 
ATOM      9  C   UNL     1      15.152  -3.756  31.458  0.00  0.00    +0.130 C 
ATOM     10  C   UNL     1      16.187  -4.378  30.541  0.00  0.00    +0.116 C 
ENDROOT
BRANCH   7  12
ATOM      3  O   UNL     1      14.767  -8.489  32.031  0.00  0.00    -0.336 OA
ATOM      5  N   UNL     1      13.031  -7.074  31.974  0.00  0.00    -0.190 NA
ATOM      6  N   UNL     1      13.614  -9.284  32.086  0.00  0.00    -0.056 NA
ATOM     12  C   UNL     1      14.333  -7.203  31.968  0.00  0.00    +0.245 A 
ATOM     14  C   UNL     1      12.633  -8.377  32.047  0.00  0.00    +0.202 A 
BRANCH  14  17
ATOM      1  F   UNL     1       8.027  -7.246  32.869  0.00  0.00    -0.205 F 
ATOM     17  C   UNL     1      11.245  -8.741  32.083  0.00  0.00    +0.025 A 
ATOM     21  C   UNL     1      10.288  -7.801  32.467  0.00  0.00    +0.050 A 
ATOM     22  C   UNL     1      10.853 -10.033  31.732  0.00  0.00    +0.012 A 
ATOM     23  C   UNL     1       8.939  -8.155  32.500  0.00  0.00    +0.127 A 
ATOM     24  C   UNL     1       9.505 -10.386  31.765  0.00  0.00    +0.007 A 
ATOM     25  C   UNL     1       8.547  -9.447  32.149  0.00  0.00    -0.015 A 
ATOM     26  C   UNL     1       7.105  -9.827  32.184  0.00  0.00    +0.047 C 
ENDBRANCH  14  17
ENDBRANCH   7  12
BRANCH   9   2
ATOM      2  O   UNL     1      15.606  -2.537  32.012  0.00  0.00    -0.390 OA
ATOM     27  H   UNL     1      15.585  -1.869  31.306  0.00  0.00    +0.210 HD
ENDBRANCH   9   2
BRANCH   4  11
ATOM     11  C   UNL     1      16.782  -6.647  29.940  0.00  0.00    +0.120 C 
BRANCH  11  13
ATOM     13  C   UNL     1      16.344  -7.232  28.624  0.00  0.00    -0.033 A 
ATOM     15  C   UNL     1      15.942  -8.566  28.552  0.00  0.00    +0.005 A 
ATOM     16  C   UNL     1      16.342  -6.440  27.475  0.00  0.00    +0.005 A 
ATOM     18  C   UNL     1      15.537  -9.107  27.331  0.00  0.00    +0.000 A 
ATOM     19  C   UNL     1      15.937  -6.982  26.255  0.00  0.00    +0.000 A 
ATOM     20  C   UNL     1      15.534  -8.314  26.183  0.00  0.00    +0.000 A 
ENDBRANCH  11  13
ENDBRANCH   4  11
TORSDOF 5
ENDMDL
MODEL 3
REMARK VINA RESULT:      -4.2      1.747      2.478
REMARK  Name = 26743766
REMARK  6 active torsions:
REMARK  status: ('A' for Active; 'I' for Inactive)
REMARK    1  A    between atoms: O_2  and  C_9
REMARK    2  A    between atoms: N_4  and  C_11
REMARK    3  A    between atoms: C_7  and  C_12
REMARK    4  A    between atoms: C_11  and  C_13
REMARK    5  A    between atoms: C_14  and  C_17
REMARK    6  A    between atoms: C_25  and  C_26
REMARK                            x       y       z     vdW  Elec       q    Type
REMARK                         _______ _______ _______ _____ _____    ______ ____
ROOT
ATOM      4  N   UNL     1      -4.899   1.767  24.898  0.00  0.00    -0.285 NA
ATOM      7  C   UNL     1      -4.094   2.785  24.192  0.00  0.00    +0.149 C 
ATOM      8  C   UNL     1      -4.521   4.127  24.816  0.00  0.00    +0.061 C 
ATOM      9  C   UNL     1      -5.601   3.764  25.829  0.00  0.00    +0.130 C 
ATOM     10  C   UNL     1      -6.127   2.434  25.326  0.00  0.00    +0.116 C 
ENDROOT
BRANCH   7  12
ATOM      3  O   UNL     1      -1.917   3.346  25.150  0.00  0.00    -0.336 OA
ATOM      5  N   UNL     1      -1.867   1.635  23.705  0.00  0.00    -0.190 NA
ATOM      6  N   UNL     1      -0.582   2.926  25.089  0.00  0.00    -0.056 NA
ATOM     12  C   UNL     1      -2.605   2.532  24.307  0.00  0.00    +0.245 A 
ATOM     14  C   UNL     1      -0.634   1.916  24.216  0.00  0.00    +0.202 A 
BRANCH  14  17
ATOM      1  F   UNL     1       3.969   1.741  22.814  0.00  0.00    -0.205 F 
ATOM     17  C   UNL     1       0.528   1.164  23.836  0.00  0.00    +0.025 A 
ATOM     21  C   UNL     1       1.709   1.827  23.501  0.00  0.00    +0.050 A 
ATOM     22  C   UNL     1       0.477  -0.230  23.802  0.00  0.00    +0.012 A 
ATOM     23  C   UNL     1       2.838   1.096  23.133  0.00  0.00    +0.127 A 
ATOM     24  C   UNL     1       1.606  -0.960  23.434  0.00  0.00    +0.007 A 
ATOM     25  C   UNL     1       2.787  -0.298  23.100  0.00  0.00    -0.015 A 
ATOM     26  C   UNL     1       3.994  -1.082  22.706  0.00  0.00    +0.047 C 
ENDBRANCH  14  17
ENDBRANCH   7  12
BRANCH   9   2
ATOM      2  O   UNL     1      -6.612   4.753  25.858  0.00  0.00    -0.390 OA
ATOM     27  H   UNL     1      -6.921   4.828  26.777  0.00  0.00    +0.210 HD
ENDBRANCH   9   2
BRANCH   4  11
ATOM     11  C   UNL     1      -5.170   0.585  24.089  0.00  0.00    +0.120 C 
BRANCH  11  13
ATOM     13  C   UNL     1      -4.369  -0.603  24.547  0.00  0.00    -0.033 A 
ATOM     15  C   UNL     1      -4.278  -1.737  23.739  0.00  0.00    +0.005 A 
ATOM     16  C   UNL     1      -3.716  -0.572  25.780  0.00  0.00    +0.005 A 
ATOM     18  C   UNL     1      -3.535  -2.839  24.164  0.00  0.00    +0.000 A 
ATOM     19  C   UNL     1      -2.974  -1.674  26.204  0.00  0.00    +0.000 A 
ATOM     20  C   UNL     1      -2.883  -2.806  25.397  0.00  0.00    +0.000 A 
ENDBRANCH  11  13
ENDBRANCH   4  11
TORSDOF 5
ENDMDL
MODEL 4
REMARK VINA RESULT:      -3.5     17.126     19.071
REMARK  Name = 26743766
REMARK  6 active torsions:
REMARK  status: ('A' for Active; 'I' for Inactive)
REMARK    1  A    between atoms: O_2  and  C_9
REMARK    2  A    between atoms: N_4  and  C_11
REMARK    3  A    between atoms: C_7  and  C_12
REMARK    4  A    between atoms: C_11  and  C_13
REMARK    5  A    between atoms: C_14  and  C_17
REMARK    6  A    between atoms: C_25  and  C_26
REMARK                            x       y       z     vdW  Elec       q    Type
REMARK                         _______ _______ _______ _____ _____    ______ ____
ROOT
ATOM      4  N   UNL     1      16.586  -4.063  29.564  0.00  0.00    -0.285 NA
ATOM      7  C   UNL     1      16.889  -4.506  30.940  0.00  0.00    +0.149 C 
ATOM      8  C   UNL     1      16.575  -3.285  31.825  0.00  0.00    +0.061 C 
ATOM      9  C   UNL     1      16.146  -2.193  30.852  0.00  0.00    +0.130 C 
ATOM     10  C   UNL     1      16.783  -2.615  29.542  0.00  0.00    +0.116 C 
ENDROOT
BRANCH   7  12
ATOM      3  O   UNL     1      16.804  -6.720  31.971  0.00  0.00    -0.336 OA
ATOM      5  N   UNL     1      14.837  -6.007  31.170  0.00  0.00    -0.190 NA
ATOM      6  N   UNL     1      15.881  -7.740  32.239  0.00  0.00    -0.056 NA
ATOM     12  C   UNL     1      16.106  -5.738  31.342  0.00  0.00    +0.245 A 
ATOM     14  C   UNL     1      14.746  -7.245  31.736  0.00  0.00    +0.202 A 
BRANCH  14  17
ATOM      1  F   UNL     1      10.006  -7.357  32.569  0.00  0.00    -0.205 F 
ATOM     17  C   UNL     1      13.504  -7.962  31.787  0.00  0.00    +0.025 A 
ATOM     21  C   UNL     1      12.334  -7.302  32.161  0.00  0.00    +0.050 A 
ATOM     22  C   UNL     1      13.467  -9.317  31.459  0.00  0.00    +0.012 A 
ATOM     23  C   UNL     1      11.126  -7.999  32.208  0.00  0.00    +0.127 A 
ATOM     24  C   UNL     1      12.259 -10.013  31.506  0.00  0.00    +0.007 A 
ATOM     25  C   UNL     1      11.089  -9.354  31.881  0.00  0.00    -0.015 A 
ATOM     26  C   UNL     1       9.798 -10.101  31.931  0.00  0.00    +0.047 C 
ENDBRANCH  14  17
ENDBRANCH   7  12
BRANCH   9   2
ATOM      2  O   UNL     1      16.613  -0.929  31.281  0.00  0.00    -0.390 OA
ATOM     27  H   UNL     1      16.593  -0.924  32.253  0.00  0.00    +0.210 HD
ENDBRANCH   9   2
BRANCH   4  11
ATOM     11  C   UNL     1      17.387  -4.740  28.552  0.00  0.00    +0.120 C 
BRANCH  11  13
ATOM     13  C   UNL     1      16.801  -6.075  28.175  0.00  0.00    -0.033 A 
ATOM     15  C   UNL     1      17.348  -7.249  28.694  0.00  0.00    +0.005 A 
ATOM     16  C   UNL     1      15.712  -6.138  27.306  0.00  0.00    +0.005 A 
ATOM     18  C   UNL     1      16.804  -8.485  28.345  0.00  0.00    +0.000 A 
ATOM     19  C   UNL     1      15.169  -7.375  26.956  0.00  0.00    +0.000 A 
ATOM     20  C   UNL     1      15.715  -8.547  27.475  0.00  0.00    +0.000 A 
ENDBRANCH  11  13
ENDBRANCH   4  11
TORSDOF 5
ENDMDL
MODEL 5
REMARK VINA RESULT:      -2.4      1.671      4.003
REMARK  Name = 26743766
REMARK  6 active torsions:
REMARK  status: ('A' for Active; 'I' for Inactive)
REMARK    1  A    between atoms: O_2  and  C_9
REMARK    2  A    between atoms: N_4  and  C_11
REMARK    3  A    between atoms: C_7  and  C_12
REMARK    4  A    between atoms: C_11  and  C_13
REMARK    5  A    between atoms: C_14  and  C_17
REMARK    6  A    between atoms: C_25  and  C_26
REMARK                            x       y       z     vdW  Elec       q    Type
REMARK                         _______ _______ _______ _____ _____    ______ ____
ROOT
ATOM      4  N   UNL     1      -3.209  -0.121  24.674  0.00  0.00    -0.285 NA
ATOM      7  C   UNL     1      -2.098  -1.092  24.733  0.00  0.00    +0.149 C 
ATOM      8  C   UNL     1      -2.629  -2.342  24.007  0.00  0.00    +0.061 C 
ATOM      9  C   UNL     1      -4.061  -1.993  23.617  0.00  0.00    +0.130 C 
ATOM     10  C   UNL     1      -4.441  -0.904  24.602  0.00  0.00    +0.116 C 
ENDROOT
BRANCH   7  12
ATOM      3  O   UNL     1      -0.962   0.440  23.205  0.00  0.00    -0.336 OA
ATOM      5  N   UNL     1       0.418  -0.913  24.337  0.00  0.00    -0.190 NA
ATOM      6  N   UNL     1       0.334   0.766  22.785  0.00  0.00    -0.056 NA
ATOM     12  C   UNL     1      -0.821  -0.556  24.119  0.00  0.00    +0.245 A 
ATOM     14  C   UNL     1       1.091  -0.075  23.496  0.00  0.00    +0.202 A 
BRANCH  14  17
ATOM      1  F   UNL     1       5.297  -2.331  24.130  0.00  0.00    -0.205 F 
ATOM     17  C   UNL     1       2.522  -0.101  23.393  0.00  0.00    +0.025 A 
ATOM     21  C   UNL     1       3.232  -1.223  23.820  0.00  0.00    +0.050 A 
ATOM     22  C   UNL     1       3.203   0.996  22.864  0.00  0.00    +0.012 A 
ATOM     23  C   UNL     1       4.623  -1.248  23.718  0.00  0.00    +0.127 A 
ATOM     24  C   UNL     1       4.593   0.970  22.762  0.00  0.00    +0.007 A 
ATOM     25  C   UNL     1       5.304  -0.151  23.189  0.00  0.00    -0.015 A 
ATOM     26  C   UNL     1       6.791  -0.176  23.079  0.00  0.00    +0.047 C 
ENDBRANCH  14  17
ENDBRANCH   7  12
BRANCH   9   2
ATOM      2  O   UNL     1      -4.902  -3.124  23.734  0.00  0.00    -0.390 OA
ATOM     27  H   UNL     1      -5.774  -2.810  24.030  0.00  0.00    +0.210 HD
ENDBRANCH   9   2
BRANCH   4  11
ATOM     11  C   UNL     1      -3.217   0.812  25.794  0.00  0.00    +0.120 C 
BRANCH  11  13
ATOM     13  C   UNL     1      -2.800   2.196  25.374  0.00  0.00    -0.033 A 
ATOM     15  C   UNL     1      -3.689   3.009  24.670  0.00  0.00    +0.005 A 
ATOM     16  C   UNL     1      -1.524   2.666  25.687  0.00  0.00    +0.005 A 
ATOM     18  C   UNL     1      -3.302   4.292  24.281  0.00  0.00    +0.000 A 
ATOM     19  C   UNL     1      -1.138   3.948  25.298  0.00  0.00    +0.000 A 
ATOM     20  C   UNL     1      -2.026   4.761  24.595  0.00  0.00    +0.000 A 
ENDBRANCH  11  13
ENDBRANCH   4  11
TORSDOF 5
ENDMDL
MODEL 6
REMARK VINA RESULT:      -2.1      1.493      3.593
REMARK  Name = 26743766
REMARK  6 active torsions:
REMARK  status: ('A' for Active; 'I' for Inactive)
REMARK    1  A    between atoms: O_2  and  C_9
REMARK    2  A    between atoms: N_4  and  C_11
REMARK    3  A    between atoms: C_7  and  C_12
REMARK    4  A    between atoms: C_11  and  C_13
REMARK    5  A    between atoms: C_14  and  C_17
REMARK    6  A    between atoms: C_25  and  C_26
REMARK                            x       y       z     vdW  Elec       q    Type
REMARK                         _______ _______ _______ _____ _____    ______ ____
ROOT
ATOM      4  N   UNL     1      -2.986  -0.137  23.412  0.00  0.00    -0.285 NA
ATOM      7  C   UNL     1      -2.136   0.051  24.605  0.00  0.00    +0.149 C 
ATOM      8  C   UNL     1      -2.165  -1.309  25.328  0.00  0.00    +0.061 C 
ATOM      9  C   UNL     1      -3.094  -2.180  24.491  0.00  0.00    +0.130 C 
ATOM     10  C   UNL     1      -3.958  -1.174  23.755  0.00  0.00    +0.116 C 
ENDROOT
BRANCH   7  12
ATOM      3  O   UNL     1      -0.549   1.834  24.079  0.00  0.00    -0.336 OA
ATOM      5  N   UNL     1       0.351  -0.218  24.094  0.00  0.00    -0.190 NA
ATOM      6  N   UNL     1       0.806   2.001  23.769  0.00  0.00    -0.056 NA
ATOM     12  C   UNL     1      -0.732   0.499  24.256  0.00  0.00    +0.245 A 
ATOM     14  C   UNL     1       1.268   0.748  23.796  0.00  0.00    +0.202 A 
BRANCH  14  17
ATOM      1  F   UNL     1       4.967  -2.327  24.015  0.00  0.00    -0.205 F 
ATOM     17  C   UNL     1       2.642   0.426  23.533  0.00  0.00    +0.025 A 
ATOM     21  C   UNL     1       3.151  -0.817  23.908  0.00  0.00    +0.050 A 
ATOM     22  C   UNL     1       3.468   1.356  22.901  0.00  0.00    +0.012 A 
ATOM     23  C   UNL     1       4.486  -1.130  23.651  0.00  0.00    +0.127 A 
ATOM     24  C   UNL     1       4.802   1.043  22.644  0.00  0.00    +0.007 A 
ATOM     25  C   UNL     1       5.312  -0.200  23.019  0.00  0.00    -0.015 A 
ATOM     26  C   UNL     1       6.740  -0.532  22.744  0.00  0.00    +0.047 C 
ENDBRANCH  14  17
ENDBRANCH   7  12
BRANCH   9   2
ATOM      2  O   UNL     1      -3.865  -3.030  25.318  0.00  0.00    -0.390 OA
ATOM     27  H   UNL     1      -4.779  -3.008  24.987  0.00  0.00    +0.210 HD
ENDBRANCH   9   2
BRANCH   4  11
ATOM     11  C   UNL     1      -3.630   1.091  22.965  0.00  0.00    +0.120 C 
BRANCH  11  13
ATOM     13  C   UNL     1      -4.212   1.869  24.115  0.00  0.00    -0.033 A 
ATOM     15  C   UNL     1      -5.326   1.379  24.797  0.00  0.00    +0.005 A 
ATOM     16  C   UNL     1      -3.638   3.083  24.497  0.00  0.00    +0.005 A 
ATOM     18  C   UNL     1      -5.864   2.101  25.863  0.00  0.00    +0.000 A 
ATOM     19  C   UNL     1      -4.178   3.804  25.562  0.00  0.00    +0.000 A 
ATOM     20  C   UNL     1      -5.290   3.313  26.245  0.00  0.00    +0.000 A 
ENDBRANCH  11  13
ENDBRANCH   4  11
TORSDOF 5
ENDMDL
MODEL 7
REMARK VINA RESULT:      -1.9      3.075      6.768
REMARK  Name = 26743766
REMARK  6 active torsions:
REMARK  status: ('A' for Active; 'I' for Inactive)
REMARK    1  A    between atoms: O_2  and  C_9
REMARK    2  A    between atoms: N_4  and  C_11
REMARK    3  A    between atoms: C_7  and  C_12
REMARK    4  A    between atoms: C_11  and  C_13
REMARK    5  A    between atoms: C_14  and  C_17
REMARK    6  A    between atoms: C_25  and  C_26
REMARK                            x       y       z     vdW  Elec       q    Type
REMARK                         _______ _______ _______ _____ _____    ______ ____
ROOT
ATOM      4  N   UNL     1       0.617  -0.593  23.545  0.00  0.00    -0.285 NA
ATOM      7  C   UNL     1       1.264   0.559  24.207  0.00  0.00    +0.149 C 
ATOM      8  C   UNL     1       2.153   1.190  23.120  0.00  0.00    +0.061 C 
ATOM      9  C   UNL     1       1.975   0.297  21.898  0.00  0.00    +0.130 C 
ATOM     10  C   UNL     1       1.528  -1.027  22.487  0.00  0.00    +0.116 C 
ENDROOT
BRANCH   7  12
ATOM      3  O   UNL     1       0.727   2.387  25.738  0.00  0.00    -0.336 OA
ATOM      5  N   UNL     1      -1.007   1.689  24.502  0.00  0.00    -0.190 NA
ATOM      6  N   UNL     1      -0.364   3.181  26.114  0.00  0.00    -0.056 NA
ATOM     12  C   UNL     1       0.262   1.536  24.785  0.00  0.00    +0.245 A 
ATOM     14  C   UNL     1      -1.348   2.709  25.343  0.00  0.00    +0.202 A 
BRANCH  14  17
ATOM      1  F   UNL     1      -6.087   2.172  24.685  0.00  0.00    -0.205 F 
ATOM     17  C   UNL     1      -2.682   3.236  25.385  0.00  0.00    +0.025 A 
ATOM     21  C   UNL     1      -3.760   2.436  25.007  0.00  0.00    +0.050 A 
ATOM     22  C   UNL     1      -2.900   4.548  25.805  0.00  0.00    +0.012 A 
ATOM     23  C   UNL     1      -5.057   2.948  25.050  0.00  0.00    +0.127 A 
ATOM     24  C   UNL     1      -4.196   5.060  25.848  0.00  0.00    +0.007 A 
ATOM     25  C   UNL     1      -5.275   4.261  25.470  0.00  0.00    -0.015 A 
ATOM     26  C   UNL     1      -6.661   4.811  25.516  0.00  0.00    +0.047 C 
ENDBRANCH  14  17
ENDBRANCH   7  12
BRANCH   9   2
ATOM      2  O   UNL     1       3.191   0.171  21.187  0.00  0.00    -0.390 OA
ATOM     27  H   UNL     1       3.012  -0.363  20.394  0.00  0.00    +0.210 HD
ENDBRANCH   9   2
BRANCH   4  11
ATOM     11  C   UNL     1       0.289  -1.675  24.465  0.00  0.00    +0.120 C 
BRANCH  11  13
ATOM     13  C   UNL     1      -1.189  -1.752  24.735  0.00  0.00    -0.033 A 
ATOM     15  C   UNL     1      -1.752  -0.987  25.757  0.00  0.00    +0.005 A 
ATOM     16  C   UNL     1      -1.997  -2.589  23.965  0.00  0.00    +0.005 A 
ATOM     18  C   UNL     1      -3.123  -1.058  26.007  0.00  0.00    +0.000 A 
ATOM     19  C   UNL     1      -3.367  -2.660  24.216  0.00  0.00    +0.000 A 
ATOM     20  C   UNL     1      -3.930  -1.895  25.236  0.00  0.00    +0.000 A 
ENDBRANCH  11  13
ENDBRANCH   4  11
TORSDOF 5
ENDMDL
MODEL 8
REMARK VINA RESULT:      -1.5     16.021     18.181
REMARK  Name = 26743766
REMARK  6 active torsions:
REMARK  status: ('A' for Active; 'I' for Inactive)
REMARK    1  A    between atoms: O_2  and  C_9
REMARK    2  A    between atoms: N_4  and  C_11
REMARK    3  A    between atoms: C_7  and  C_12
REMARK    4  A    between atoms: C_11  and  C_13
REMARK    5  A    between atoms: C_14  and  C_17
REMARK    6  A    between atoms: C_25  and  C_26
REMARK                            x       y       z     vdW  Elec       q    Type
REMARK                         _______ _______ _______ _____ _____    ______ ____
ROOT
ATOM      4  N   UNL     1      -8.929 -10.551  10.024  0.00  0.00    -0.285 NA
ATOM      7  C   UNL     1      -8.123  -9.569  10.778  0.00  0.00    +0.149 C 
ATOM      8  C   UNL     1      -8.581  -9.723  12.240  0.00  0.00    +0.061 C 
ATOM      9  C   UNL     1      -9.678 -10.780  12.200  0.00  0.00    +0.130 C 
ATOM     10  C   UNL     1     -10.175 -10.722  10.769  0.00  0.00    +0.116 C 
ENDROOT
BRANCH   7  12
ATOM      3  O   UNL     1      -6.259 -10.737   9.712  0.00  0.00    -0.336 OA
ATOM      5  N   UNL     1      -5.634  -9.180  11.196  0.00  0.00    -0.190 NA
ATOM      6  N   UNL     1      -4.858 -10.752   9.725  0.00  0.00    -0.056 NA
ATOM     12  C   UNL     1      -6.633  -9.783  10.605  0.00  0.00    +0.245 A 
ATOM     14  C   UNL     1      -4.566  -9.808  10.624  0.00  0.00    +0.202 A 
BRANCH  14  17
ATOM      1  F   UNL     1      -0.983  -9.630  13.836  0.00  0.00    -0.205 F 
ATOM     17  C   UNL     1      -3.216  -9.465  10.972  0.00  0.00    +0.025 A 
ATOM     21  C   UNL     1      -2.743  -9.717  12.260  0.00  0.00    +0.050 A 
ATOM     22  C   UNL     1      -2.378  -8.881  10.022  0.00  0.00    +0.012 A 
ATOM     23  C   UNL     1      -1.430  -9.385  12.596  0.00  0.00    +0.127 A 
ATOM     24  C   UNL     1      -1.066  -8.550  10.359  0.00  0.00    +0.007 A 
ATOM     25  C   UNL     1      -0.592  -8.801  11.646  0.00  0.00    -0.015 A 
ATOM     26  C   UNL     1       0.812  -8.445  12.004  0.00  0.00    +0.047 C 
ENDBRANCH  14  17
ENDBRANCH   7  12
BRANCH   9   2
ATOM      2  O   UNL     1     -10.703 -10.474  13.125  0.00  0.00    -0.390 OA
ATOM     27  H   UNL     1     -10.547  -9.569  13.445  0.00  0.00    +0.210 HD
ENDBRANCH   9   2
BRANCH   4  11
ATOM     11  C   UNL     1      -9.167 -10.159   8.640  0.00  0.00    +0.120 C 
BRANCH  11  13
ATOM     13  C   UNL     1      -9.314  -8.668   8.497  0.00  0.00    -0.033 A 
ATOM     15  C   UNL     1      -8.192  -7.875   8.257  0.00  0.00    +0.005 A 
ATOM     16  C   UNL     1     -10.574  -8.078   8.606  0.00  0.00    +0.005 A 
ATOM     18  C   UNL     1      -8.330  -6.493   8.124  0.00  0.00    +0.000 A 
ATOM     19  C   UNL     1     -10.711  -6.697   8.473  0.00  0.00    +0.000 A 
ATOM     20  C   UNL     1      -9.590  -5.904   8.233  0.00  0.00    +0.000 A 
ENDBRANCH  11  13
ENDBRANCH   4  11
TORSDOF 5
ENDMDL
MODEL 9
REMARK VINA RESULT:      -1.4     15.865     17.602
REMARK  Name = 26743766
REMARK  6 active torsions:
REMARK  status: ('A' for Active; 'I' for Inactive)
REMARK    1  A    between atoms: O_2  and  C_9
REMARK    2  A    between atoms: N_4  and  C_11
REMARK    3  A    between atoms: C_7  and  C_12
REMARK    4  A    between atoms: C_11  and  C_13
REMARK    5  A    between atoms: C_14  and  C_17
REMARK    6  A    between atoms: C_25  and  C_26
REMARK                            x       y       z     vdW  Elec       q    Type
REMARK                         _______ _______ _______ _____ _____    ______ ____
ROOT
ATOM      4  N   UNL     1      -9.894 -10.572  12.998  0.00  0.00    -0.285 NA
ATOM      7  C   UNL     1      -9.002  -9.400  12.887  0.00  0.00    +0.149 C 
ATOM      8  C   UNL     1      -8.808  -8.913  14.335  0.00  0.00    +0.061 C 
ATOM      9  C   UNL     1      -9.666  -9.846  15.182  0.00  0.00    +0.130 C 
ATOM     10  C   UNL     1     -10.698 -10.368  14.201  0.00  0.00    +0.116 C 
ENDROOT
BRANCH   7  12
ATOM      3  O   UNL     1      -7.748 -10.648  11.201  0.00  0.00    -0.336 OA
ATOM      5  N   UNL     1      -6.495  -9.249  12.423  0.00  0.00    -0.190 NA
ATOM      6  N   UNL     1      -6.437 -10.781  10.724  0.00  0.00    -0.056 NA
ATOM     12  C   UNL     1      -7.693  -9.727  12.199  0.00  0.00    +0.245 A 
ATOM     14  C   UNL     1      -5.759  -9.926  11.495  0.00  0.00    +0.202 A 
BRANCH  14  17
ATOM      1  F   UNL     1      -1.273 -10.450  13.164  0.00  0.00    -0.205 F 
ATOM     17  C   UNL     1      -4.345  -9.721  11.361  0.00  0.00    +0.025 A 
ATOM     21  C   UNL     1      -3.476 -10.192  12.345  0.00  0.00    +0.050 A 
ATOM     22  C   UNL     1      -3.840  -9.053  10.245  0.00  0.00    +0.012 A 
ATOM     23  C   UNL     1      -2.101  -9.994  12.213  0.00  0.00    +0.127 A 
ATOM     24  C   UNL     1      -2.466  -8.856  10.114  0.00  0.00    +0.007 A 
ATOM     25  C   UNL     1      -1.596  -9.326  11.097  0.00  0.00    -0.015 A 
ATOM     26  C   UNL     1      -0.127  -9.113  10.955  0.00  0.00    +0.047 C 
ENDBRANCH  14  17
ENDBRANCH   7  12
BRANCH   9   2
ATOM      2  O   UNL     1     -10.266  -9.142  16.252  0.00  0.00    -0.390 OA
ATOM     27  H   UNL     1     -11.216  -9.350  16.242  0.00  0.00    +0.210 HD
ENDBRANCH   9   2
BRANCH   4  11
ATOM     11  C   UNL     1     -10.719 -10.781  11.816  0.00  0.00    +0.120 C 
BRANCH  11  13
ATOM     13  C   UNL     1     -10.515  -9.699  10.790  0.00  0.00    -0.033 A 
ATOM     15  C   UNL     1     -10.128 -10.031   9.492  0.00  0.00    +0.005 A 
ATOM     16  C   UNL     1     -10.711  -8.362  11.139  0.00  0.00    +0.005 A 
ATOM     18  C   UNL     1      -9.939  -9.027   8.542  0.00  0.00    +0.000 A 
ATOM     19  C   UNL     1     -10.521  -7.358  10.189  0.00  0.00    +0.000 A 
ATOM     20  C   UNL     1     -10.135  -7.690   8.891  0.00  0.00    +0.000 A 
ENDBRANCH  11  13
ENDBRANCH   4  11
TORSDOF 5
ENDMDL
MODEL 10
REMARK VINA RESULT:      -1.2      3.117      6.832
REMARK  Name = 26743766
REMARK  6 active torsions:
REMARK  status: ('A' for Active; 'I' for Inactive)
REMARK    1  A    between atoms: O_2  and  C_9
REMARK    2  A    between atoms: N_4  and  C_11
REMARK    3  A    between atoms: C_7  and  C_12
REMARK    4  A    between atoms: C_11  and  C_13
REMARK    5  A    between atoms: C_14  and  C_17
REMARK    6  A    between atoms: C_25  and  C_26
REMARK                            x       y       z     vdW  Elec       q    Type
REMARK                         _______ _______ _______ _____ _____    ______ ____
ROOT
ATOM      4  N   UNL     1       1.119  -0.803  23.681  0.00  0.00    -0.285 NA
ATOM      7  C   UNL     1       1.034   0.625  24.051  0.00  0.00    +0.149 C 
ATOM      8  C   UNL     1       2.105   1.320  23.191  0.00  0.00    +0.061 C 
ATOM      9  C   UNL     1       2.770   0.195  22.405  0.00  0.00    +0.130 C 
ATOM     10  C   UNL     1       2.495  -1.036  23.247  0.00  0.00    +0.116 C 
ENDROOT
BRANCH   7  12
ATOM      3  O   UNL     1      -0.881   1.060  22.595  0.00  0.00    -0.336 OA
ATOM      5  N   UNL     1      -1.131   1.821  24.688  0.00  0.00    -0.190 NA
ATOM      6  N   UNL     1      -2.146   1.659  22.643  0.00  0.00    -0.056 NA
ATOM     12  C   UNL     1      -0.352   1.199  23.839  0.00  0.00    +0.245 A 
ATOM     14  C   UNL     1      -2.219   2.084  23.908  0.00  0.00    +0.202 A 
BRANCH  14  17
ATOM      1  F   UNL     1      -6.828   2.083  25.301  0.00  0.00    -0.205 F 
ATOM     17  C   UNL     1      -3.368   2.772  24.425  0.00  0.00    +0.025 A 
ATOM     21  C   UNL     1      -4.565   2.084  24.616  0.00  0.00    +0.050 A 
ATOM     22  C   UNL     1      -3.285   4.129  24.739  0.00  0.00    +0.012 A 
ATOM     23  C   UNL     1      -5.681   2.753  25.121  0.00  0.00    +0.127 A 
ATOM     24  C   UNL     1      -4.400   4.797  25.244  0.00  0.00    +0.007 A 
ATOM     25  C   UNL     1      -5.598   4.110  25.435  0.00  0.00    -0.015 A 
ATOM     26  C   UNL     1      -6.789   4.827  25.974  0.00  0.00    +0.047 C 
ENDBRANCH  14  17
ENDBRANCH   7  12
BRANCH   9   2
ATOM      2  O   UNL     1       4.156   0.436  22.262  0.00  0.00    -0.390 OA
ATOM     27  H   UNL     1       4.328   0.599  21.319  0.00  0.00    +0.210 HD
ENDBRANCH   9   2
BRANCH   4  11
ATOM     11  C   UNL     1       0.725  -1.701  24.759  0.00  0.00    +0.120 C 
BRANCH  11  13
ATOM     13  C   UNL     1      -0.766  -1.712  24.963  0.00  0.00    -0.033 A 
ATOM     15  C   UNL     1      -1.585  -2.428  24.088  0.00  0.00    +0.005 A 
ATOM     16  C   UNL     1      -1.331  -1.006  26.025  0.00  0.00    +0.005 A 
ATOM     18  C   UNL     1      -2.967  -2.438  24.278  0.00  0.00    +0.000 A 
ATOM     19  C   UNL     1      -2.713  -1.016  26.214  0.00  0.00    +0.000 A 
ATOM     20  C   UNL     1      -3.530  -1.731  25.341  0.00  0.00    +0.000 A 
ENDBRANCH  11  13
ENDBRANCH   4  11
TORSDOF 5
ENDMDL
