MODEL 1
REMARK VINA RESULT:      11.7      0.000      0.000
REMARK  Name = 44716528
REMARK  9 active torsions:
REMARK  status: ('A' for Active; 'I' for Inactive)
REMARK    1  A    between atoms: O_3  and  C_22
REMARK    2  A    between atoms: O_3  and  C_35
REMARK    3  A    between atoms: N_6  and  C_13
REMARK    4  A    between atoms: N_6  and  C_23
REMARK    5  A    between atoms: N_8  and  C_33
REMARK    6  A    between atoms: C_11  and  C_19
REMARK    7  A    between atoms: C_15  and  C_22
REMARK    8  A    between atoms: C_23  and  C_28
REMARK    9  A    between atoms: C_28  and  C_33
REMARK                            x       y       z     vdW  Elec       q    Type
REMARK                         _______ _______ _______ _____ _____    ______ ____
ROOT
ATOM      5  N   UNL     1      -0.650   0.500  23.764  0.00  0.00    -0.274 NA
ATOM      7  N   UNL     1       2.908   1.550  23.006  0.00  0.00    -0.356 N 
ATOM     10  C   UNL     1       0.339   1.405  23.071  0.00  0.00    +0.106 C 
ATOM     11  C   UNL     1      -0.645   0.697  25.247  0.00  0.00    +0.090 C 
ATOM     12  C   UNL     1       0.199   2.876  23.482  0.00  0.00    +0.044 C 
ATOM     13  C   UNL     1       0.295   3.054  24.994  0.00  0.00    +0.057 C 
ATOM     14  C   UNL     1      -0.776   2.189  25.650  0.00  0.00    +0.042 C 
ATOM     15  C   UNL     1      -0.370  -0.900  23.301  0.00  0.00    +0.172 C 
ATOM     16  C   UNL     1       1.742   0.864  23.204  0.00  0.00    +0.038 A 
ATOM     17  C   UNL     1       1.001  -1.464  23.743  0.00  0.00    +0.068 C 
ATOM     18  C   UNL     1       2.063  -0.448  23.496  0.00  0.00    -0.016 A 
ATOM     20  C   UNL     1       3.478  -0.556  23.512  0.00  0.00    +0.003 A 
ATOM     21  C   UNL     1       3.983   0.710  23.202  0.00  0.00    +0.047 A 
ATOM     26  C   UNL     1       4.385  -1.607  23.754  0.00  0.00    +0.010 A 
ATOM     27  C   UNL     1       5.356   0.975  23.124  0.00  0.00    +0.026 A 
ATOM     29  C   UNL     1       5.759  -1.355  23.682  0.00  0.00    +0.001 A 
ATOM     32  C   UNL     1       6.235  -0.083  23.372  0.00  0.00    +0.002 A 
ATOM     40  H   UNL     1       2.980   2.528  22.761  0.00  0.00    +0.166 HD
ENDROOT
BRANCH  11  19
ATOM      1  F   UNL     1      -5.385  -0.057  26.231  0.00  0.00    -0.202 F 
ATOM      2  F   UNL     1      -4.756  -2.056  27.988  0.00  0.00    -0.202 F 
ATOM     19  C   UNL     1      -1.755  -0.046  25.987  0.00  0.00    -0.027 A 
ATOM     24  C   UNL     1      -3.089   0.295  25.766  0.00  0.00    +0.046 A 
ATOM     25  C   UNL     1      -1.434  -1.065  26.884  0.00  0.00    +0.008 A 
ATOM     30  C   UNL     1      -4.103  -0.384  26.443  0.00  0.00    +0.159 A 
ATOM     31  C   UNL     1      -2.448  -1.744  27.559  0.00  0.00    +0.041 A 
ATOM     34  C   UNL     1      -3.783  -1.404  27.339  0.00  0.00    +0.158 A 
ENDBRANCH  11  19
BRANCH  15  22
ATOM      4  O   UNL     1      -1.335  -2.934  24.137  0.00  0.00    -0.249 OA
ATOM     22  C   UNL     1      -1.490  -1.825  23.647  0.00  0.00    +0.325 C 
BRANCH  22   3
ATOM      3  O   UNL     1      -2.680  -1.236  23.333  0.00  0.00    -0.467 OA
ATOM     35  C   UNL     1      -3.843  -2.032  23.579  0.00  0.00    +0.280 C 
ENDBRANCH  22   3
ENDBRANCH  15  22
BRANCH  13   6
ATOM      6  N   UNL     1       0.107   4.455  25.366  0.00  0.00    -0.313 NA
ATOM     39  H   UNL     1       1.011   4.927  25.406  0.00  0.00    +0.122 HD
BRANCH   6  23
ATOM     23  C   UNL     1      -0.734   5.137  24.393  0.00  0.00    +0.083 C 
BRANCH  23  28
ATOM     28  C   UNL     1      -2.006   5.653  25.063  0.00  0.00    +0.037 C 
BRANCH  28  33
ATOM     33  C   UNL     1      -2.584   4.611  26.025  0.00  0.00    +0.124 C 
BRANCH  33   8
ATOM      8  N   UNL     1      -3.696   3.819  25.387  0.00  0.00    -0.337 N 
ATOM      9  N   UNL     1      -5.642   2.772  25.161  0.00  0.00    -0.244 NA
ATOM     36  C   UNL     1      -3.712   3.329  24.111  0.00  0.00    +0.106 A 
ATOM     37  C   UNL     1      -4.876   3.460  25.977  0.00  0.00    +0.199 A 
ATOM     38  C   UNL     1      -4.921   2.686  23.996  0.00  0.00    +0.130 A 
ENDBRANCH  33   8
ENDBRANCH  28  33
ENDBRANCH  23  28
ENDBRANCH   6  23
ENDBRANCH  13   6
TORSDOF 8
ENDMDL
MODEL 2
REMARK VINA RESULT:      12.9      2.125      6.875
REMARK  Name = 44716528
REMARK  9 active torsions:
REMARK  status: ('A' for Active; 'I' for Inactive)
REMARK    1  A    between atoms: O_3  and  C_22
REMARK    2  A    between atoms: O_3  and  C_35
REMARK    3  A    between atoms: N_6  and  C_13
REMARK    4  A    between atoms: N_6  and  C_23
REMARK    5  A    between atoms: N_8  and  C_33
REMARK    6  A    between atoms: C_11  and  C_19
REMARK    7  A    between atoms: C_15  and  C_22
REMARK    8  A    between atoms: C_23  and  C_28
REMARK    9  A    between atoms: C_28  and  C_33
REMARK                            x       y       z     vdW  Elec       q    Type
REMARK                         _______ _______ _______ _____ _____    ______ ____
ROOT
ATOM      5  N   UNL     1      -1.965   1.008  25.648  0.00  0.00    -0.274 NA
ATOM      7  N   UNL     1      -1.197   4.593  24.705  0.00  0.00    -0.356 N 
ATOM     10  C   UNL     1      -1.137   2.262  25.793  0.00  0.00    +0.106 C 
ATOM     11  C   UNL     1      -1.778   0.365  24.310  0.00  0.00    +0.090 C 
ATOM     12  C   UNL     1       0.338   2.054  25.427  0.00  0.00    +0.044 C 
ATOM     13  C   UNL     1       0.498   1.479  24.023  0.00  0.00    +0.057 C 
ATOM     14  C   UNL     1      -0.283   0.171  23.946  0.00  0.00    +0.042 C 
ATOM     15  C   UNL     1      -3.380   1.368  25.996  0.00  0.00    +0.172 C 
ATOM     16  C   UNL     1      -1.789   3.417  25.073  0.00  0.00    +0.038 A 
ATOM     17  C   UNL     1      -4.054   2.356  25.016  0.00  0.00    +0.068 C 
ATOM     18  C   UNL     1      -3.124   3.484  24.724  0.00  0.00    -0.016 A 
ATOM     20  C   UNL     1      -3.345   4.733  24.086  0.00  0.00    +0.003 A 
ATOM     21  C   UNL     1      -2.121   5.408  24.087  0.00  0.00    +0.047 A 
ATOM     26  C   UNL     1      -4.466   5.362  23.510  0.00  0.00    +0.010 A 
ATOM     27  C   UNL     1      -1.966   6.687  23.537  0.00  0.00    +0.026 A 
ATOM     29  C   UNL     1      -4.324   6.639  22.955  0.00  0.00    +0.001 A 
ATOM     32  C   UNL     1      -3.092   7.289  22.969  0.00  0.00    +0.002 A 
ATOM     40  H   UNL     1      -0.226   4.835  24.853  0.00  0.00    +0.166 HD
ENDROOT
BRANCH  11  19
ATOM      1  F   UNL     1      -5.605  -2.458  23.135  0.00  0.00    -0.202 F 
ATOM      2  F   UNL     1      -4.209  -4.716  23.792  0.00  0.00    -0.202 F 
ATOM     19  C   UNL     1      -2.435  -1.007  24.171  0.00  0.00    -0.027 A 
ATOM     24  C   UNL     1      -3.746  -1.108  23.707  0.00  0.00    +0.046 A 
ATOM     25  C   UNL     1      -1.722  -2.159  24.506  0.00  0.00    +0.008 A 
ATOM     30  C   UNL     1      -4.345  -2.361  23.580  0.00  0.00    +0.159 A 
ATOM     31  C   UNL     1      -2.322  -3.411  24.378  0.00  0.00    +0.041 A 
ATOM     34  C   UNL     1      -3.634  -3.513  23.915  0.00  0.00    +0.158 A 
ENDBRANCH  11  19
BRANCH  15  22
ATOM      4  O   UNL     1      -3.809  -0.865  26.768  0.00  0.00    -0.249 OA
ATOM     22  C   UNL     1      -4.214   0.151  26.221  0.00  0.00    +0.325 C 
BRANCH  22   3
ATOM      3  O   UNL     1      -5.469   0.360  25.729  0.00  0.00    -0.467 OA
ATOM     35  C   UNL     1      -6.216   1.398  26.370  0.00  0.00    +0.280 C 
ENDBRANCH  22   3
ENDBRANCH  15  22
BRANCH  13   6
ATOM      6  N   UNL     1       1.907   1.241  23.716  0.00  0.00    -0.313 NA
ATOM     39  H   UNL     1       2.462   1.299  24.571  0.00  0.00    +0.122 HD
BRANCH   6  23
ATOM     23  C   UNL     1       2.090  -0.077  23.127  0.00  0.00    +0.083 C 
BRANCH  23  28
ATOM     28  C   UNL     1       2.610   0.051  21.696  0.00  0.00    +0.037 C 
BRANCH  28  33
ATOM     33  C   UNL     1       4.075   0.494  21.680  0.00  0.00    +0.124 C 
BRANCH  33   8
ATOM      8  N   UNL     1       4.798   0.077  22.935  0.00  0.00    -0.337 N 
ATOM      9  N   UNL     1       5.585  -1.234  24.546  0.00  0.00    -0.244 NA
ATOM     36  C   UNL     1       5.485   0.898  23.784  0.00  0.00    +0.106 A 
ATOM     37  C   UNL     1       4.887  -1.193  23.434  0.00  0.00    +0.199 A 
ATOM     38  C   UNL     1       5.961   0.066  24.770  0.00  0.00    +0.130 A 
ENDBRANCH  33   8
ENDBRANCH  28  33
ENDBRANCH  23  28
ENDBRANCH   6  23
ENDBRANCH  13   6
TORSDOF 8
ENDMDL
MODEL 3
REMARK VINA RESULT:      12.9      2.564      4.917
REMARK  Name = 44716528
REMARK  9 active torsions:
REMARK  status: ('A' for Active; 'I' for Inactive)
REMARK    1  A    between atoms: O_3  and  C_22
REMARK    2  A    between atoms: O_3  and  C_35
REMARK    3  A    between atoms: N_6  and  C_13
REMARK    4  A    between atoms: N_6  and  C_23
REMARK    5  A    between atoms: N_8  and  C_33
REMARK    6  A    between atoms: C_11  and  C_19
REMARK    7  A    between atoms: C_15  and  C_22
REMARK    8  A    between atoms: C_23  and  C_28
REMARK    9  A    between atoms: C_28  and  C_33
REMARK                            x       y       z     vdW  Elec       q    Type
REMARK                         _______ _______ _______ _____ _____    ______ ____
ROOT
ATOM      5  N   UNL     1      -0.889   1.132  24.618  0.00  0.00    -0.274 NA
ATOM      7  N   UNL     1       2.031  -1.277  24.579  0.00  0.00    -0.356 N 
ATOM     10  C   UNL     1      -0.138  -0.040  25.202  0.00  0.00    +0.106 C 
ATOM     11  C   UNL     1      -1.482   0.808  23.283  0.00  0.00    +0.090 C 
ATOM     12  C   UNL     1      -0.956  -1.337  25.206  0.00  0.00    +0.044 C 
ATOM     13  C   UNL     1      -1.473  -1.686  23.814  0.00  0.00    +0.057 C 
ATOM     14  C   UNL     1      -2.297  -0.511  23.297  0.00  0.00    +0.042 C 
ATOM     15  C   UNL     1       0.041   2.310  24.640  0.00  0.00    +0.172 C 
ATOM     16  C   UNL     1       1.220  -0.177  24.558  0.00  0.00    +0.038 A 
ATOM     17  C   UNL     1       1.272   2.178  23.713  0.00  0.00    +0.068 C 
ATOM     18  C   UNL     1       1.886   0.832  23.887  0.00  0.00    -0.016 A 
ATOM     20  C   UNL     1       3.134   0.314  23.452  0.00  0.00    +0.003 A 
ATOM     21  C   UNL     1       3.200  -1.009  23.898  0.00  0.00    +0.047 A 
ATOM     26  C   UNL     1       4.221   0.838  22.725  0.00  0.00    +0.010 A 
ATOM     27  C   UNL     1       4.304  -1.834  23.651  0.00  0.00    +0.026 A 
ATOM     29  C   UNL     1       5.330   0.024  22.469  0.00  0.00    +0.001 A 
ATOM     32  C   UNL     1       5.368  -1.292  22.925  0.00  0.00    +0.002 A 
ATOM     40  H   UNL     1       1.812  -2.160  25.019  0.00  0.00    +0.166 HD
ENDROOT
BRANCH  11  19
ATOM      1  F   UNL     1      -4.843   4.315  23.918  0.00  0.00    -0.202 F 
ATOM      2  F   UNL     1      -4.934   4.788  21.227  0.00  0.00    -0.202 F 
ATOM     19  C   UNL     1      -2.415   1.883  22.728  0.00  0.00    -0.027 A 
ATOM     24  C   UNL     1      -3.219   2.623  23.594  0.00  0.00    +0.046 A 
ATOM     25  C   UNL     1      -2.461   2.124  21.355  0.00  0.00    +0.008 A 
ATOM     30  C   UNL     1      -4.070   3.604  23.087  0.00  0.00    +0.159 A 
ATOM     31  C   UNL     1      -3.313   3.105  20.848  0.00  0.00    +0.041 A 
ATOM     34  C   UNL     1      -4.118   3.846  21.714  0.00  0.00    +0.158 A 
ENDBRANCH  11  19
BRANCH  15  22
ATOM      4  O   UNL     1      -0.543   4.299  23.427  0.00  0.00    -0.249 OA
ATOM     22  C   UNL     1      -0.693   3.590  24.412  0.00  0.00    +0.325 C 
BRANCH  22   3
ATOM      3  O   UNL     1      -1.536   3.825  25.459  0.00  0.00    -0.467 OA
ATOM     35  C   UNL     1      -2.032   5.163  25.560  0.00  0.00    +0.280 C 
ENDBRANCH  22   3
ENDBRANCH  15  22
BRANCH  13   6
ATOM      6  N   UNL     1      -2.293  -2.896  23.852  0.00  0.00    -0.313 NA
ATOM     39  H   UNL     1      -1.706  -3.704  24.060  0.00  0.00    +0.122 HD
BRANCH   6  23
ATOM     23  C   UNL     1      -3.322  -2.788  24.875  0.00  0.00    +0.083 C 
BRANCH  23  28
ATOM     28  C   UNL     1      -4.224  -1.587  24.594  0.00  0.00    +0.037 C 
BRANCH  28  33
ATOM     33  C   UNL     1      -4.065  -0.514  25.674  0.00  0.00    +0.124 C 
BRANCH  33   8
ATOM      8  N   UNL     1      -5.068   0.598  25.508  0.00  0.00    -0.337 N 
ATOM      9  N   UNL     1      -6.723   1.795  24.636  0.00  0.00    -0.244 NA
ATOM     36  C   UNL     1      -5.226   1.676  26.333  0.00  0.00    +0.106 A 
ATOM     37  C   UNL     1      -5.989   0.713  24.504  0.00  0.00    +0.199 A 
ATOM     38  C   UNL     1      -6.252   2.399  25.774  0.00  0.00    +0.130 A 
ENDBRANCH  33   8
ENDBRANCH  28  33
ENDBRANCH  23  28
ENDBRANCH   6  23
ENDBRANCH  13   6
TORSDOF 8
ENDMDL
