MODEL 1
REMARK VINA RESULT:      -3.0      0.000      0.000
REMARK  Name = 26742488
REMARK  9 active torsions:
REMARK  status: ('A' for Active; 'I' for Inactive)
REMARK    1  A    between atoms: N_3  and  C_14
REMARK    2  A    between atoms: N_6  and  C_29
REMARK    3  A    between atoms: N_6  and  C_33
REMARK    4  A    between atoms: N_6  and  C_34
REMARK    5  A    between atoms: C_8  and  C_15
REMARK    6  A    between atoms: C_9  and  C_14
REMARK    7  A    between atoms: C_17  and  C_20
REMARK    8  A    between atoms: C_18  and  C_21
REMARK    9  A    between atoms: C_19  and  C_22
REMARK                            x       y       z     vdW  Elec       q    Type
REMARK                         _______ _______ _______ _____ _____    ______ ____
ROOT
ATOM      2  N   UNL     1      14.068  -8.206  32.073  0.00  0.00    -0.297 NA
ATOM      7  C   UNL     1      13.195  -6.963  29.959  0.00  0.00    +0.002 C 
ATOM      8  C   UNL     1      14.034  -8.205  29.550  0.00  0.00    +0.055 C 
ATOM      9  C   UNL     1      14.374  -6.754  32.175  0.00  0.00    +0.074 C 
ATOM     10  C   UNL     1      14.051  -6.036  30.846  0.00  0.00    +0.024 C 
ATOM     11  C   UNL     1      12.031  -7.480  30.832  0.00  0.00    +0.019 C 
ATOM     12  C   UNL     1      14.684  -8.771  30.846  0.00  0.00    +0.094 C 
ATOM     13  C   UNL     1      12.598  -8.355  31.964  0.00  0.00    +0.085 C 
ENDROOT
BRANCH   8  15
ATOM      4  N   UNL     1      15.733  -9.157  28.071  0.00  0.00    -0.237 NA
ATOM      5  N   UNL     1      16.866  -7.839  26.400  0.00  0.00    -0.232 NA
ATOM     15  C   UNL     1      15.042  -8.052  28.419  0.00  0.00    +0.050 A 
ATOM     16  C   UNL     1      15.204  -6.822  27.814  0.00  0.00    +0.052 A 
ATOM     17  C   UNL     1      16.139  -6.775  26.801  0.00  0.00    +0.075 A 
ATOM     18  C   UNL     1      16.616  -8.982  27.069  0.00  0.00    +0.127 A 
ATOM     21  C   UNL     1      17.401 -10.180  26.656  0.00  0.00    +0.088 C 
BRANCH  17  20
ATOM     20  C   UNL     1      16.405  -5.548  26.088  0.00  0.00    +0.001 A 
ATOM     23  C   UNL     1      16.697  -4.382  26.794  0.00  0.00    +0.012 A 
ATOM     24  C   UNL     1      16.371  -5.530  24.694  0.00  0.00    +0.012 A 
ATOM     27  C   UNL     1      16.954  -3.195  26.106  0.00  0.00    +0.024 A 
ATOM     28  C   UNL     1      16.628  -4.344  24.005  0.00  0.00    +0.024 A 
ATOM     29  C   UNL     1      16.920  -3.178  24.711  0.00  0.00    +0.029 A 
BRANCH  29   6
ATOM      6  N   UNL     1      17.180  -1.979  24.014  0.00  0.00    -0.336 N 
ATOM     33  C   UNL     1      17.243  -1.971  22.566  0.00  0.00    +0.129 C 
ATOM     34  C   UNL     1      17.379  -0.738  24.737  0.00  0.00    +0.129 C 
ENDBRANCH  29   6
ENDBRANCH  17  20
ENDBRANCH   8  15
BRANCH   9  14
ATOM     14  C   UNL     1      15.811  -6.491  32.630  0.00  0.00    +0.123 C 
BRANCH  14   3
ATOM      1  O   UNL     1      14.555  -3.920  32.869  0.00  0.00    -0.270 OA
ATOM      3  N   UNL     1      16.294  -5.252  32.103  0.00  0.00    -0.310 N 
ATOM     19  C   UNL     1      15.617  -4.044  32.267  0.00  0.00    +0.244 C 
ATOM     35  H   UNL     1      17.137  -5.294  31.541  0.00  0.00    +0.149 HD
BRANCH  19  22
ATOM     22  C   UNL     1      16.238  -2.850  31.637  0.00  0.00    +0.037 A 
ATOM     25  C   UNL     1      16.312  -1.649  32.341  0.00  0.00    +0.013 A 
ATOM     26  C   UNL     1      16.747  -2.932  30.341  0.00  0.00    +0.013 A 
ATOM     30  C   UNL     1      16.895  -0.528  31.748  0.00  0.00    +0.001 A 
ATOM     31  C   UNL     1      17.330  -1.811  29.748  0.00  0.00    +0.001 A 
ATOM     32  C   UNL     1      17.404  -0.610  30.453  0.00  0.00    +0.000 A 
ENDBRANCH  19  22
ENDBRANCH  14   3
ENDBRANCH   9  14
TORSDOF 6
ENDMDL
