MODEL 1
REMARK VINA RESULT:      -5.6      0.000      0.000
REMARK  Name = 75536652
REMARK  8 active torsions:
REMARK  status: ('A' for Active; 'I' for Inactive)
REMARK    1  A    between atoms: S_1  and  N_7
REMARK    2  A    between atoms: S_1  and  C_15
REMARK    3  A    between atoms: O_3  and  C_9
REMARK    4  A    between atoms: N_6  and  C_8
REMARK    5  A    between atoms: N_6  and  C_13
REMARK    6  A    between atoms: N_6  and  C_14
REMARK    7  A    between atoms: N_7  and  C_12
REMARK    8  A    between atoms: C_10  and  C_12
REMARK                            x       y       z     vdW  Elec       q    Type
REMARK                         _______ _______ _______ _____ _____    ______ ____
ROOT
ATOM      2  O   UNL     1      -1.523   0.898  23.583  0.00  0.00    -0.371 OA
ATOM      8  C   UNL     1      -1.111   2.906  24.782  0.00  0.00    +0.113 C 
ATOM      9  C   UNL     1      -0.668   1.725  25.626  0.00  0.00    +0.164 C 
ATOM     10  C   UNL     1      -0.500   0.650  24.561  0.00  0.00    +0.164 C 
ATOM     11  C   UNL     1      -2.030   2.230  23.778  0.00  0.00    +0.181 C 
ENDROOT
BRANCH   8   6
ATOM      6  N   UNL     1      -1.775   3.951  25.544  0.00  0.00    -0.301 NA
ATOM     13  C   UNL     1      -1.383   5.277  25.060  0.00  0.00    +0.105 C 
ATOM     14  C   UNL     1      -3.232   3.799  25.476  0.00  0.00    +0.105 C 
ENDBRANCH   8   6
BRANCH   9   3
ATOM      3  O   UNL     1       0.540   1.973  26.319  0.00  0.00    -0.388 OA
ATOM     16  H   UNL     1       1.280   1.704  25.749  0.00  0.00    +0.210 HD
ENDBRANCH   9   3
BRANCH  10  12
ATOM     12  C   UNL     1      -0.641  -0.761  25.104  0.00  0.00    +0.139 C 
BRANCH  12   7
ATOM      7  N   UNL     1      -1.671  -1.487  24.336  0.00  0.00    -0.192 NA
ATOM     17  H   UNL     1      -1.287  -2.239  23.749  0.00  0.00    +0.148 HD
BRANCH   7   1
ATOM      1  S   UNL     1      -3.185  -1.794  25.061  0.00  0.00    +0.027 S 
ATOM      4  O   UNL     1      -3.282  -1.077  26.317  0.00  0.00    -0.158 OA
ATOM      5  O   UNL     1      -3.442  -3.220  24.999  0.00  0.00    -0.158 OA
ATOM     15  C   UNL     1      -4.272  -1.006  23.895  0.00  0.00    +0.214 C 
ENDBRANCH   7   1
ENDBRANCH  12   7
ENDBRANCH  10  12
TORSDOF 5
ENDMDL
MODEL 2
REMARK VINA RESULT:      -5.5      1.803      2.946
REMARK  Name = 75536652
REMARK  8 active torsions:
REMARK  status: ('A' for Active; 'I' for Inactive)
REMARK    1  A    between atoms: S_1  and  N_7
REMARK    2  A    between atoms: S_1  and  C_15
REMARK    3  A    between atoms: O_3  and  C_9
REMARK    4  A    between atoms: N_6  and  C_8
REMARK    5  A    between atoms: N_6  and  C_13
REMARK    6  A    between atoms: N_6  and  C_14
REMARK    7  A    between atoms: N_7  and  C_12
REMARK    8  A    between atoms: C_10  and  C_12
REMARK                            x       y       z     vdW  Elec       q    Type
REMARK                         _______ _______ _______ _____ _____    ______ ____
ROOT
ATOM      2  O   UNL     1      -4.565   2.852  25.647  0.00  0.00    -0.371 OA
ATOM      8  C   UNL     1      -2.586   3.506  24.510  0.00  0.00    +0.113 C 
ATOM      9  C   UNL     1      -2.896   2.060  24.172  0.00  0.00    +0.164 C 
ATOM     10  C   UNL     1      -4.379   1.990  24.512  0.00  0.00    +0.164 C 
ATOM     11  C   UNL     1      -3.414   3.705  25.768  0.00  0.00    +0.181 C 
ENDROOT
BRANCH   8   6
ATOM      6  N   UNL     1      -1.171   3.768  24.715  0.00  0.00    -0.301 NA
ATOM     13  C   UNL     1      -0.937   5.190  24.977  0.00  0.00    +0.105 C 
ATOM     14  C   UNL     1      -0.647   2.959  25.820  0.00  0.00    +0.105 C 
ENDBRANCH   8   6
BRANCH   9   3
ATOM      3  O   UNL     1      -2.653   1.753  22.812  0.00  0.00    -0.388 OA
ATOM     16  H   UNL     1      -2.795   2.558  22.287  0.00  0.00    +0.210 HD
ENDBRANCH   9   3
BRANCH  10  12
ATOM     12  C   UNL     1      -4.852   0.587  24.850  0.00  0.00    +0.139 C 
BRANCH  12   7
ATOM      7  N   UNL     1      -4.041  -0.400  24.110  0.00  0.00    -0.192 NA
ATOM     17  H   UNL     1      -3.482   0.017  23.354  0.00  0.00    +0.148 HD
BRANCH   7   1
ATOM      1  S   UNL     1      -3.315  -1.685  24.965  0.00  0.00    +0.027 S 
ATOM      4  O   UNL     1      -3.695  -2.950  24.367  0.00  0.00    -0.158 OA
ATOM      5  O   UNL     1      -3.496  -1.452  26.385  0.00  0.00    -0.158 OA
ATOM     15  C   UNL     1      -1.600  -1.397  24.594  0.00  0.00    +0.214 C 
ENDBRANCH   7   1
ENDBRANCH  12   7
ENDBRANCH  10  12
TORSDOF 5
ENDMDL
MODEL 3
REMARK VINA RESULT:      -5.3      2.286      3.055
REMARK  Name = 75536652
REMARK  8 active torsions:
REMARK  status: ('A' for Active; 'I' for Inactive)
REMARK    1  A    between atoms: S_1  and  N_7
REMARK    2  A    between atoms: S_1  and  C_15
REMARK    3  A    between atoms: O_3  and  C_9
REMARK    4  A    between atoms: N_6  and  C_8
REMARK    5  A    between atoms: N_6  and  C_13
REMARK    6  A    between atoms: N_6  and  C_14
REMARK    7  A    between atoms: N_7  and  C_12
REMARK    8  A    between atoms: C_10  and  C_12
REMARK                            x       y       z     vdW  Elec       q    Type
REMARK                         _______ _______ _______ _____ _____    ______ ____
ROOT
ATOM      2  O   UNL     1      -1.565   2.278  23.027  0.00  0.00    -0.371 OA
ATOM      8  C   UNL     1      -3.516   2.996  24.175  0.00  0.00    +0.113 C 
ATOM      9  C   UNL     1      -2.429   2.689  25.189  0.00  0.00    +0.164 C 
ATOM     10  C   UNL     1      -1.183   2.777  24.319  0.00  0.00    +0.164 C 
ATOM     11  C   UNL     1      -3.001   2.260  22.949  0.00  0.00    +0.181 C 
ENDROOT
BRANCH   8   6
ATOM      6  N   UNL     1      -4.839   2.557  24.585  0.00  0.00    -0.301 NA
ATOM     13  C   UNL     1      -4.788   1.205  25.148  0.00  0.00    +0.105 C 
ATOM     14  C   UNL     1      -5.418   3.487  25.559  0.00  0.00    +0.105 C 
ENDBRANCH   8   6
BRANCH   9   3
ATOM      3  O   UNL     1      -2.397   3.620  26.253  0.00  0.00    -0.388 OA
ATOM     16  H   UNL     1      -1.787   4.338  26.011  0.00  0.00    +0.210 HD
ENDBRANCH   9   3
BRANCH  10  12
ATOM     12  C   UNL     1      -0.016   1.967  24.857  0.00  0.00    +0.139 C 
BRANCH  12   7
ATOM      7  N   UNL     1      -0.527   0.812  25.621  0.00  0.00    -0.192 NA
ATOM     17  H   UNL     1      -1.245   1.066  26.312  0.00  0.00    +0.148 HD
BRANCH   7   1
ATOM      1  S   UNL     1      -0.743  -0.681  24.822  0.00  0.00    +0.027 S 
ATOM      4  O   UNL     1      -2.093  -0.769  24.302  0.00  0.00    -0.158 OA
ATOM      5  O   UNL     1      -0.201  -1.732  25.661  0.00  0.00    -0.158 OA
ATOM     15  C   UNL     1       0.362  -0.477  23.444  0.00  0.00    +0.214 C 
ENDBRANCH   7   1
ENDBRANCH  12   7
ENDBRANCH  10  12
TORSDOF 5
ENDMDL
MODEL 4
REMARK VINA RESULT:      -5.2      2.497      5.017
REMARK  Name = 75536652
REMARK  8 active torsions:
REMARK  status: ('A' for Active; 'I' for Inactive)
REMARK    1  A    between atoms: S_1  and  N_7
REMARK    2  A    between atoms: S_1  and  C_15
REMARK    3  A    between atoms: O_3  and  C_9
REMARK    4  A    between atoms: N_6  and  C_8
REMARK    5  A    between atoms: N_6  and  C_13
REMARK    6  A    between atoms: N_6  and  C_14
REMARK    7  A    between atoms: N_7  and  C_12
REMARK    8  A    between atoms: C_10  and  C_12
REMARK                            x       y       z     vdW  Elec       q    Type
REMARK                         _______ _______ _______ _____ _____    ______ ____
ROOT
ATOM      2  O   UNL     1       0.086  -0.086  24.401  0.00  0.00    -0.371 OA
ATOM      8  C   UNL     1      -2.038  -1.118  24.140  0.00  0.00    +0.113 C 
ATOM      9  C   UNL     1      -2.231   0.378  24.307  0.00  0.00    +0.164 C 
ATOM     10  C   UNL     1      -0.850   0.896  23.928  0.00  0.00    +0.164 C 
ATOM     11  C   UNL     1      -0.630  -1.302  24.683  0.00  0.00    +0.181 C 
ENDROOT
BRANCH   8   6
ATOM      6  N   UNL     1      -3.026  -1.917  24.846  0.00  0.00    -0.301 NA
ATOM     13  C   UNL     1      -3.530  -1.202  26.022  0.00  0.00    +0.105 C 
ATOM     14  C   UNL     1      -4.137  -2.275  23.959  0.00  0.00    +0.105 C 
ENDBRANCH   8   6
BRANCH   9   3
ATOM      3  O   UNL     1      -3.238   0.896  23.459  0.00  0.00    -0.388 OA
ATOM     16  H   UNL     1      -2.859   1.630  22.947  0.00  0.00    +0.210 HD
ENDBRANCH   9   3
BRANCH  10  12
ATOM     12  C   UNL     1      -0.528   2.248  24.540  0.00  0.00    +0.139 C 
BRANCH  12   7
ATOM      7  N   UNL     1      -1.516   2.565  25.589  0.00  0.00    -0.192 NA
ATOM     17  H   UNL     1      -1.169   2.392  26.541  0.00  0.00    +0.148 HD
BRANCH   7   1
ATOM      1  S   UNL     1      -2.531   3.922  25.390  0.00  0.00    +0.027 S 
ATOM      4  O   UNL     1      -3.169   4.247  26.651  0.00  0.00    -0.158 OA
ATOM      5  O   UNL     1      -3.319   3.733  24.187  0.00  0.00    -0.158 OA
ATOM     15  C   UNL     1      -1.327   5.183  25.045  0.00  0.00    +0.214 C 
ENDBRANCH   7   1
ENDBRANCH  12   7
ENDBRANCH  10  12
TORSDOF 5
ENDMDL
MODEL 5
REMARK VINA RESULT:      -4.9      2.712      4.369
REMARK  Name = 75536652
REMARK  8 active torsions:
REMARK  status: ('A' for Active; 'I' for Inactive)
REMARK    1  A    between atoms: S_1  and  N_7
REMARK    2  A    between atoms: S_1  and  C_15
REMARK    3  A    between atoms: O_3  and  C_9
REMARK    4  A    between atoms: N_6  and  C_8
REMARK    5  A    between atoms: N_6  and  C_13
REMARK    6  A    between atoms: N_6  and  C_14
REMARK    7  A    between atoms: N_7  and  C_12
REMARK    8  A    between atoms: C_10  and  C_12
REMARK                            x       y       z     vdW  Elec       q    Type
REMARK                         _______ _______ _______ _____ _____    ______ ____
ROOT
ATOM      2  O   UNL     1      -1.280   3.487  25.800  0.00  0.00    -0.371 OA
ATOM      8  C   UNL     1      -0.470   1.712  24.447  0.00  0.00    +0.113 C 
ATOM      9  C   UNL     1      -1.905   2.014  24.059  0.00  0.00    +0.164 C 
ATOM     10  C   UNL     1      -2.062   3.431  24.596  0.00  0.00    +0.164 C 
ATOM     11  C   UNL     1      -0.385   2.362  25.818  0.00  0.00    +0.181 C 
ENDROOT
BRANCH   8   6
ATOM      6  N   UNL     1      -0.158   0.292  24.472  0.00  0.00    -0.301 NA
ATOM     13  C   UNL     1      -1.372  -0.504  24.673  0.00  0.00    +0.105 C 
ATOM     14  C   UNL     1       0.514  -0.116  23.235  0.00  0.00    +0.105 C 
ENDBRANCH   8   6
BRANCH   9   3
ATOM      3  O   UNL     1      -2.118   1.953  22.662  0.00  0.00    -0.388 OA
ATOM     16  H   UNL     1      -2.185   1.018  22.404  0.00  0.00    +0.210 HD
ENDBRANCH   9   3
BRANCH  10  12
ATOM     12  C   UNL     1      -3.503   3.801  24.901  0.00  0.00    +0.139 C 
BRANCH  12   7
ATOM      7  N   UNL     1      -4.410   2.829  24.260  0.00  0.00    -0.192 NA
ATOM     17  H   UNL     1      -3.954   2.267  23.530  0.00  0.00    +0.148 HD
BRANCH   7   1
ATOM      1  S   UNL     1      -5.574   2.026  25.214  0.00  0.00    +0.027 S 
ATOM      4  O   UNL     1      -6.787   1.826  24.444  0.00  0.00    -0.158 OA
ATOM      5  O   UNL     1      -5.619   2.663  26.516  0.00  0.00    -0.158 OA
ATOM     15  C   UNL     1      -4.791   0.444  25.423  0.00  0.00    +0.214 C 
ENDBRANCH   7   1
ENDBRANCH  12   7
ENDBRANCH  10  12
TORSDOF 5
ENDMDL
MODEL 6
REMARK VINA RESULT:      -4.5     16.411     18.028
REMARK  Name = 75536652
REMARK  8 active torsions:
REMARK  status: ('A' for Active; 'I' for Inactive)
REMARK    1  A    between atoms: S_1  and  N_7
REMARK    2  A    between atoms: S_1  and  C_15
REMARK    3  A    between atoms: O_3  and  C_9
REMARK    4  A    between atoms: N_6  and  C_8
REMARK    5  A    between atoms: N_6  and  C_13
REMARK    6  A    between atoms: N_6  and  C_14
REMARK    7  A    between atoms: N_7  and  C_12
REMARK    8  A    between atoms: C_10  and  C_12
REMARK                            x       y       z     vdW  Elec       q    Type
REMARK                         _______ _______ _______ _____ _____    ______ ____
ROOT
ATOM      2  O   UNL     1      12.441   9.088  18.351  0.00  0.00    -0.371 OA
ATOM      8  C   UNL     1      11.539   8.492  20.466  0.00  0.00    +0.113 C 
ATOM      9  C   UNL     1      13.028   8.201  20.463  0.00  0.00    +0.164 C 
ATOM     10  C   UNL     1      13.500   9.094  19.323  0.00  0.00    +0.164 C 
ATOM     11  C   UNL     1      11.248   8.585  18.977  0.00  0.00    +0.181 C 
ENDROOT
BRANCH   8   6
ATOM      6  N   UNL     1      10.745   7.475  21.135  0.00  0.00    -0.301 NA
ATOM     13  C   UNL     1      11.481   6.210  21.216  0.00  0.00    +0.105 C 
ATOM     14  C   UNL     1      10.355   7.918  22.477  0.00  0.00    +0.105 C 
ENDBRANCH   8   6
BRANCH   9   3
ATOM      3  O   UNL     1      13.652   8.536  21.688  0.00  0.00    -0.388 OA
ATOM     16  H   UNL     1      12.960   8.646  22.362  0.00  0.00    +0.210 HD
ENDBRANCH   9   3
BRANCH  10  12
ATOM     12  C   UNL     1      14.789   8.615  18.680  0.00  0.00    +0.139 C 
BRANCH  12   7
ATOM      7  N   UNL     1      14.985   7.181  18.971  0.00  0.00    -0.192 NA
ATOM     17  H   UNL     1      14.782   6.571  18.169  0.00  0.00    +0.148 HD
BRANCH   7   1
ATOM      1  S   UNL     1      16.284   6.707  19.970  0.00  0.00    +0.027 S 
ATOM      4  O   UNL     1      17.277   6.001  19.183  0.00  0.00    -0.158 OA
ATOM      5  O   UNL     1      15.742   6.118  21.179  0.00  0.00    -0.158 OA
ATOM     15  C   UNL     1      16.958   8.293  20.406  0.00  0.00    +0.214 C 
ENDBRANCH   7   1
ENDBRANCH  12   7
ENDBRANCH  10  12
TORSDOF 5
ENDMDL
MODEL 7
REMARK VINA RESULT:      -4.4      2.760      4.878
REMARK  Name = 75536652
REMARK  8 active torsions:
REMARK  status: ('A' for Active; 'I' for Inactive)
REMARK    1  A    between atoms: S_1  and  N_7
REMARK    2  A    between atoms: S_1  and  C_15
REMARK    3  A    between atoms: O_3  and  C_9
REMARK    4  A    between atoms: N_6  and  C_8
REMARK    5  A    between atoms: N_6  and  C_13
REMARK    6  A    between atoms: N_6  and  C_14
REMARK    7  A    between atoms: N_7  and  C_12
REMARK    8  A    between atoms: C_10  and  C_12
REMARK                            x       y       z     vdW  Elec       q    Type
REMARK                         _______ _______ _______ _____ _____    ______ ____
ROOT
ATOM      2  O   UNL     1      -0.767   1.530  25.947  0.00  0.00    -0.371 OA
ATOM      8  C   UNL     1      -1.654  -0.074  24.438  0.00  0.00    +0.113 C 
ATOM      9  C   UNL     1      -2.424   1.225  24.288  0.00  0.00    +0.164 C 
ATOM     10  C   UNL     1      -1.435   2.221  24.878  0.00  0.00    +0.164 C 
ATOM     11  C   UNL     1      -0.999   0.119  25.795  0.00  0.00    +0.181 C 
ENDROOT
BRANCH   8   6
ATOM      6  N   UNL     1      -2.493  -1.260  24.378  0.00  0.00    -0.301 NA
ATOM     13  C   UNL     1      -1.687  -2.476  24.513  0.00  0.00    +0.105 C 
ATOM     14  C   UNL     1      -3.526  -1.221  25.417  0.00  0.00    +0.105 C 
ENDBRANCH   8   6
BRANCH   9   3
ATOM      3  O   UNL     1      -2.731   1.524  22.940  0.00  0.00    -0.388 OA
ATOM     16  H   UNL     1      -3.176   0.753  22.549  0.00  0.00    +0.210 HD
ENDBRANCH   9   3
BRANCH  10  12
ATOM     12  C   UNL     1      -2.097   3.478  25.415  0.00  0.00    +0.139 C 
BRANCH  12   7
ATOM      7  N   UNL     1      -3.422   3.140  25.972  0.00  0.00    -0.192 NA
ATOM     17  H   UNL     1      -3.487   3.289  26.987  0.00  0.00    +0.148 HD
BRANCH   7   1
ATOM      1  S   UNL     1      -4.821   3.502  25.064  0.00  0.00    +0.027 S 
ATOM      4  O   UNL     1      -4.452   3.814  23.697  0.00  0.00    -0.158 OA
ATOM      5  O   UNL     1      -5.644   4.413  25.836  0.00  0.00    -0.158 OA
ATOM     15  C   UNL     1      -5.631   1.920  25.066  0.00  0.00    +0.214 C 
ENDBRANCH   7   1
ENDBRANCH  12   7
ENDBRANCH  10  12
TORSDOF 5
ENDMDL
MODEL 8
REMARK VINA RESULT:      -4.1      2.929      5.451
REMARK  Name = 75536652
REMARK  8 active torsions:
REMARK  status: ('A' for Active; 'I' for Inactive)
REMARK    1  A    between atoms: S_1  and  N_7
REMARK    2  A    between atoms: S_1  and  C_15
REMARK    3  A    between atoms: O_3  and  C_9
REMARK    4  A    between atoms: N_6  and  C_8
REMARK    5  A    between atoms: N_6  and  C_13
REMARK    6  A    between atoms: N_6  and  C_14
REMARK    7  A    between atoms: N_7  and  C_12
REMARK    8  A    between atoms: C_10  and  C_12
REMARK                            x       y       z     vdW  Elec       q    Type
REMARK                         _______ _______ _______ _____ _____    ______ ____
ROOT
ATOM      2  O   UNL     1      -3.479   1.726  23.163  0.00  0.00    -0.371 OA
ATOM      8  C   UNL     1      -4.028  -0.092  24.589  0.00  0.00    +0.113 C 
ATOM      9  C   UNL     1      -4.474   1.202  25.243  0.00  0.00    +0.164 C 
ATOM     10  C   UNL     1      -4.545   2.131  24.038  0.00  0.00    +0.164 C 
ATOM     11  C   UNL     1      -3.032   0.418  23.561  0.00  0.00    +0.181 C 
ENDROOT
BRANCH   8   6
ATOM      6  N   UNL     1      -3.444  -1.045  25.519  0.00  0.00    -0.301 NA
ATOM     13  C   UNL     1      -3.515  -2.407  24.982  0.00  0.00    +0.105 C 
ATOM     14  C   UNL     1      -2.053  -0.694  25.820  0.00  0.00    +0.105 C 
ENDBRANCH   8   6
BRANCH   9   3
ATOM      3  O   UNL     1      -5.726   1.084  25.891  0.00  0.00    -0.388 OA
ATOM     16  H   UNL     1      -6.183   1.940  25.830  0.00  0.00    +0.210 HD
ENDBRANCH   9   3
BRANCH  10  12
ATOM     12  C   UNL     1      -4.383   3.597  24.400  0.00  0.00    +0.139 C 
BRANCH  12   7
ATOM      7  N   UNL     1      -3.027   4.050  24.032  0.00  0.00    -0.192 NA
ATOM     17  H   UNL     1      -3.024   4.792  23.321  0.00  0.00    +0.148 HD
BRANCH   7   1
ATOM      1  S   UNL     1      -1.833   4.163  25.246  0.00  0.00    +0.027 S 
ATOM      4  O   UNL     1      -1.158   5.443  25.152  0.00  0.00    -0.158 OA
ATOM      5  O   UNL     1      -1.077   2.926  25.263  0.00  0.00    -0.158 OA
ATOM     15  C   UNL     1      -2.849   4.186  26.704  0.00  0.00    +0.214 C 
ENDBRANCH   7   1
ENDBRANCH  12   7
ENDBRANCH  10  12
TORSDOF 5
ENDMDL
MODEL 9
REMARK VINA RESULT:      -4.1      2.654      4.499
REMARK  Name = 75536652
REMARK  8 active torsions:
REMARK  status: ('A' for Active; 'I' for Inactive)
REMARK    1  A    between atoms: S_1  and  N_7
REMARK    2  A    between atoms: S_1  and  C_15
REMARK    3  A    between atoms: O_3  and  C_9
REMARK    4  A    between atoms: N_6  and  C_8
REMARK    5  A    between atoms: N_6  and  C_13
REMARK    6  A    between atoms: N_6  and  C_14
REMARK    7  A    between atoms: N_7  and  C_12
REMARK    8  A    between atoms: C_10  and  C_12
REMARK                            x       y       z     vdW  Elec       q    Type
REMARK                         _______ _______ _______ _____ _____    ______ ____
ROOT
ATOM      2  O   UNL     1      -0.948   2.612  26.443  0.00  0.00    -0.371 OA
ATOM      8  C   UNL     1       0.074   1.567  24.571  0.00  0.00    +0.113 C 
ATOM      9  C   UNL     1      -0.658   2.811  24.104  0.00  0.00    +0.164 C 
ATOM     10  C   UNL     1      -0.769   3.592  25.407  0.00  0.00    +0.164 C 
ATOM     11  C   UNL     1      -0.577   1.323  25.922  0.00  0.00    +0.181 C 
ENDROOT
BRANCH   8   6
ATOM      6  N   UNL     1      -0.060   0.437  23.666  0.00  0.00    -0.301 NA
ATOM     13  C   UNL     1       1.216   0.144  23.006  0.00  0.00    +0.105 C 
ATOM     14  C   UNL     1      -0.541  -0.749  24.381  0.00  0.00    +0.105 C 
ENDBRANCH   8   6
BRANCH   9   3
ATOM      3  O   UNL     1       0.059   3.529  23.119  0.00  0.00    -0.388 OA
ATOM     16  H   UNL     1       0.696   2.923  22.703  0.00  0.00    +0.210 HD
ENDBRANCH   9   3
BRANCH  10  12
ATOM     12  C   UNL     1      -1.928   4.572  25.423  0.00  0.00    +0.139 C 
BRANCH  12   7
ATOM      7  N   UNL     1      -3.054   3.995  26.183  0.00  0.00    -0.192 NA
ATOM     17  H   UNL     1      -3.330   4.561  26.995  0.00  0.00    +0.148 HD
BRANCH   7   1
ATOM      1  S   UNL     1      -4.319   3.225  25.335  0.00  0.00    +0.027 S 
ATOM      4  O   UNL     1      -5.598   3.702  25.822  0.00  0.00    -0.158 OA
ATOM      5  O   UNL     1      -4.032   1.805  25.275  0.00  0.00    -0.158 OA
ATOM     15  C   UNL     1      -4.072   3.888  23.705  0.00  0.00    +0.214 C 
ENDBRANCH   7   1
ENDBRANCH  12   7
ENDBRANCH  10  12
TORSDOF 5
ENDMDL
MODEL 10
REMARK VINA RESULT:      -4.0      1.449      2.092
REMARK  Name = 75536652
REMARK  8 active torsions:
REMARK  status: ('A' for Active; 'I' for Inactive)
REMARK    1  A    between atoms: S_1  and  N_7
REMARK    2  A    between atoms: S_1  and  C_15
REMARK    3  A    between atoms: O_3  and  C_9
REMARK    4  A    between atoms: N_6  and  C_8
REMARK    5  A    between atoms: N_6  and  C_13
REMARK    6  A    between atoms: N_6  and  C_14
REMARK    7  A    between atoms: N_7  and  C_12
REMARK    8  A    between atoms: C_10  and  C_12
REMARK                            x       y       z     vdW  Elec       q    Type
REMARK                         _______ _______ _______ _____ _____    ______ ____
ROOT
ATOM      2  O   UNL     1      -0.112   1.498  25.577  0.00  0.00    -0.371 OA
ATOM      8  C   UNL     1      -1.880   3.055  25.873  0.00  0.00    +0.113 C 
ATOM      9  C   UNL     1      -2.318   1.991  24.884  0.00  0.00    +0.164 C 
ATOM     10  C   UNL     1      -1.350   0.864  25.219  0.00  0.00    +0.164 C 
ATOM     11  C   UNL     1      -0.370   2.887  25.847  0.00  0.00    +0.181 C 
ENDROOT
BRANCH   8   6
ATOM      6  N   UNL     1      -2.307   4.398  25.513  0.00  0.00    -0.301 NA
ATOM     13  C   UNL     1      -1.183   5.178  24.988  0.00  0.00    +0.105 C 
ATOM     14  C   UNL     1      -3.393   4.353  24.530  0.00  0.00    +0.105 C 
ENDBRANCH   8   6
BRANCH   9   3
ATOM      3  O   UNL     1      -3.665   1.600  25.064  0.00  0.00    -0.388 OA
ATOM     16  H   UNL     1      -3.860   0.879  24.441  0.00  0.00    +0.210 HD
ENDBRANCH   9   3
BRANCH  10  12
ATOM     12  C   UNL     1      -1.121  -0.093  24.062  0.00  0.00    +0.139 C 
BRANCH  12   7
ATOM      7  N   UNL     1      -1.519  -1.457  24.462  0.00  0.00    -0.192 NA
ATOM     17  H   UNL     1      -0.932  -1.850  25.208  0.00  0.00    +0.148 HD
BRANCH   7   1
ATOM      1  S   UNL     1      -3.178  -1.853  24.518  0.00  0.00    +0.027 S 
ATOM      4  O   UNL     1      -3.349  -3.280  24.323  0.00  0.00    -0.158 OA
ATOM      5  O   UNL     1      -3.905  -0.901  23.701  0.00  0.00    -0.158 OA
ATOM     15  C   UNL     1      -3.545  -1.485  26.218  0.00  0.00    +0.214 C 
ENDBRANCH   7   1
ENDBRANCH  12   7
ENDBRANCH  10  12
TORSDOF 5
ENDMDL
