MODEL 1
REMARK VINA RESULT:      -6.6      0.000      0.000
REMARK  Name = 11886009
REMARK  5 active torsions:
REMARK  status: ('A' for Active; 'I' for Inactive)
REMARK    1  A    between atoms: S_1  and  C_16
REMARK    2  A    between atoms: S_1  and  C_17
REMARK    3  A    between atoms: O_4  and  C_13
REMARK    4  A    between atoms: N_6  and  C_12
REMARK    5  A    between atoms: C_17  and  C_18
REMARK                            x       y       z     vdW  Elec       q    Type
REMARK                         _______ _______ _______ _____ _____    ______ ____
ROOT
ATOM      6  N   UNL     1      -2.187   3.382  25.048  0.00  0.00    -0.212 N 
ATOM      7  N   UNL     1      -2.100   4.451  25.848  0.00  0.00    -0.043 NA
ATOM      8  N   UNL     1      -4.231   4.021  25.355  0.00  0.00    -0.101 NA
ATOM      9  N   UNL     1      -3.355   4.838  26.033  0.00  0.00    -0.022 NA
ATOM     16  C   UNL     1      -3.485   3.125  24.751  0.00  0.00    +0.210 A 
ENDROOT
BRANCH   6  12
ATOM      2  O   UNL     1      -0.199   0.996  26.136  0.00  0.00    -0.369 OA
ATOM      3  O   UNL     1      -0.275   0.985  23.046  0.00  0.00    -0.369 OA
ATOM     10  C   UNL     1      -1.272   1.312  24.039  0.00  0.00    +0.176 C 
ATOM     11  C   UNL     1      -1.070   0.350  25.194  0.00  0.00    +0.180 C 
ATOM     12  C   UNL     1      -0.975   2.679  24.625  0.00  0.00    +0.168 C 
ATOM     13  C   UNL     1      -0.400  -0.829  24.532  0.00  0.00    +0.171 C 
ATOM     14  C   UNL     1       0.017   2.358  25.738  0.00  0.00    +0.190 C 
ATOM     15  C   UNL     1       0.467  -0.159  23.493  0.00  0.00    +0.194 C 
BRANCH  13   4
ATOM      4  O   UNL     1       0.355  -1.621  25.422  0.00  0.00    -0.387 OA
ATOM     22  H   UNL     1       0.501  -1.098  26.228  0.00  0.00    +0.210 HD
ENDBRANCH  13   4
ENDBRANCH   6  12
BRANCH  16   1
ATOM      1  S   UNL     1      -4.005   1.831  23.746  0.00  0.00    -0.077 S 
BRANCH   1  17
ATOM     17  C   UNL     1      -4.784   0.721  24.956  0.00  0.00    +0.151 C 
BRANCH  17  18
ATOM      5  O   UNL     1      -3.751  -1.217  25.930  0.00  0.00    -0.467 OA
ATOM     18  C   UNL     1      -4.274  -0.684  24.811  0.00  0.00    +0.115 A 
ATOM     19  C   UNL     1      -4.236  -1.533  23.758  0.00  0.00    +0.045 A 
ATOM     20  C   UNL     1      -3.634  -2.714  24.256  0.00  0.00    +0.041 A 
ATOM     21  C   UNL     1      -3.358  -2.471  25.581  0.00  0.00    +0.195 A 
ENDBRANCH  17  18
ENDBRANCH   1  17
ENDBRANCH  16   1
TORSDOF 5
ENDMDL
MODEL 2
REMARK VINA RESULT:      -6.5      1.975      4.126
REMARK  Name = 11886009
REMARK  5 active torsions:
REMARK  status: ('A' for Active; 'I' for Inactive)
REMARK    1  A    between atoms: S_1  and  C_16
REMARK    2  A    between atoms: S_1  and  C_17
REMARK    3  A    between atoms: O_4  and  C_13
REMARK    4  A    between atoms: N_6  and  C_12
REMARK    5  A    between atoms: C_17  and  C_18
REMARK                            x       y       z     vdW  Elec       q    Type
REMARK                         _______ _______ _______ _____ _____    ______ ____
ROOT
ATOM      6  N   UNL     1      -5.027   1.381  25.181  0.00  0.00    -0.212 N 
ATOM      7  N   UNL     1      -5.894   1.171  26.178  0.00  0.00    -0.043 NA
ATOM      8  N   UNL     1      -5.629   3.356  25.826  0.00  0.00    -0.101 NA
ATOM      9  N   UNL     1      -6.260   2.384  26.570  0.00  0.00    -0.022 NA
ATOM     16  C   UNL     1      -4.869   2.710  24.971  0.00  0.00    +0.210 A 
ENDROOT
BRANCH   6  12
ATOM      2  O   UNL     1      -2.064   0.476  24.071  0.00  0.00    -0.369 OA
ATOM      3  O   UNL     1      -3.671  -2.013  24.951  0.00  0.00    -0.369 OA
ATOM     10  C   UNL     1      -3.639  -0.656  25.444  0.00  0.00    +0.176 C 
ATOM     11  C   UNL     1      -2.201  -0.186  25.339  0.00  0.00    +0.180 C 
ATOM     12  C   UNL     1      -4.405   0.246  24.496  0.00  0.00    +0.168 C 
ATOM     13  C   UNL     1      -1.424  -1.479  25.380  0.00  0.00    +0.171 C 
ATOM     14  C   UNL     1      -3.353   0.609  23.454  0.00  0.00    +0.190 C 
ATOM     15  C   UNL     1      -2.334  -2.420  24.625  0.00  0.00    +0.194 C 
BRANCH  13   4
ATOM      4  O   UNL     1      -0.147  -1.389  24.790  0.00  0.00    -0.387 OA
ATOM     22  H   UNL     1       0.184  -0.488  24.943  0.00  0.00    +0.210 HD
ENDBRANCH  13   4
ENDBRANCH   6  12
BRANCH  16   1
ATOM      1  S   UNL     1      -3.834   3.381  23.775  0.00  0.00    -0.077 S 
BRANCH   1  17
ATOM     17  C   UNL     1      -2.680   4.349  24.791  0.00  0.00    +0.151 C 
BRANCH  17  18
ATOM      5  O   UNL     1      -0.659   3.257  24.087  0.00  0.00    -0.467 OA
ATOM     18  C   UNL     1      -1.454   3.551  25.132  0.00  0.00    +0.115 A 
ATOM     19  C   UNL     1      -0.984   3.061  26.303  0.00  0.00    +0.045 A 
ATOM     20  C   UNL     1       0.219   2.396  25.969  0.00  0.00    +0.041 A 
ATOM     21  C   UNL     1       0.373   2.544  24.611  0.00  0.00    +0.195 A 
ENDBRANCH  17  18
ENDBRANCH   1  17
ENDBRANCH  16   1
TORSDOF 5
ENDMDL
MODEL 3
REMARK VINA RESULT:      -6.4      3.518      6.246
REMARK  Name = 11886009
REMARK  5 active torsions:
REMARK  status: ('A' for Active; 'I' for Inactive)
REMARK    1  A    between atoms: S_1  and  C_16
REMARK    2  A    between atoms: S_1  and  C_17
REMARK    3  A    between atoms: O_4  and  C_13
REMARK    4  A    between atoms: N_6  and  C_12
REMARK    5  A    between atoms: C_17  and  C_18
REMARK                            x       y       z     vdW  Elec       q    Type
REMARK                         _______ _______ _______ _____ _____    ______ ____
ROOT
ATOM      6  N   UNL     1      -1.639   0.183  24.260  0.00  0.00    -0.212 N 
ATOM      7  N   UNL     1      -2.308  -0.870  24.743  0.00  0.00    -0.043 NA
ATOM      8  N   UNL     1      -0.118  -1.286  24.717  0.00  0.00    -0.101 NA
ATOM      9  N   UNL     1      -1.372  -1.767  25.021  0.00  0.00    -0.022 NA
ATOM     16  C   UNL     1      -0.309  -0.075  24.246  0.00  0.00    +0.210 A 
ENDROOT
BRANCH   6  12
ATOM      2  O   UNL     1      -4.694   1.402  24.371  0.00  0.00    -0.369 OA
ATOM      3  O   UNL     1      -2.631   3.701  24.483  0.00  0.00    -0.369 OA
ATOM     10  C   UNL     1      -2.602   2.348  24.987  0.00  0.00    +0.176 C 
ATOM     11  C   UNL     1      -4.006   2.029  25.465  0.00  0.00    +0.180 C 
ATOM     12  C   UNL     1      -2.363   1.385  23.840  0.00  0.00    +0.168 C 
ATOM     13  C   UNL     1      -4.571   3.395  25.771  0.00  0.00    +0.171 C 
ATOM     14  C   UNL     1      -3.770   1.146  23.303  0.00  0.00    +0.190 C 
ATOM     15  C   UNL     1      -3.940   4.247  24.695  0.00  0.00    +0.194 C 
BRANCH  13   4
ATOM      4  O   UNL     1      -5.980   3.445  25.729  0.00  0.00    -0.387 OA
ATOM     22  H   UNL     1      -6.271   2.887  24.988  0.00  0.00    +0.210 HD
ENDBRANCH  13   4
ENDBRANCH   6  12
BRANCH  16   1
ATOM      1  S   UNL     1       0.882   1.035  23.693  0.00  0.00    -0.077 S 
BRANCH   1  17
ATOM     17  C   UNL     1       1.858  -0.009  22.569  0.00  0.00    +0.151 C 
BRANCH  17  18
ATOM      5  O   UNL     1       3.667  -1.206  23.603  0.00  0.00    -0.467 OA
ATOM     18  C   UNL     1       3.297  -0.065  22.994  0.00  0.00    +0.115 A 
ATOM     19  C   UNL     1       4.314   0.822  22.882  0.00  0.00    +0.045 A 
ATOM     20  C   UNL     1       5.429   0.183  23.474  0.00  0.00    +0.041 A 
ATOM     21  C   UNL     1       4.984  -1.047  23.897  0.00  0.00    +0.195 A 
ENDBRANCH  17  18
ENDBRANCH   1  17
ENDBRANCH  16   1
TORSDOF 5
ENDMDL
MODEL 4
REMARK VINA RESULT:      -6.1      3.171      5.725
REMARK  Name = 11886009
REMARK  5 active torsions:
REMARK  status: ('A' for Active; 'I' for Inactive)
REMARK    1  A    between atoms: S_1  and  C_16
REMARK    2  A    between atoms: S_1  and  C_17
REMARK    3  A    between atoms: O_4  and  C_13
REMARK    4  A    between atoms: N_6  and  C_12
REMARK    5  A    between atoms: C_17  and  C_18
REMARK                            x       y       z     vdW  Elec       q    Type
REMARK                         _______ _______ _______ _____ _____    ______ ____
ROOT
ATOM      6  N   UNL     1      -1.904  -0.706  24.339  0.00  0.00    -0.212 N 
ATOM      7  N   UNL     1      -2.138  -1.933  24.819  0.00  0.00    -0.043 NA
ATOM      8  N   UNL     1       0.022  -1.420  25.017  0.00  0.00    -0.101 NA
ATOM      9  N   UNL     1      -0.954  -2.366  25.233  0.00  0.00    -0.022 NA
ATOM     16  C   UNL     1      -0.589  -0.400  24.462  0.00  0.00    +0.210 A 
ENDROOT
BRANCH   6  12
ATOM      2  O   UNL     1      -5.082  -0.107  24.948  0.00  0.00    -0.369 OA
ATOM      3  O   UNL     1      -3.755   2.386  23.690  0.00  0.00    -0.369 OA
ATOM     10  C   UNL     1      -3.250   1.361  24.574  0.00  0.00    +0.176 C 
ATOM     11  C   UNL     1      -4.379   1.007  25.523  0.00  0.00    +0.180 C 
ATOM     12  C   UNL     1      -3.001   0.089  23.786  0.00  0.00    +0.168 C 
ATOM     13  C   UNL     1      -5.221   2.259  25.521  0.00  0.00    +0.171 C 
ATOM     14  C   UNL     1      -4.369  -0.586  23.798  0.00  0.00    +0.190 C 
ATOM     15  C   UNL     1      -5.090   2.727  24.091  0.00  0.00    +0.194 C 
BRANCH  13   4
ATOM      4  O   UNL     1      -6.565   2.036  25.885  0.00  0.00    -0.387 OA
ATOM     22  H   UNL     1      -6.767   2.622  26.634  0.00  0.00    +0.210 HD
ENDBRANCH  13   4
ENDBRANCH   6  12
BRANCH  16   1
ATOM      1  S   UNL     1       0.104   1.090  23.957  0.00  0.00    -0.077 S 
BRANCH   1  17
ATOM     17  C   UNL     1       0.163   2.013  25.521  0.00  0.00    +0.151 C 
BRANCH  17  18
ATOM      5  O   UNL     1      -1.729   3.324  26.212  0.00  0.00    -0.467 OA
ATOM     18  C   UNL     1      -0.632   3.284  25.433  0.00  0.00    +0.115 A 
ATOM     19  C   UNL     1      -0.461   4.416  24.711  0.00  0.00    +0.045 A 
ATOM     20  C   UNL     1      -1.548   5.250  25.066  0.00  0.00    +0.041 A 
ATOM     21  C   UNL     1      -2.289   4.540  25.982  0.00  0.00    +0.195 A 
ENDBRANCH  17  18
ENDBRANCH   1  17
ENDBRANCH  16   1
TORSDOF 5
ENDMDL
MODEL 5
REMARK VINA RESULT:      -6.0      2.965      4.583
REMARK  Name = 11886009
REMARK  5 active torsions:
REMARK  status: ('A' for Active; 'I' for Inactive)
REMARK    1  A    between atoms: S_1  and  C_16
REMARK    2  A    between atoms: S_1  and  C_17
REMARK    3  A    between atoms: O_4  and  C_13
REMARK    4  A    between atoms: N_6  and  C_12
REMARK    5  A    between atoms: C_17  and  C_18
REMARK                            x       y       z     vdW  Elec       q    Type
REMARK                         _______ _______ _______ _____ _____    ______ ____
ROOT
ATOM      6  N   UNL     1      -2.893  -1.254  24.778  0.00  0.00    -0.212 N 
ATOM      7  N   UNL     1      -2.730  -2.428  24.158  0.00  0.00    -0.043 NA
ATOM      8  N   UNL     1      -4.844  -1.745  23.984  0.00  0.00    -0.101 NA
ATOM      9  N   UNL     1      -3.929  -2.725  23.674  0.00  0.00    -0.022 NA
ATOM     16  C   UNL     1      -4.180  -0.843  24.669  0.00  0.00    +0.210 A 
ENDROOT
BRANCH   6  12
ATOM      2  O   UNL     1       0.303  -0.688  24.235  0.00  0.00    -0.369 OA
ATOM      3  O   UNL     1      -0.909   1.606  25.916  0.00  0.00    -0.369 OA
ATOM     10  C   UNL     1      -1.463   0.768  24.878  0.00  0.00    +0.176 C 
ATOM     11  C   UNL     1      -0.357   0.535  23.867  0.00  0.00    +0.180 C 
ATOM     12  C   UNL     1      -1.759  -0.609  25.442  0.00  0.00    +0.168 C 
ATOM     13  C   UNL     1       0.538   1.734  24.070  0.00  0.00    +0.171 C 
ATOM     14  C   UNL     1      -0.422  -1.326  25.297  0.00  0.00    +0.190 C 
ATOM     15  C   UNL     1       0.436   1.957  25.560  0.00  0.00    +0.194 C 
BRANCH  13   4
ATOM      4  O   UNL     1       1.868   1.522  23.654  0.00  0.00    -0.387 OA
ATOM     22  H   UNL     1       1.839   1.154  22.755  0.00  0.00    +0.210 HD
ENDBRANCH  13   4
ENDBRANCH   6  12
BRANCH  16   1
ATOM      1  S   UNL     1      -4.784   0.621  25.337  0.00  0.00    -0.077 S 
BRANCH   1  17
ATOM     17  C   UNL     1      -4.348   1.820  24.042  0.00  0.00    +0.151 C 
BRANCH  17  18
ATOM      5  O   UNL     1      -3.855   3.247  25.911  0.00  0.00    -0.467 OA
ATOM     18  C   UNL     1      -3.604   2.992  24.614  0.00  0.00    +0.115 A 
ATOM     19  C   UNL     1      -2.716   3.858  24.072  0.00  0.00    +0.045 A 
ATOM     20  C   UNL     1      -2.372   4.742  25.122  0.00  0.00    +0.041 A 
ATOM     21  C   UNL     1      -3.091   4.328  26.219  0.00  0.00    +0.195 A 
ENDBRANCH  17  18
ENDBRANCH   1  17
ENDBRANCH  16   1
TORSDOF 5
ENDMDL
MODEL 6
REMARK VINA RESULT:      -6.0      2.083      3.664
REMARK  Name = 11886009
REMARK  5 active torsions:
REMARK  status: ('A' for Active; 'I' for Inactive)
REMARK    1  A    between atoms: S_1  and  C_16
REMARK    2  A    between atoms: S_1  and  C_17
REMARK    3  A    between atoms: O_4  and  C_13
REMARK    4  A    between atoms: N_6  and  C_12
REMARK    5  A    between atoms: C_17  and  C_18
REMARK                            x       y       z     vdW  Elec       q    Type
REMARK                         _______ _______ _______ _____ _____    ______ ____
ROOT
ATOM      6  N   UNL     1      -0.931   1.808  24.839  0.00  0.00    -0.212 N 
ATOM      7  N   UNL     1       0.165   1.558  25.566  0.00  0.00    -0.043 NA
ATOM      8  N   UNL     1      -0.428   3.699  25.763  0.00  0.00    -0.101 NA
ATOM      9  N   UNL     1       0.469   2.720  26.130  0.00  0.00    -0.022 NA
ATOM     16  C   UNL     1      -1.287   3.110  24.962  0.00  0.00    +0.210 A 
ENDROOT
BRANCH   6  12
ATOM      2  O   UNL     1      -1.257  -1.465  24.947  0.00  0.00    -0.369 OA
ATOM      3  O   UNL     1      -3.751  -0.194  23.634  0.00  0.00    -0.369 OA
ATOM     10  C   UNL     1      -2.864   0.266  24.678  0.00  0.00    +0.176 C 
ATOM     11  C   UNL     1      -2.483  -0.953  25.496  0.00  0.00    +0.180 C 
ATOM     12  C   UNL     1      -1.559   0.737  24.064  0.00  0.00    +0.168 C 
ATOM     13  C   UNL     1      -3.638  -1.892  25.252  0.00  0.00    +0.171 C 
ATOM     14  C   UNL     1      -0.753  -0.554  23.959  0.00  0.00    +0.190 C 
ATOM     15  C   UNL     1      -3.990  -1.597  23.813  0.00  0.00    +0.194 C 
BRANCH  13   4
ATOM      4  O   UNL     1      -3.314  -3.250  25.452  0.00  0.00    -0.387 OA
ATOM     22  H   UNL     1      -2.597  -3.286  26.107  0.00  0.00    +0.210 HD
ENDBRANCH  13   4
ENDBRANCH   6  12
BRANCH  16   1
ATOM      1  S   UNL     1      -2.643   3.816  24.177  0.00  0.00    -0.077 S 
BRANCH   1  17
ATOM     17  C   UNL     1      -3.786   4.055  25.569  0.00  0.00    +0.151 C 
BRANCH  17  18
ATOM      5  O   UNL     1      -5.545   2.864  26.693  0.00  0.00    -0.467 OA
ATOM     18  C   UNL     1      -4.915   3.067  25.521  0.00  0.00    +0.115 A 
ATOM     19  C   UNL     1      -5.433   2.326  24.513  0.00  0.00    +0.045 A 
ATOM     20  C   UNL     1      -6.488   1.588  25.100  0.00  0.00    +0.041 A 
ATOM     21  C   UNL     1      -6.515   1.951  26.427  0.00  0.00    +0.195 A 
ENDBRANCH  17  18
ENDBRANCH   1  17
ENDBRANCH  16   1
TORSDOF 5
ENDMDL
MODEL 7
REMARK VINA RESULT:      -6.0      2.407      4.207
REMARK  Name = 11886009
REMARK  5 active torsions:
REMARK  status: ('A' for Active; 'I' for Inactive)
REMARK    1  A    between atoms: S_1  and  C_16
REMARK    2  A    between atoms: S_1  and  C_17
REMARK    3  A    between atoms: O_4  and  C_13
REMARK    4  A    between atoms: N_6  and  C_12
REMARK    5  A    between atoms: C_17  and  C_18
REMARK                            x       y       z     vdW  Elec       q    Type
REMARK                         _______ _______ _______ _____ _____    ______ ____
ROOT
ATOM      6  N   UNL     1      -1.196   2.892  25.068  0.00  0.00    -0.212 N 
ATOM      7  N   UNL     1      -0.616   3.497  26.111  0.00  0.00    -0.043 NA
ATOM      8  N   UNL     1       0.659   1.823  25.376  0.00  0.00    -0.101 NA
ATOM      9  N   UNL     1       0.520   2.838  26.296  0.00  0.00    -0.022 NA
ATOM     16  C   UNL     1      -0.417   1.876  24.625  0.00  0.00    +0.210 A 
ENDROOT
BRANCH   6  12
ATOM      2  O   UNL     1      -4.123   1.649  24.221  0.00  0.00    -0.369 OA
ATOM      3  O   UNL     1      -4.473   4.499  25.365  0.00  0.00    -0.369 OA
ATOM     10  C   UNL     1      -3.537   3.442  25.667  0.00  0.00    +0.176 C 
ATOM     11  C   UNL     1      -4.302   2.137  25.560  0.00  0.00    +0.180 C 
ATOM     12  C   UNL     1      -2.491   3.361  24.572  0.00  0.00    +0.168 C 
ATOM     13  C   UNL     1      -5.728   2.565  25.812  0.00  0.00    +0.171 C 
ATOM     14  C   UNL     1      -3.159   2.463  23.536  0.00  0.00    +0.190 C 
ATOM     15  C   UNL     1      -5.771   3.925  25.156  0.00  0.00    +0.194 C 
BRANCH  13   4
ATOM      4  O   UNL     1      -6.686   1.683  25.271  0.00  0.00    -0.387 OA
ATOM     22  H   UNL     1      -7.565   2.048  25.469  0.00  0.00    +0.210 HD
ENDBRANCH  13   4
ENDBRANCH   6  12
BRANCH  16   1
ATOM      1  S   UNL     1      -0.821   0.859  23.300  0.00  0.00    -0.077 S 
BRANCH   1  17
ATOM     17  C   UNL     1      -0.481  -0.789  23.987  0.00  0.00    +0.151 C 
BRANCH  17  18
ATOM      5  O   UNL     1      -2.291  -0.699  25.566  0.00  0.00    -0.467 OA
ATOM     18  C   UNL     1      -1.722  -1.402  24.569  0.00  0.00    +0.115 A 
ATOM     19  C   UNL     1      -2.392  -2.543  24.284  0.00  0.00    +0.045 A 
ATOM     20  C   UNL     1      -3.486  -2.564  25.181  0.00  0.00    +0.041 A 
ATOM     21  C   UNL     1      -3.380  -1.421  25.939  0.00  0.00    +0.195 A 
ENDBRANCH  17  18
ENDBRANCH   1  17
ENDBRANCH  16   1
TORSDOF 5
ENDMDL
MODEL 8
REMARK VINA RESULT:      -5.7      2.960      4.898
REMARK  Name = 11886009
REMARK  5 active torsions:
REMARK  status: ('A' for Active; 'I' for Inactive)
REMARK    1  A    between atoms: S_1  and  C_16
REMARK    2  A    between atoms: S_1  and  C_17
REMARK    3  A    between atoms: O_4  and  C_13
REMARK    4  A    between atoms: N_6  and  C_12
REMARK    5  A    between atoms: C_17  and  C_18
REMARK                            x       y       z     vdW  Elec       q    Type
REMARK                         _______ _______ _______ _____ _____    ______ ____
ROOT
ATOM      6  N   UNL     1      -0.109   0.301  24.531  0.00  0.00    -0.212 N 
ATOM      7  N   UNL     1       0.500  -0.220  23.460  0.00  0.00    -0.043 NA
ATOM      8  N   UNL     1       1.264   1.834  23.866  0.00  0.00    -0.101 NA
ATOM      9  N   UNL     1       1.340   0.724  23.056  0.00  0.00    -0.022 NA
ATOM     16  C   UNL     1       0.358   1.550  24.773  0.00  0.00    +0.210 A 
ENDROOT
BRANCH   6  12
ATOM      2  O   UNL     1      -3.370  -0.144  24.507  0.00  0.00    -0.369 OA
ATOM      3  O   UNL     1      -1.952  -2.740  25.405  0.00  0.00    -0.369 OA
ATOM     10  C   UNL     1      -1.572  -1.699  24.479  0.00  0.00    +0.176 C 
ATOM     11  C   UNL     1      -2.839  -1.259  23.772  0.00  0.00    +0.180 C 
ATOM     12  C   UNL     1      -1.122  -0.474  25.251  0.00  0.00    +0.168 C 
ATOM     13  C   UNL     1      -3.725  -2.475  23.887  0.00  0.00    +0.171 C 
ATOM     14  C   UNL     1      -2.434   0.255  25.519  0.00  0.00    +0.190 C 
ATOM     15  C   UNL     1      -3.353  -3.011  25.249  0.00  0.00    +0.194 C 
BRANCH  13   4
ATOM      4  O   UNL     1      -5.101  -2.183  23.789  0.00  0.00    -0.387 OA
ATOM     22  H   UNL     1      -5.481  -2.782  23.124  0.00  0.00    +0.210 HD
ENDBRANCH  13   4
ENDBRANCH   6  12
BRANCH  16   1
ATOM      1  S   UNL     1      -0.181   2.547  26.065  0.00  0.00    -0.077 S 
BRANCH   1  17
ATOM     17  C   UNL     1      -0.980   3.909  25.166  0.00  0.00    +0.151 C 
BRANCH  17  18
ATOM      5  O   UNL     1      -2.969   3.259  23.984  0.00  0.00    -0.467 OA
ATOM     18  C   UNL     1      -2.472   3.740  25.138  0.00  0.00    +0.115 A 
ATOM     19  C   UNL     1      -3.432   3.982  26.061  0.00  0.00    +0.045 A 
ATOM     20  C   UNL     1      -4.648   3.620  25.435  0.00  0.00    +0.041 A 
ATOM     21  C   UNL     1      -4.313   3.186  24.173  0.00  0.00    +0.195 A 
ENDBRANCH  17  18
ENDBRANCH   1  17
ENDBRANCH  16   1
TORSDOF 5
ENDMDL
MODEL 9
REMARK VINA RESULT:      -5.4      2.895      4.385
REMARK  Name = 11886009
REMARK  5 active torsions:
REMARK  status: ('A' for Active; 'I' for Inactive)
REMARK    1  A    between atoms: S_1  and  C_16
REMARK    2  A    between atoms: S_1  and  C_17
REMARK    3  A    between atoms: O_4  and  C_13
REMARK    4  A    between atoms: N_6  and  C_12
REMARK    5  A    between atoms: C_17  and  C_18
REMARK                            x       y       z     vdW  Elec       q    Type
REMARK                         _______ _______ _______ _____ _____    ______ ____
ROOT
ATOM      6  N   UNL     1      -0.146   0.559  24.341  0.00  0.00    -0.212 N 
ATOM      7  N   UNL     1       0.477   1.138  23.308  0.00  0.00    -0.043 NA
ATOM      8  N   UNL     1       0.818  -1.065  23.287  0.00  0.00    -0.101 NA
ATOM      9  N   UNL     1       1.067   0.138  22.666  0.00  0.00    -0.022 NA
ATOM     16  C   UNL     1       0.064  -0.779  24.324  0.00  0.00    +0.210 A 
ENDROOT
BRANCH   6  12
ATOM      2  O   UNL     1      -0.106   3.600  25.599  0.00  0.00    -0.369 OA
ATOM      3  O   UNL     1      -3.014   2.569  25.413  0.00  0.00    -0.369 OA
ATOM     10  C   UNL     1      -1.850   2.342  24.587  0.00  0.00    +0.176 C 
ATOM     11  C   UNL     1      -1.082   3.649  24.546  0.00  0.00    +0.180 C 
ATOM     12  C   UNL     1      -0.916   1.372  25.285  0.00  0.00    +0.168 C 
ATOM     13  C   UNL     1      -2.154   4.674  24.825  0.00  0.00    +0.171 C 
ATOM     14  C   UNL     1      -0.090   2.289  26.182  0.00  0.00    +0.190 C 
ATOM     15  C   UNL     1      -3.039   3.947  25.810  0.00  0.00    +0.194 C 
BRANCH  13   4
ATOM      4  O   UNL     1      -1.655   5.883  25.352  0.00  0.00    -0.387 OA
ATOM     22  H   UNL     1      -2.417   6.446  25.567  0.00  0.00    +0.210 HD
ENDBRANCH  13   4
ENDBRANCH   6  12
BRANCH  16   1
ATOM      1  S   UNL     1      -0.573  -1.870  25.489  0.00  0.00    -0.077 S 
BRANCH   1  17
ATOM     17  C   UNL     1      -2.027  -2.526  24.618  0.00  0.00    +0.151 C 
BRANCH  17  18
ATOM      5  O   UNL     1      -3.424  -0.973  25.807  0.00  0.00    -0.467 OA
ATOM     18  C   UNL     1      -3.153  -1.532  24.614  0.00  0.00    +0.115 A 
ATOM     19  C   UNL     1      -3.963  -1.080  23.628  0.00  0.00    +0.045 A 
ATOM     20  C   UNL     1      -4.825  -0.149  24.254  0.00  0.00    +0.041 A 
ATOM     21  C   UNL     1      -4.457  -0.120  25.579  0.00  0.00    +0.195 A 
ENDBRANCH  17  18
ENDBRANCH   1  17
ENDBRANCH  16   1
TORSDOF 5
ENDMDL
MODEL 10
REMARK VINA RESULT:      -5.2      3.296      5.641
REMARK  Name = 11886009
REMARK  5 active torsions:
REMARK  status: ('A' for Active; 'I' for Inactive)
REMARK    1  A    between atoms: S_1  and  C_16
REMARK    2  A    between atoms: S_1  and  C_17
REMARK    3  A    between atoms: O_4  and  C_13
REMARK    4  A    between atoms: N_6  and  C_12
REMARK    5  A    between atoms: C_17  and  C_18
REMARK                            x       y       z     vdW  Elec       q    Type
REMARK                         _______ _______ _______ _____ _____    ______ ____
ROOT
ATOM      6  N   UNL     1      -3.222  -0.419  24.300  0.00  0.00    -0.212 N 
ATOM      7  N   UNL     1      -4.362  -0.998  23.908  0.00  0.00    -0.043 NA
ATOM      8  N   UNL     1      -2.818  -2.543  24.351  0.00  0.00    -0.101 NA
ATOM      9  N   UNL     1      -4.110  -2.300  23.941  0.00  0.00    -0.022 NA
ATOM     16  C   UNL     1      -2.287  -1.362  24.568  0.00  0.00    +0.210 A 
ENDROOT
BRANCH   6  12
ATOM      2  O   UNL     1      -5.156   2.215  23.912  0.00  0.00    -0.369 OA
ATOM      3  O   UNL     1      -2.999   2.791  26.049  0.00  0.00    -0.369 OA
ATOM     10  C   UNL     1      -3.700   1.583  25.680  0.00  0.00    +0.176 C 
ATOM     11  C   UNL     1      -5.118   1.990  25.330  0.00  0.00    +0.180 C 
ATOM     12  C   UNL     1      -3.129   1.040  24.385  0.00  0.00    +0.168 C 
ATOM     13  C   UNL     1      -5.296   3.274  26.103  0.00  0.00    +0.171 C 
ATOM     14  C   UNL     1      -3.911   1.808  23.325  0.00  0.00    +0.190 C 
ATOM     15  C   UNL     1      -3.920   3.890  26.017  0.00  0.00    +0.194 C 
BRANCH  13   4
ATOM      4  O   UNL     1      -6.291   4.120  25.571  0.00  0.00    -0.387 OA
ATOM     22  H   UNL     1      -5.843   4.807  25.048  0.00  0.00    +0.210 HD
ENDBRANCH  13   4
ENDBRANCH   6  12
BRANCH  16   1
ATOM      1  S   UNL     1      -0.689  -1.013  25.098  0.00  0.00    -0.077 S 
BRANCH   1  17
ATOM     17  C   UNL     1      -0.137   0.172  23.836  0.00  0.00    +0.151 C 
BRANCH  17  18
ATOM      5  O   UNL     1       0.072   1.661  25.710  0.00  0.00    -0.467 OA
ATOM     18  C   UNL     1      -0.107   1.571  24.379  0.00  0.00    +0.115 A 
ATOM     19  C   UNL     1      -0.227   2.781  23.784  0.00  0.00    +0.045 A 
ATOM     20  C   UNL     1      -0.112   3.723  24.833  0.00  0.00    +0.041 A 
ATOM     21  C   UNL     1       0.069   2.993  25.984  0.00  0.00    +0.195 A 
ENDBRANCH  17  18
ENDBRANCH   1  17
ENDBRANCH  16   1
TORSDOF 5
ENDMDL
