MODEL 1
REMARK VINA RESULT:      15.0      0.000      0.000
REMARK  Name = 11883016
REMARK  13 active torsions:
REMARK  status: ('A' for Active; 'I' for Inactive)
REMARK    1  A    between atoms: O_2  and  C_15
REMARK    2  A    between atoms: O_3  and  C_20
REMARK    3  A    between atoms: O_6  and  C_34
REMARK    4  A    between atoms: N_8  and  C_27
REMARK    5  A    between atoms: C_10  and  C_18
REMARK    6  A    between atoms: C_12  and  C_20
REMARK    7  A    between atoms: C_12  and  C_21
REMARK    8  A    between atoms: C_13  and  C_23
REMARK    9  A    between atoms: C_23  and  C_24
REMARK   10  A    between atoms: C_26  and  C_28
REMARK   11  A    between atoms: C_28  and  C_31
REMARK   12  A    between atoms: C_28  and  C_32
REMARK   13  A    between atoms: C_28  and  C_33
REMARK                            x       y       z     vdW  Elec       q    Type
REMARK                         _______ _______ _______ _____ _____    ______ ____
ROOT
ATOM      1  S   UNL     1      -0.821  -0.642  23.107  0.00  0.00    -0.057 S 
ATOM      5  O   UNL     1       3.122   1.636  24.000  0.00  0.00    -0.275 OA
ATOM      7  N   UNL     1       0.193   1.471  24.201  0.00  0.00    -0.229 NA
ATOM      9  N   UNL     1       1.736  -0.067  23.172  0.00  0.00    -0.264 N 
ATOM     10  C   UNL     1      -3.403   2.724  24.810  0.00  0.00    -0.019 C 
ATOM     11  C   UNL     1      -3.976   1.246  24.963  0.00  0.00    +0.011 C 
ATOM     12  C   UNL     1      -5.538   1.096  25.125  0.00  0.00    +0.021 C 
ATOM     13  C   UNL     1      -1.833   2.676  25.101  0.00  0.00    +0.054 C 
ATOM     14  C   UNL     1      -4.068   3.646  25.864  0.00  0.00    +0.010 C 
ATOM     15  C   UNL     1      -6.043   2.120  26.181  0.00  0.00    +0.123 C 
ATOM     16  C   UNL     1      -3.360   0.285  23.903  0.00  0.00    +0.049 C 
ATOM     17  C   UNL     1      -5.586   3.547  25.900  0.00  0.00    +0.032 C 
ATOM     18  C   UNL     1      -3.648   3.321  23.403  0.00  0.00    +0.012 C 
ATOM     19  C   UNL     1      -1.178   1.536  24.364  0.00  0.00    +0.058 A 
ATOM     21  C   UNL     1      -5.857  -0.325  25.669  0.00  0.00    +0.016 C 
ATOM     22  C   UNL     1      -1.881   0.464  23.851  0.00  0.00    +0.015 A 
ATOM     25  C   UNL     1       0.494   0.371  23.546  0.00  0.00    +0.165 A 
ATOM     26  C   UNL     1       2.970   0.569  23.409  0.00  0.00    +0.224 C 
ATOM     40  H   UNL     1       1.733  -0.951  22.672  0.00  0.00    +0.157 HD
ENDROOT
BRANCH  26  28
ATOM     28  C   UNL     1       4.191  -0.204  22.845  0.00  0.00    +0.039 C 
ATOM     31  C   UNL     1       4.215  -0.110  21.311  0.00  0.00    +0.020 C 
ATOM     32  C   UNL     1       4.139  -1.674  23.287  0.00  0.00    +0.020 C 
ATOM     33  C   UNL     1       5.489   0.422  23.391  0.00  0.00    +0.020 C 
ENDBRANCH  26  28
BRANCH  15   2
ATOM      2  O   UNL     1      -7.468   2.100  26.258  0.00  0.00    -0.391 OA
ATOM     37  H   UNL     1      -7.820   2.178  25.356  0.00  0.00    +0.210 HD
ENDBRANCH  15   2
BRANCH  12  20
ATOM     20  C   UNL     1      -6.334   1.225  23.807  0.00  0.00    +0.165 C 
BRANCH  20   3
ATOM      3  O   UNL     1      -7.642   1.636  24.133  0.00  0.00    -0.394 OA
ATOM     38  H   UNL     1      -8.238   1.333  23.427  0.00  0.00    +0.209 HD
ENDBRANCH  20   3
ENDBRANCH  12  20
BRANCH  13  23
ATOM     23  C   UNL     1      -1.097   4.000  24.853  0.00  0.00    +0.106 C 
BRANCH  23  24
ATOM      4  O   UNL     1       0.810   5.168  25.746  0.00  0.00    -0.275 OA
ATOM      8  N   UNL     1       0.110   3.150  26.722  0.00  0.00    -0.285 N 
ATOM     24  C   UNL     1       0.059   4.201  25.810  0.00  0.00    +0.218 C 
ATOM     39  H   UNL     1      -0.586   2.413  26.636  0.00  0.00    +0.155 HD
BRANCH   8  27
ATOM     27  C   UNL     1       1.037   2.965  27.775  0.00  0.00    +0.037 A 
ATOM     29  C   UNL     1       0.582   2.526  29.009  0.00  0.00    +0.068 A 
ATOM     30  C   UNL     1       2.378   3.226  27.551  0.00  0.00    +0.023 A 
ATOM     34  C   UNL     1       1.496   2.344  30.046  0.00  0.00    +0.119 A 
ATOM     35  C   UNL     1       3.292   3.044  28.589  0.00  0.00    +0.005 A 
ATOM     36  C   UNL     1       2.852   2.602  29.836  0.00  0.00    +0.045 A 
BRANCH  34   6
ATOM      6  O   UNL     1       1.067   1.914  31.264  0.00  0.00    -0.507 OA
ATOM     41  H   UNL     1       1.326   0.983  31.379  0.00  0.00    +0.292 HD
ENDBRANCH  34   6
ENDBRANCH   8  27
ENDBRANCH  23  24
ENDBRANCH  13  23
TORSDOF 8
ENDMDL
MODEL 2
REMARK VINA RESULT:      16.8      2.985      4.569
REMARK  Name = 11883016
REMARK  13 active torsions:
REMARK  status: ('A' for Active; 'I' for Inactive)
REMARK    1  A    between atoms: O_2  and  C_15
REMARK    2  A    between atoms: O_3  and  C_20
REMARK    3  A    between atoms: O_6  and  C_34
REMARK    4  A    between atoms: N_8  and  C_27
REMARK    5  A    between atoms: C_10  and  C_18
REMARK    6  A    between atoms: C_12  and  C_20
REMARK    7  A    between atoms: C_12  and  C_21
REMARK    8  A    between atoms: C_13  and  C_23
REMARK    9  A    between atoms: C_23  and  C_24
REMARK   10  A    between atoms: C_26  and  C_28
REMARK   11  A    between atoms: C_28  and  C_31
REMARK   12  A    between atoms: C_28  and  C_32
REMARK   13  A    between atoms: C_28  and  C_33
REMARK                            x       y       z     vdW  Elec       q    Type
REMARK                         _______ _______ _______ _____ _____    ______ ____
ROOT
ATOM      1  S   UNL     1       0.571   2.010  25.902  0.00  0.00    -0.057 S 
ATOM      5  O   UNL     1       2.256   0.537  21.837  0.00  0.00    -0.275 OA
ATOM      7  N   UNL     1       0.041   1.689  23.391  0.00  0.00    -0.229 NA
ATOM      9  N   UNL     1       2.233   1.018  24.133  0.00  0.00    -0.264 N 
ATOM     10  C   UNL     1      -3.582   2.770  24.151  0.00  0.00    -0.019 C 
ATOM     11  C   UNL     1      -3.130   3.726  25.341  0.00  0.00    +0.011 C 
ATOM     12  C   UNL     1      -4.275   4.414  26.181  0.00  0.00    +0.021 C 
ATOM     13  C   UNL     1      -2.322   2.549  23.193  0.00  0.00    +0.054 C 
ATOM     14  C   UNL     1      -4.703   3.460  23.332  0.00  0.00    +0.010 C 
ATOM     15  C   UNL     1      -5.333   5.011  25.211  0.00  0.00    +0.123 C 
ATOM     16  C   UNL     1      -2.023   3.063  26.214  0.00  0.00    +0.049 C 
ATOM     17  C   UNL     1      -5.841   4.006  24.184  0.00  0.00    +0.032 C 
ATOM     18  C   UNL     1      -4.100   1.397  24.645  0.00  0.00    +0.012 C 
ATOM     19  C   UNL     1      -1.085   2.224  23.989  0.00  0.00    +0.058 A 
ATOM     21  C   UNL     1      -3.669   5.596  26.990  0.00  0.00    +0.016 C 
ATOM     22  C   UNL     1      -0.966   2.481  25.340  0.00  0.00    +0.015 A 
ATOM     25  C   UNL     1       0.973   1.527  24.305  0.00  0.00    +0.165 A 
ATOM     26  C   UNL     1       2.809   0.555  22.935  0.00  0.00    +0.224 C 
ATOM     40  H   UNL     1       2.788   0.985  24.984  0.00  0.00    +0.157 HD
ENDROOT
BRANCH  26  28
ATOM     28  C   UNL     1       4.262   0.040  23.096  0.00  0.00    +0.039 C 
ATOM     31  C   UNL     1       4.963  -0.009  21.729  0.00  0.00    +0.020 C 
ATOM     32  C   UNL     1       4.264  -1.353  23.744  0.00  0.00    +0.020 C 
ATOM     33  C   UNL     1       5.047   1.001  24.010  0.00  0.00    +0.020 C 
ENDBRANCH  26  28
BRANCH  15   2
ATOM      2  O   UNL     1      -6.447   5.527  25.939  0.00  0.00    -0.391 OA
ATOM     37  H   UNL     1      -6.109   6.137  26.615  0.00  0.00    +0.210 HD
ENDBRANCH  15   2
BRANCH  12  20
ATOM     20  C   UNL     1      -4.943   3.494  27.227  0.00  0.00    +0.165 C 
BRANCH  20   3
ATOM      3  O   UNL     1      -6.070   2.902  26.623  0.00  0.00    -0.394 OA
ATOM     38  H   UNL     1      -6.828   3.015  27.221  0.00  0.00    +0.209 HD
ENDBRANCH  20   3
ENDBRANCH  12  20
BRANCH  13  23
ATOM     23  C   UNL     1      -2.549   1.529  22.067  0.00  0.00    +0.106 C 
BRANCH  23  24
ATOM      4  O   UNL     1      -3.746  -0.559  22.160  0.00  0.00    -0.275 OA
ATOM      8  N   UNL     1      -1.951  -0.172  23.624  0.00  0.00    -0.285 N 
ATOM     24  C   UNL     1      -2.842   0.143  22.602  0.00  0.00    +0.218 C 
ATOM     39  H   UNL     1      -1.259   0.528  23.882  0.00  0.00    +0.155 HD
BRANCH   8  27
ATOM     27  C   UNL     1      -1.890  -1.367  24.379  0.00  0.00    +0.037 A 
ATOM     29  C   UNL     1      -0.654  -1.871  24.751  0.00  0.00    +0.068 A 
ATOM     30  C   UNL     1      -3.067  -2.007  24.730  0.00  0.00    +0.023 A 
ATOM     34  C   UNL     1      -0.594  -3.049  25.496  0.00  0.00    +0.119 A 
ATOM     35  C   UNL     1      -3.006  -3.185  25.474  0.00  0.00    +0.005 A 
ATOM     36  C   UNL     1      -1.771  -3.706  25.858  0.00  0.00    +0.045 A 
BRANCH  34   6
ATOM      6  O   UNL     1       0.612  -3.557  25.869  0.00  0.00    -0.507 OA
ATOM     41  H   UNL     1       0.940  -3.058  26.637  0.00  0.00    +0.292 HD
ENDBRANCH  34   6
ENDBRANCH   8  27
ENDBRANCH  23  24
ENDBRANCH  13  23
TORSDOF 8
ENDMDL
MODEL 3
REMARK VINA RESULT:      18.5      1.580      2.060
REMARK  Name = 11883016
REMARK  13 active torsions:
REMARK  status: ('A' for Active; 'I' for Inactive)
REMARK    1  A    between atoms: O_2  and  C_15
REMARK    2  A    between atoms: O_3  and  C_20
REMARK    3  A    between atoms: O_6  and  C_34
REMARK    4  A    between atoms: N_8  and  C_27
REMARK    5  A    between atoms: C_10  and  C_18
REMARK    6  A    between atoms: C_12  and  C_20
REMARK    7  A    between atoms: C_12  and  C_21
REMARK    8  A    between atoms: C_13  and  C_23
REMARK    9  A    between atoms: C_23  and  C_24
REMARK   10  A    between atoms: C_26  and  C_28
REMARK   11  A    between atoms: C_28  and  C_31
REMARK   12  A    between atoms: C_28  and  C_32
REMARK   13  A    between atoms: C_28  and  C_33
REMARK                            x       y       z     vdW  Elec       q    Type
REMARK                         _______ _______ _______ _____ _____    ______ ____
ROOT
ATOM      1  S   UNL     1       1.070  -1.720  23.109  0.00  0.00    -0.057 S 
ATOM      5  O   UNL     1       4.325   1.417  24.157  0.00  0.00    -0.275 OA
ATOM      7  N   UNL     1       1.488   0.646  24.068  0.00  0.00    -0.229 NA
ATOM      9  N   UNL     1       3.429  -0.606  23.378  0.00  0.00    -0.264 N 
ATOM     10  C   UNL     1      -2.335   1.144  24.159  0.00  0.00    -0.019 C 
ATOM     11  C   UNL     1      -2.609  -0.404  24.410  0.00  0.00    +0.011 C 
ATOM     12  C   UNL     1      -4.116  -0.871  24.423  0.00  0.00    +0.021 C 
ATOM     13  C   UNL     1      -0.836   1.459  24.616  0.00  0.00    +0.054 C 
ATOM     14  C   UNL     1      -3.299   1.988  25.032  0.00  0.00    +0.010 C 
ATOM     15  C   UNL     1      -4.946   0.105  25.303  0.00  0.00    +0.123 C 
ATOM     16  C   UNL     1      -1.684  -1.296  23.530  0.00  0.00    +0.049 C 
ATOM     17  C   UNL     1      -4.758   1.569  24.919  0.00  0.00    +0.032 C 
ATOM     18  C   UNL     1      -2.517   1.555  22.677  0.00  0.00    +0.012 C 
ATOM     19  C   UNL     1       0.123   0.428  24.079  0.00  0.00    +0.058 A 
ATOM     21  C   UNL     1      -4.205  -2.277  25.081  0.00  0.00    +0.016 C 
ATOM     22  C   UNL     1      -0.277  -0.808  23.614  0.00  0.00    +0.015 A 
ATOM     25  C   UNL     1       2.086  -0.415  23.571  0.00  0.00    +0.165 A 
ATOM     26  C   UNL     1       4.468   0.297  23.672  0.00  0.00    +0.224 C 
ATOM     40  H   UNL     1       3.667  -1.509  22.979  0.00  0.00    +0.157 HD
ENDROOT
BRANCH  26  28
ATOM     28  C   UNL     1       5.881  -0.241  23.327  0.00  0.00    +0.039 C 
ATOM     31  C   UNL     1       6.955   0.757  23.789  0.00  0.00    +0.020 C 
ATOM     32  C   UNL     1       6.001  -0.487  21.815  0.00  0.00    +0.020 C 
ATOM     33  C   UNL     1       6.113  -1.578  24.057  0.00  0.00    +0.020 C 
ENDBRANCH  26  28
BRANCH  15   2
ATOM      2  O   UNL     1      -6.336  -0.213  25.232  0.00  0.00    -0.391 OA
ATOM     37  H   UNL     1      -6.762   0.117  26.040  0.00  0.00    +0.210 HD
ENDBRANCH  15   2
BRANCH  12  20
ATOM     20  C   UNL     1      -4.750  -1.027  23.023  0.00  0.00    +0.165 C 
BRANCH  20   3
ATOM      3  O   UNL     1      -4.792  -2.403  22.720  0.00  0.00    -0.394 OA
ATOM     38  H   UNL     1      -4.016  -2.825  23.127  0.00  0.00    +0.209 HD
ENDBRANCH  20   3
ENDBRANCH  12  20
BRANCH  13  23
ATOM     23  C   UNL     1      -0.360   2.885  24.304  0.00  0.00    +0.106 C 
BRANCH  23  24
ATOM      4  O   UNL     1       0.398   4.771  25.596  0.00  0.00    -0.275 OA
ATOM      8  N   UNL     1       0.653   2.594  26.440  0.00  0.00    -0.285 N 
ATOM     24  C   UNL     1       0.270   3.554  25.508  0.00  0.00    +0.218 C 
ATOM     39  H   UNL     1       0.484   1.617  26.211  0.00  0.00    +0.155 HD
BRANCH   8  27
ATOM     27  C   UNL     1       1.274   2.807  27.694  0.00  0.00    +0.037 A 
ATOM     29  C   UNL     1       0.590   2.479  28.853  0.00  0.00    +0.068 A 
ATOM     30  C   UNL     1       2.553   3.337  27.735  0.00  0.00    +0.023 A 
ATOM     34  C   UNL     1       1.202   2.689  30.088  0.00  0.00    +0.119 A 
ATOM     35  C   UNL     1       3.164   3.547  28.971  0.00  0.00    +0.005 A 
ATOM     36  C   UNL     1       2.490   3.223  30.147  0.00  0.00    +0.045 A 
BRANCH  34   6
ATOM      6  O   UNL     1       0.543   2.372  31.237  0.00  0.00    -0.507 OA
ATOM     41  H   UNL     1       0.768   1.460  31.487  0.00  0.00    +0.292 HD
ENDBRANCH  34   6
ENDBRANCH   8  27
ENDBRANCH  23  24
ENDBRANCH  13  23
TORSDOF 8
ENDMDL
MODEL 4
REMARK VINA RESULT:      18.8      1.772      2.826
REMARK  Name = 11883016
REMARK  13 active torsions:
REMARK  status: ('A' for Active; 'I' for Inactive)
REMARK    1  A    between atoms: O_2  and  C_15
REMARK    2  A    between atoms: O_3  and  C_20
REMARK    3  A    between atoms: O_6  and  C_34
REMARK    4  A    between atoms: N_8  and  C_27
REMARK    5  A    between atoms: C_10  and  C_18
REMARK    6  A    between atoms: C_12  and  C_20
REMARK    7  A    between atoms: C_12  and  C_21
REMARK    8  A    between atoms: C_13  and  C_23
REMARK    9  A    between atoms: C_23  and  C_24
REMARK   10  A    between atoms: C_26  and  C_28
REMARK   11  A    between atoms: C_28  and  C_31
REMARK   12  A    between atoms: C_28  and  C_32
REMARK   13  A    between atoms: C_28  and  C_33
REMARK                            x       y       z     vdW  Elec       q    Type
REMARK                         _______ _______ _______ _____ _____    ______ ____
ROOT
ATOM      1  S   UNL     1       0.595   2.678  23.385  0.00  0.00    -0.057 S 
ATOM      5  O   UNL     1       2.887  -1.332  23.832  0.00  0.00    -0.275 OA
ATOM      7  N   UNL     1       0.375   0.184  24.035  0.00  0.00    -0.229 NA
ATOM      9  N   UNL     1       2.561   0.943  23.361  0.00  0.00    -0.264 N 
ATOM     10  C   UNL     1      -3.258   0.917  25.103  0.00  0.00    -0.019 C 
ATOM     11  C   UNL     1      -3.428   2.066  24.014  0.00  0.00    +0.011 C 
ATOM     12  C   UNL     1      -4.778   2.883  24.041  0.00  0.00    +0.021 C 
ATOM     13  C   UNL     1      -2.067  -0.038  24.628  0.00  0.00    +0.054 C 
ATOM     14  C   UNL     1      -4.558   0.076  25.175  0.00  0.00    +0.010 C 
ATOM     15  C   UNL     1      -5.972   1.894  24.161  0.00  0.00    +0.123 C 
ATOM     16  C   UNL     1      -2.156   2.960  23.925  0.00  0.00    +0.049 C 
ATOM     17  C   UNL     1      -5.824   0.910  25.316  0.00  0.00    +0.032 C 
ATOM     18  C   UNL     1      -2.943   1.469  26.515  0.00  0.00    +0.012 C 
ATOM     19  C   UNL     1      -0.870   0.766  24.188  0.00  0.00    +0.058 A 
ATOM     21  C   UNL     1      -4.938   3.641  22.692  0.00  0.00    +0.016 C 
ATOM     22  C   UNL     1      -0.936   2.105  23.860  0.00  0.00    +0.015 A 
ATOM     25  C   UNL     1       1.226   1.100  23.625  0.00  0.00    +0.165 A 
ATOM     26  C   UNL     1       3.319  -0.238  23.473  0.00  0.00    +0.224 C 
ATOM     40  H   UNL     1       3.026   1.792  23.052  0.00  0.00    +0.157 HD
ENDROOT
BRANCH  26  28
ATOM     28  C   UNL     1       4.812  -0.063  23.096  0.00  0.00    +0.039 C 
ATOM     31  C   UNL     1       5.417   1.125  23.863  0.00  0.00    +0.020 C 
ATOM     32  C   UNL     1       4.956   0.155  21.582  0.00  0.00    +0.020 C 
ATOM     33  C   UNL     1       5.590  -1.336  23.480  0.00  0.00    +0.020 C 
ENDBRANCH  26  28
BRANCH  15   2
ATOM      2  O   UNL     1      -7.199   2.606  24.318  0.00  0.00    -0.391 OA
ATOM     37  H   UNL     1      -7.152   3.410  23.776  0.00  0.00    +0.210 HD
ENDBRANCH  15   2
BRANCH  12  20
ATOM     20  C   UNL     1      -4.848   3.968  25.138  0.00  0.00    +0.165 C 
BRANCH  20   3
ATOM      3  O   UNL     1      -5.625   3.458  26.198  0.00  0.00    -0.394 OA
ATOM     38  H   UNL     1      -5.049   3.362  26.975  0.00  0.00    +0.209 HD
ENDBRANCH  20   3
ENDBRANCH  12  20
BRANCH  13  23
ATOM     23  C   UNL     1      -1.673  -1.120  25.643  0.00  0.00    +0.106 C 
BRANCH  23  24
ATOM      4  O   UNL     1       0.263  -1.462  27.034  0.00  0.00    -0.275 OA
ATOM      8  N   UNL     1      -0.574   0.708  26.705  0.00  0.00    -0.285 N 
ATOM     24  C   UNL     1      -0.540  -0.675  26.544  0.00  0.00    +0.218 C 
ATOM     39  H   UNL     1      -1.317   1.221  26.235  0.00  0.00    +0.155 HD
BRANCH   8  27
ATOM     27  C   UNL     1       0.307   1.510  27.466  0.00  0.00    +0.037 A 
ATOM     29  C   UNL     1       0.583   1.158  28.778  0.00  0.00    +0.068 A 
ATOM     30  C   UNL     1       0.877   2.631  26.884  0.00  0.00    +0.023 A 
ATOM     34  C   UNL     1       1.452   1.949  29.528  0.00  0.00    +0.119 A 
ATOM     35  C   UNL     1       1.746   3.422  27.635  0.00  0.00    +0.005 A 
ATOM     36  C   UNL     1       2.035   3.081  28.956  0.00  0.00    +0.045 A 
BRANCH  34   6
ATOM      6  O   UNL     1       1.733   1.617  30.818  0.00  0.00    -0.507 OA
ATOM     41  H   UNL     1       1.962   2.425  31.308  0.00  0.00    +0.292 HD
ENDBRANCH  34   6
ENDBRANCH   8  27
ENDBRANCH  23  24
ENDBRANCH  13  23
TORSDOF 8
ENDMDL
