MODEL 1
REMARK VINA RESULT:      -5.2      0.000      0.000
REMARK  Name = 7049356
REMARK  13 active torsions:
REMARK  status: ('A' for Active; 'I' for Inactive)
REMARK    1  A    between atoms: O_1  and  C_10
REMARK    2  A    between atoms: O_2  and  C_12
REMARK    3  A    between atoms: N_6  and  C_11
REMARK    4  A    between atoms: N_7  and  C_16
REMARK    5  A    between atoms: N_9  and  C_25
REMARK    6  A    between atoms: C_14  and  C_17
REMARK    7  A    between atoms: C_16  and  C_18
REMARK    8  A    between atoms: C_16  and  C_23
REMARK    9  A    between atoms: C_18  and  C_19
REMARK   10  A    between atoms: C_19  and  C_21
REMARK   11  A    between atoms: C_19  and  C_22
REMARK   12  A    between atoms: C_20  and  C_24
REMARK   13  A    between atoms: C_24  and  C_25
REMARK                            x       y       z     vdW  Elec       q    Type
REMARK                         _______ _______ _______ _____ _____    ______ ____
ROOT
ATOM     10  C   UNL     1      -0.174  -1.560  24.702  0.00  0.00    +0.167 C 
ATOM     11  C   UNL     1       0.136  -0.650  23.499  0.00  0.00    +0.127 C 
ATOM     12  C   UNL     1      -1.653  -1.967  24.733  0.00  0.00    +0.149 C 
ATOM     13  C   UNL     1      -2.590  -0.748  24.731  0.00  0.00    +0.074 C 
ATOM     14  C   UNL     1      -2.114   0.369  23.846  0.00  0.00    +0.015 C 
ATOM     15  C   UNL     1      -0.898   0.422  23.281  0.00  0.00    +0.006 C 
ENDROOT
BRANCH  14  17
ATOM      3  O   UNL     1      -3.018   2.039  22.477  0.00  0.00    -0.271 OA
ATOM      7  N   UNL     1      -3.884   1.747  24.622  0.00  0.00    -0.300 N 
ATOM     17  C   UNL     1      -3.041   1.468  23.561  0.00  0.00    +0.241 C 
ATOM     27  H   UNL     1      -3.856   1.156  25.449  0.00  0.00    +0.150 HD
BRANCH   7  16
ATOM     16  C   UNL     1      -4.879   2.787  24.579  0.00  0.00    +0.159 C 
BRANCH  16  23
ATOM      5  O   UNL     1      -6.042   2.569  26.703  0.00  0.00    -0.274 OA
ATOM      8  N   UNL     1      -7.044   1.733  24.813  0.00  0.00    -0.328 N 
ATOM     23  C   UNL     1      -6.017   2.353  25.495  0.00  0.00    +0.231 C 
ATOM     30  H   UNL     1      -7.870   1.408  25.304  0.00  0.00    +0.145 HD
ATOM     31  H   UNL     1      -7.020   1.582  23.810  0.00  0.00    +0.145 HD
ENDBRANCH  16  23
BRANCH  16  18
ATOM     18  C   UNL     1      -4.323   4.143  25.029  0.00  0.00    +0.034 C 
BRANCH  18  19
ATOM     19  C   UNL     1      -2.938   4.082  25.705  0.00  0.00    -0.015 C 
ATOM     21  C   UNL     1      -3.091   4.277  27.216  0.00  0.00    +0.007 C 
ATOM     22  C   UNL     1      -1.971   5.126  25.146  0.00  0.00    +0.007 C 
ENDBRANCH  18  19
ENDBRANCH  16  18
ENDBRANCH   7  16
ENDBRANCH  14  17
BRANCH  11   6
ATOM      4  O   UNL     1       2.030  -0.232  21.390  0.00  0.00    -0.276 OA
ATOM      6  N   UNL     1       1.432  -0.028  23.622  0.00  0.00    -0.306 N 
ATOM     20  C   UNL     1       2.281   0.129  22.537  0.00  0.00    +0.215 C 
ATOM     26  H   UNL     1       1.747   0.265  24.544  0.00  0.00    +0.149 HD
BRANCH  20  24
ATOM     24  C   UNL     1       3.579   0.811  22.932  0.00  0.00    +0.110 C 
BRANCH  24  25
ATOM     25  C   UNL     1       4.702  -0.187  23.192  0.00  0.00    +0.087 C 
BRANCH  25   9
ATOM      9  N   UNL     1       4.177  -1.387  23.833  0.00  0.00    -0.330 NA
ATOM     32  H   UNL     1       4.853  -1.730  24.514  0.00  0.00    +0.118 HD
ATOM     33  H   UNL     1       3.335  -1.154  24.358  0.00  0.00    +0.118 HD
ENDBRANCH  25   9
ENDBRANCH  24  25
ENDBRANCH  20  24
ENDBRANCH  11   6
BRANCH  10   1
ATOM      1  O   UNL     1       0.136  -0.873  25.917  0.00  0.00    -0.387 OA
ATOM     28  H   UNL     1      -0.262   0.012  25.863  0.00  0.00    +0.210 HD
ENDBRANCH  10   1
BRANCH  12   2
ATOM      2  O   UNL     1      -1.951  -2.814  23.625  0.00  0.00    -0.389 OA
ATOM     29  H   UNL     1      -1.272  -3.510  23.595  0.00  0.00    +0.210 HD
ENDBRANCH  12   2
TORSDOF 11
ENDMDL
MODEL 2
REMARK VINA RESULT:      -3.6      1.475      2.455
REMARK  Name = 7049356
REMARK  13 active torsions:
REMARK  status: ('A' for Active; 'I' for Inactive)
REMARK    1  A    between atoms: O_1  and  C_10
REMARK    2  A    between atoms: O_2  and  C_12
REMARK    3  A    between atoms: N_6  and  C_11
REMARK    4  A    between atoms: N_7  and  C_16
REMARK    5  A    between atoms: N_9  and  C_25
REMARK    6  A    between atoms: C_14  and  C_17
REMARK    7  A    between atoms: C_16  and  C_18
REMARK    8  A    between atoms: C_16  and  C_23
REMARK    9  A    between atoms: C_18  and  C_19
REMARK   10  A    between atoms: C_19  and  C_21
REMARK   11  A    between atoms: C_19  and  C_22
REMARK   12  A    between atoms: C_20  and  C_24
REMARK   13  A    between atoms: C_24  and  C_25
REMARK                            x       y       z     vdW  Elec       q    Type
REMARK                         _______ _______ _______ _____ _____    ______ ____
ROOT
ATOM     10  C   UNL     1      -0.403  -1.797  24.706  0.00  0.00    +0.167 C 
ATOM     11  C   UNL     1      -0.098  -0.769  23.601  0.00  0.00    +0.127 C 
ATOM     12  C   UNL     1      -1.913  -1.990  24.894  0.00  0.00    +0.149 C 
ATOM     13  C   UNL     1      -2.635  -0.663  25.187  0.00  0.00    +0.074 C 
ATOM     14  C   UNL     1      -2.095   0.495  24.397  0.00  0.00    +0.015 C 
ATOM     15  C   UNL     1      -0.964   0.460  23.676  0.00  0.00    +0.006 C 
ENDROOT
BRANCH  14  17
ATOM      3  O   UNL     1      -3.347   2.178  23.356  0.00  0.00    -0.271 OA
ATOM      7  N   UNL     1      -2.945   2.325  25.648  0.00  0.00    -0.300 N 
ATOM     17  C   UNL     1      -2.860   1.745  24.395  0.00  0.00    +0.241 C 
ATOM     27  H   UNL     1      -2.559   1.835  26.451  0.00  0.00    +0.150 HD
BRANCH   7  16
ATOM     16  C   UNL     1      -3.644   3.560  25.895  0.00  0.00    +0.159 C 
BRANCH  16  23
ATOM      5  O   UNL     1      -1.889   5.100  25.217  0.00  0.00    -0.274 OA
ATOM      8  N   UNL     1      -3.778   4.951  23.920  0.00  0.00    -0.328 N 
ATOM     23  C   UNL     1      -3.000   4.620  25.011  0.00  0.00    +0.231 C 
ATOM     30  H   UNL     1      -3.459   5.636  23.243  0.00  0.00    +0.145 HD
ATOM     31  H   UNL     1      -4.685   4.530  23.750  0.00  0.00    +0.145 HD
ENDBRANCH  16  23
BRANCH  16  18
ATOM     18  C   UNL     1      -5.142   3.452  25.588  0.00  0.00    +0.034 C 
BRANCH  18  19
ATOM     19  C   UNL     1      -5.725   2.029  25.702  0.00  0.00    -0.015 C 
ATOM     21  C   UNL     1      -6.632   1.744  24.502  0.00  0.00    +0.007 C 
ATOM     22  C   UNL     1      -6.508   1.821  26.999  0.00  0.00    +0.007 C 
ENDBRANCH  18  19
ENDBRANCH  16  18
ENDBRANCH   7  16
ENDBRANCH  14  17
BRANCH  11   6
ATOM      4  O   UNL     1       1.566  -0.299  21.316  0.00  0.00    -0.276 OA
ATOM      6  N   UNL     1       1.287  -0.364  23.619  0.00  0.00    -0.306 N 
ATOM     20  C   UNL     1       2.011  -0.161  22.453  0.00  0.00    +0.215 C 
ATOM     26  H   UNL     1       1.755  -0.266  24.516  0.00  0.00    +0.149 HD
BRANCH  20  24
ATOM     24  C   UNL     1       3.440   0.260  22.745  0.00  0.00    +0.110 C 
BRANCH  24  25
ATOM     25  C   UNL     1       4.207  -0.799  23.528  0.00  0.00    +0.087 C 
BRANCH  25   9
ATOM      9  N   UNL     1       5.265  -0.181  24.317  0.00  0.00    -0.330 NA
ATOM     32  H   UNL     1       5.847   0.396  23.710  0.00  0.00    +0.118 HD
ATOM     33  H   UNL     1       4.857   0.451  25.004  0.00  0.00    +0.118 HD
ENDBRANCH  25   9
ENDBRANCH  24  25
ENDBRANCH  20  24
ENDBRANCH  11   6
BRANCH  10   1
ATOM      1  O   UNL     1       0.159  -1.354  25.944  0.00  0.00    -0.387 OA
ATOM     28  H   UNL     1       1.063  -1.048  25.762  0.00  0.00    +0.210 HD
ENDBRANCH  10   1
BRANCH  12   2
ATOM      2  O   UNL     1      -2.476  -2.608  23.739  0.00  0.00    -0.389 OA
ATOM     29  H   UNL     1      -2.615  -1.914  23.072  0.00  0.00    +0.210 HD
ENDBRANCH  12   2
TORSDOF 11
ENDMDL
MODEL 3
REMARK VINA RESULT:      -3.2      2.578      7.031
REMARK  Name = 7049356
REMARK  13 active torsions:
REMARK  status: ('A' for Active; 'I' for Inactive)
REMARK    1  A    between atoms: O_1  and  C_10
REMARK    2  A    between atoms: O_2  and  C_12
REMARK    3  A    between atoms: N_6  and  C_11
REMARK    4  A    between atoms: N_7  and  C_16
REMARK    5  A    between atoms: N_9  and  C_25
REMARK    6  A    between atoms: C_14  and  C_17
REMARK    7  A    between atoms: C_16  and  C_18
REMARK    8  A    between atoms: C_16  and  C_23
REMARK    9  A    between atoms: C_18  and  C_19
REMARK   10  A    between atoms: C_19  and  C_21
REMARK   11  A    between atoms: C_19  and  C_22
REMARK   12  A    between atoms: C_20  and  C_24
REMARK   13  A    between atoms: C_24  and  C_25
REMARK                            x       y       z     vdW  Elec       q    Type
REMARK                         _______ _______ _______ _____ _____    ______ ____
ROOT
ATOM     10  C   UNL     1      -2.544   4.620  25.276  0.00  0.00    +0.167 C 
ATOM     11  C   UNL     1      -3.103   3.735  24.147  0.00  0.00    +0.127 C 
ATOM     12  C   UNL     1      -1.015   4.720  25.209  0.00  0.00    +0.149 C 
ATOM     13  C   UNL     1      -0.343   3.336  25.234  0.00  0.00    +0.074 C 
ATOM     14  C   UNL     1      -1.086   2.298  24.443  0.00  0.00    +0.015 C 
ATOM     15  C   UNL     1      -2.320   2.466  23.943  0.00  0.00    +0.006 C 
ENDROOT
BRANCH  14  17
ATOM      3  O   UNL     1       0.734   0.995  23.755  0.00  0.00    -0.271 OA
ATOM      7  N   UNL     1      -1.217  -0.072  24.457  0.00  0.00    -0.300 N 
ATOM     17  C   UNL     1      -0.417   1.021  24.179  0.00  0.00    +0.241 C 
ATOM     27  H   UNL     1      -2.133   0.074  24.873  0.00  0.00    +0.150 HD
BRANCH   7  16
ATOM     16  C   UNL     1      -0.779  -1.432  24.274  0.00  0.00    +0.159 C 
BRANCH  16  23
ATOM      5  O   UNL     1       0.696  -2.792  25.648  0.00  0.00    -0.274 OA
ATOM      8  N   UNL     1      -0.430  -1.052  26.638  0.00  0.00    -0.328 N 
ATOM     23  C   UNL     1      -0.098  -1.859  25.569  0.00  0.00    +0.231 C 
ATOM     30  H   UNL     1      -0.034  -1.219  27.557  0.00  0.00    +0.145 HD
ATOM     31  H   UNL     1      -1.071  -0.270  26.553  0.00  0.00    +0.145 HD
ENDBRANCH  16  23
BRANCH  16  18
ATOM     18  C   UNL     1      -1.939  -2.378  23.947  0.00  0.00    +0.034 C 
BRANCH  18  19
ATOM     19  C   UNL     1      -3.334  -1.850  24.336  0.00  0.00    -0.015 C 
ATOM     21  C   UNL     1      -3.545  -2.008  25.844  0.00  0.00    +0.007 C 
ATOM     22  C   UNL     1      -4.458  -2.561  23.582  0.00  0.00    +0.007 C 
ENDBRANCH  18  19
ENDBRANCH  16  18
ENDBRANCH   7  16
ENDBRANCH  14  17
BRANCH  11   6
ATOM      4  O   UNL     1      -4.201   1.094  24.333  0.00  0.00    -0.276 OA
ATOM      6  N   UNL     1      -4.488   3.396  24.372  0.00  0.00    -0.306 N 
ATOM     20  C   UNL     1      -4.923   2.081  24.446  0.00  0.00    +0.215 C 
ATOM     26  H   UNL     1      -5.170   4.148  24.435  0.00  0.00    +0.149 HD
BRANCH  20  24
ATOM     24  C   UNL     1      -6.419   1.998  24.690  0.00  0.00    +0.110 C 
BRANCH  24  25
ATOM     25  C   UNL     1      -6.762   1.953  26.175  0.00  0.00    +0.087 C 
BRANCH  25   9
ATOM      9  N   UNL     1      -5.760   2.673  26.950  0.00  0.00    -0.330 NA
ATOM     32  H   UNL     1      -5.974   2.588  27.943  0.00  0.00    +0.118 HD
ATOM     33  H   UNL     1      -4.847   2.240  26.816  0.00  0.00    +0.118 HD
ENDBRANCH  25   9
ENDBRANCH  24  25
ENDBRANCH  20  24
ENDBRANCH  11   6
BRANCH  10   1
ATOM      1  O   UNL     1      -2.912   4.071  26.544  0.00  0.00    -0.387 OA
ATOM     28  H   UNL     1      -2.156   3.556  26.870  0.00  0.00    +0.210 HD
ENDBRANCH  10   1
BRANCH  12   2
ATOM      2  O   UNL     1      -0.621   5.433  24.038  0.00  0.00    -0.389 OA
ATOM     29  H   UNL     1       0.144   4.971  23.656  0.00  0.00    +0.210 HD
ENDBRANCH  12   2
TORSDOF 11
ENDMDL
MODEL 4
REMARK VINA RESULT:      -3.1      2.095      7.828
REMARK  Name = 7049356
REMARK  13 active torsions:
REMARK  status: ('A' for Active; 'I' for Inactive)
REMARK    1  A    between atoms: O_1  and  C_10
REMARK    2  A    between atoms: O_2  and  C_12
REMARK    3  A    between atoms: N_6  and  C_11
REMARK    4  A    between atoms: N_7  and  C_16
REMARK    5  A    between atoms: N_9  and  C_25
REMARK    6  A    between atoms: C_14  and  C_17
REMARK    7  A    between atoms: C_16  and  C_18
REMARK    8  A    between atoms: C_16  and  C_23
REMARK    9  A    between atoms: C_18  and  C_19
REMARK   10  A    between atoms: C_19  and  C_21
REMARK   11  A    between atoms: C_19  and  C_22
REMARK   12  A    between atoms: C_20  and  C_24
REMARK   13  A    between atoms: C_24  and  C_25
REMARK                            x       y       z     vdW  Elec       q    Type
REMARK                         _______ _______ _______ _____ _____    ______ ____
ROOT
ATOM     10  C   UNL     1      -2.313   4.138  25.220  0.00  0.00    +0.167 C 
ATOM     11  C   UNL     1      -2.664   3.282  23.989  0.00  0.00    +0.127 C 
ATOM     12  C   UNL     1      -0.809   4.430  25.292  0.00  0.00    +0.149 C 
ATOM     13  C   UNL     1       0.032   3.142  25.281  0.00  0.00    +0.074 C 
ATOM     14  C   UNL     1      -0.507   2.086  24.359  0.00  0.00    +0.015 C 
ATOM     15  C   UNL     1      -1.710   2.139  23.767  0.00  0.00    +0.006 C 
ENDROOT
BRANCH  14  17
ATOM      3  O   UNL     1      -0.077  -0.213  24.249  0.00  0.00    -0.271 OA
ATOM      7  N   UNL     1       1.590   1.280  23.593  0.00  0.00    -0.300 N 
ATOM     17  C   UNL     1       0.340   0.926  24.067  0.00  0.00    +0.241 C 
ATOM     27  H   UNL     1       1.797   2.260  23.418  0.00  0.00    +0.150 HD
BRANCH   7  16
ATOM     16  C   UNL     1       2.598   0.313  23.241  0.00  0.00    +0.159 C 
BRANCH  16  23
ATOM      5  O   UNL     1       1.421  -0.589  21.314  0.00  0.00    -0.274 OA
ATOM      8  N   UNL     1       3.438   0.456  20.977  0.00  0.00    -0.328 N 
ATOM     23  C   UNL     1       2.406  -0.012  21.765  0.00  0.00    +0.231 C 
ATOM     30  H   UNL     1       3.427   0.318  19.972  0.00  0.00    +0.145 HD
ATOM     31  H   UNL     1       4.235   0.952  21.361  0.00  0.00    +0.145 HD
ENDBRANCH  16  23
BRANCH  16  18
ATOM     18  C   UNL     1       4.017   0.835  23.490  0.00  0.00    +0.034 C 
BRANCH  18  19
ATOM     19  C   UNL     1       5.012  -0.221  24.013  0.00  0.00    -0.015 C 
ATOM     21  C   UNL     1       6.328  -0.120  23.237  0.00  0.00    +0.007 C 
ATOM     22  C   UNL     1       4.461  -1.643  23.910  0.00  0.00    +0.007 C 
ENDBRANCH  18  19
ENDBRANCH  16  18
ENDBRANCH   7  16
ENDBRANCH  14  17
BRANCH  11   6
ATOM      4  O   UNL     1      -3.464   0.833  25.243  0.00  0.00    -0.276 OA
ATOM      6  N   UNL     1      -4.006   2.759  24.069  0.00  0.00    -0.306 N 
ATOM     20  C   UNL     1      -4.294   1.558  24.701  0.00  0.00    +0.215 C 
ATOM     26  H   UNL     1      -4.757   3.269  23.611  0.00  0.00    +0.149 HD
BRANCH  20  24
ATOM     24  C   UNL     1      -5.776   1.235  24.648  0.00  0.00    +0.110 C 
BRANCH  24  25
ATOM     25  C   UNL     1      -6.544   1.851  25.812  0.00  0.00    +0.087 C 
BRANCH  25   9
ATOM      9  N   UNL     1      -5.791   2.957  26.390  0.00  0.00    -0.330 NA
ATOM     32  H   UNL     1      -4.948   3.116  25.839  0.00  0.00    +0.118 HD
ATOM     33  H   UNL     1      -6.339   3.814  26.328  0.00  0.00    +0.118 HD
ENDBRANCH  25   9
ENDBRANCH  24  25
ENDBRANCH  20  24
ENDBRANCH  11   6
BRANCH  10   1
ATOM      1  O   UNL     1      -2.703   3.449  26.411  0.00  0.00    -0.387 OA
ATOM     28  H   UNL     1      -3.174   4.084  26.976  0.00  0.00    +0.210 HD
ENDBRANCH  10   1
BRANCH  12   2
ATOM      2  O   UNL     1      -0.422   5.276  24.212  0.00  0.00    -0.389 OA
ATOM     29  H   UNL     1      -0.890   4.971  23.417  0.00  0.00    +0.210 HD
ENDBRANCH  12   2
TORSDOF 11
ENDMDL
MODEL 5
REMARK VINA RESULT:      -2.6      1.996      6.158
REMARK  Name = 7049356
REMARK  13 active torsions:
REMARK  status: ('A' for Active; 'I' for Inactive)
REMARK    1  A    between atoms: O_1  and  C_10
REMARK    2  A    between atoms: O_2  and  C_12
REMARK    3  A    between atoms: N_6  and  C_11
REMARK    4  A    between atoms: N_7  and  C_16
REMARK    5  A    between atoms: N_9  and  C_25
REMARK    6  A    between atoms: C_14  and  C_17
REMARK    7  A    between atoms: C_16  and  C_18
REMARK    8  A    between atoms: C_16  and  C_23
REMARK    9  A    between atoms: C_18  and  C_19
REMARK   10  A    between atoms: C_19  and  C_21
REMARK   11  A    between atoms: C_19  and  C_22
REMARK   12  A    between atoms: C_20  and  C_24
REMARK   13  A    between atoms: C_24  and  C_25
REMARK                            x       y       z     vdW  Elec       q    Type
REMARK                         _______ _______ _______ _____ _____    ______ ____
ROOT
ATOM     10  C   UNL     1      -4.439  -2.038  24.523  0.00  0.00    +0.167 C 
ATOM     11  C   UNL     1      -4.046  -0.936  25.524  0.00  0.00    +0.127 C 
ATOM     12  C   UNL     1      -3.377  -3.143  24.456  0.00  0.00    +0.149 C 
ATOM     13  C   UNL     1      -1.983  -2.586  24.116  0.00  0.00    +0.074 C 
ATOM     14  C   UNL     1      -1.690  -1.269  24.777  0.00  0.00    +0.015 C 
ATOM     15  C   UNL     1      -2.602  -0.523  25.417  0.00  0.00    +0.006 C 
ENDROOT
BRANCH  14  17
ATOM      3  O   UNL     1       0.626  -1.505  25.027  0.00  0.00    -0.271 OA
ATOM      7  N   UNL     1      -0.233   0.558  24.359  0.00  0.00    -0.300 N 
ATOM     17  C   UNL     1      -0.313  -0.770  24.739  0.00  0.00    +0.241 C 
ATOM     27  H   UNL     1      -1.078   1.046  24.076  0.00  0.00    +0.150 HD
BRANCH   7  16
ATOM     16  C   UNL     1       1.014   1.269  24.253  0.00  0.00    +0.159 C 
BRANCH  16  23
ATOM      5  O   UNL     1       1.202   0.034  22.168  0.00  0.00    -0.274 OA
ATOM      8  N   UNL     1       3.067   1.096  22.985  0.00  0.00    -0.328 N 
ATOM     23  C   UNL     1       1.743   0.713  23.036  0.00  0.00    +0.231 C 
ATOM     30  H   UNL     1       3.663   0.805  22.218  0.00  0.00    +0.145 HD
ATOM     31  H   UNL     1       3.495   1.677  23.699  0.00  0.00    +0.145 HD
ENDBRANCH  16  23
BRANCH  16  18
ATOM     18  C   UNL     1       0.811   2.781  24.104  0.00  0.00    +0.034 C 
BRANCH  18  19
ATOM     19  C   UNL     1      -0.478   3.328  24.752  0.00  0.00    -0.015 C 
ATOM     21  C   UNL     1      -0.511   4.854  24.630  0.00  0.00    +0.007 C 
ATOM     22  C   UNL     1      -0.608   2.925  26.221  0.00  0.00    +0.007 C 
ENDBRANCH  18  19
ENDBRANCH  16  18
ENDBRANCH   7  16
ENDBRANCH  14  17
BRANCH  11   6
ATOM      4  O   UNL     1      -3.463   1.379  23.938  0.00  0.00    -0.276 OA
ATOM      6  N   UNL     1      -4.877   0.235  25.379  0.00  0.00    -0.306 N 
ATOM     20  C   UNL     1      -4.505   1.309  24.584  0.00  0.00    +0.215 C 
ATOM     26  H   UNL     1      -5.742   0.288  25.911  0.00  0.00    +0.149 HD
BRANCH  20  24
ATOM     24  C   UNL     1      -5.552   2.409  24.601  0.00  0.00    +0.110 C 
BRANCH  24  25
ATOM     25  C   UNL     1      -5.327   3.405  25.734  0.00  0.00    +0.087 C 
BRANCH  25   9
ATOM      9  N   UNL     1      -3.936   3.839  25.759  0.00  0.00    -0.330 NA
ATOM     32  H   UNL     1      -3.829   4.590  26.441  0.00  0.00    +0.118 HD
ATOM     33  H   UNL     1      -3.344   3.075  26.081  0.00  0.00    +0.118 HD
ENDBRANCH  25   9
ENDBRANCH  24  25
ENDBRANCH  20  24
ENDBRANCH  11   6
BRANCH  10   1
ATOM      1  O   UNL     1      -4.593  -1.472  23.219  0.00  0.00    -0.387 OA
ATOM     28  H   UNL     1      -5.388  -0.914  23.234  0.00  0.00    +0.210 HD
ENDBRANCH  10   1
BRANCH  12   2
ATOM      2  O   UNL     1      -3.331  -3.854  25.691  0.00  0.00    -0.389 OA
ATOM     29  H   UNL     1      -2.587  -3.501  26.207  0.00  0.00    +0.210 HD
ENDBRANCH  12   2
TORSDOF 11
ENDMDL
MODEL 6
REMARK VINA RESULT:      -2.6      2.479      4.991
REMARK  Name = 7049356
REMARK  13 active torsions:
REMARK  status: ('A' for Active; 'I' for Inactive)
REMARK    1  A    between atoms: O_1  and  C_10
REMARK    2  A    between atoms: O_2  and  C_12
REMARK    3  A    between atoms: N_6  and  C_11
REMARK    4  A    between atoms: N_7  and  C_16
REMARK    5  A    between atoms: N_9  and  C_25
REMARK    6  A    between atoms: C_14  and  C_17
REMARK    7  A    between atoms: C_16  and  C_18
REMARK    8  A    between atoms: C_16  and  C_23
REMARK    9  A    between atoms: C_18  and  C_19
REMARK   10  A    between atoms: C_19  and  C_21
REMARK   11  A    between atoms: C_19  and  C_22
REMARK   12  A    between atoms: C_20  and  C_24
REMARK   13  A    between atoms: C_24  and  C_25
REMARK                            x       y       z     vdW  Elec       q    Type
REMARK                         _______ _______ _______ _____ _____    ______ ____
ROOT
ATOM     10  C   UNL     1       0.770  -0.751  22.672  0.00  0.00    +0.167 C 
ATOM     11  C   UNL     1       0.086  -1.109  24.005  0.00  0.00    +0.127 C 
ATOM     12  C   UNL     1       1.853   0.319  22.865  0.00  0.00    +0.149 C 
ATOM     13  C   UNL     1       1.301   1.587  23.538  0.00  0.00    +0.074 C 
ATOM     14  C   UNL     1       0.296   1.299  24.617  0.00  0.00    +0.015 C 
ATOM     15  C   UNL     1      -0.250   0.095  24.843  0.00  0.00    +0.006 C 
ENDROOT
BRANCH  14  17
ATOM      3  O   UNL     1       0.633   2.772  26.407  0.00  0.00    -0.271 OA
ATOM      7  N   UNL     1      -1.345   2.919  25.182  0.00  0.00    -0.300 N 
ATOM     17  C   UNL     1      -0.103   2.400  25.499  0.00  0.00    +0.241 C 
ATOM     27  H   UNL     1      -1.834   2.573  24.360  0.00  0.00    +0.150 HD
BRANCH   7  16
ATOM     16  C   UNL     1      -1.951   4.004  25.909  0.00  0.00    +0.159 C 
BRANCH  16  23
ATOM      5  O   UNL     1      -2.216   6.328  25.244  0.00  0.00    -0.274 OA
ATOM      8  N   UNL     1      -0.353   5.189  24.531  0.00  0.00    -0.328 N 
ATOM     23  C   UNL     1      -1.558   5.292  25.197  0.00  0.00    +0.231 C 
ATOM     30  H   UNL     1       0.031   5.980  24.027  0.00  0.00    +0.145 HD
ATOM     31  H   UNL     1       0.191   4.332  24.520  0.00  0.00    +0.145 HD
ENDBRANCH  16  23
BRANCH  16  18
ATOM     18  C   UNL     1      -3.477   3.880  25.976  0.00  0.00    +0.034 C 
BRANCH  18  19
ATOM     19  C   UNL     1      -4.072   2.746  25.117  0.00  0.00    -0.015 C 
ATOM     21  C   UNL     1      -4.135   3.185  23.652  0.00  0.00    +0.007 C 
ATOM     22  C   UNL     1      -5.465   2.326  25.589  0.00  0.00    +0.007 C 
ENDBRANCH  18  19
ENDBRANCH  16  18
ENDBRANCH   7  16
ENDBRANCH  14  17
BRANCH  11   6
ATOM      4  O   UNL     1      -2.050  -1.474  25.880  0.00  0.00    -0.276 OA
ATOM      6  N   UNL     1      -1.115  -1.880  23.795  0.00  0.00    -0.306 N 
ATOM     20  C   UNL     1      -2.096  -1.998  24.770  0.00  0.00    +0.215 C 
ATOM     26  H   UNL     1      -1.223  -2.388  22.920  0.00  0.00    +0.149 HD
BRANCH  20  24
ATOM     24  C   UNL     1      -3.254  -2.860  24.301  0.00  0.00    +0.110 C 
BRANCH  24  25
ATOM     25  C   UNL     1      -4.447  -2.028  23.844  0.00  0.00    +0.087 C 
BRANCH  25   9
ATOM      9  N   UNL     1      -4.101  -0.613  23.822  0.00  0.00    -0.330 NA
ATOM     32  H   UNL     1      -4.221  -0.250  22.877  0.00  0.00    +0.118 HD
ATOM     33  H   UNL     1      -4.748  -0.092  24.411  0.00  0.00    +0.118 HD
ENDBRANCH  25   9
ENDBRANCH  24  25
ENDBRANCH  20  24
ENDBRANCH  11   6
BRANCH  10   1
ATOM      1  O   UNL     1      -0.204  -0.255  21.750  0.00  0.00    -0.387 OA
ATOM     28  H   UNL     1       0.254  -0.069  20.913  0.00  0.00    +0.210 HD
ENDBRANCH  10   1
BRANCH  12   2
ATOM      2  O   UNL     1       2.933  -0.210  23.630  0.00  0.00    -0.389 OA
ATOM     29  H   UNL     1       3.722  -0.213  23.062  0.00  0.00    +0.210 HD
ENDBRANCH  12   2
TORSDOF 11
ENDMDL
