MODEL 1
REMARK VINA RESULT:      14.4      0.000      0.000
REMARK  Name = 7113976
REMARK  6 active torsions:
REMARK  status: ('A' for Active; 'I' for Inactive)
REMARK    1  A    between atoms: S_1  and  N_11
REMARK    2  A    between atoms: S_1  and  C_25
REMARK    3  A    between atoms: N_10  and  C_24
REMARK    4  A    between atoms: N_11  and  C_22
REMARK    5  A    between atoms: C_32  and  C_36
REMARK    6  A    between atoms: C_36  and  C_37
REMARK                            x       y       z     vdW  Elec       q    Type
REMARK                         _______ _______ _______ _____ _____    ______ ____
ROOT
ATOM      3  O   UNL     1      -2.079   0.245  22.664  0.00  0.00    -0.266 OA
ATOM      4  O   UNL     1      -1.770   4.749  25.349  0.00  0.00    -0.252 OA
ATOM      8  N   UNL     1      -3.937   3.951  25.497  0.00  0.00    -0.284 N 
ATOM      9  N   UNL     1      -3.828   1.182  23.910  0.00  0.00    -0.310 N 
ATOM     10  N   UNL     1      -2.428   3.664  27.289  0.00  0.00    -0.269 N 
ATOM     12  C   UNL     1      -4.961   3.389  23.285  0.00  0.00    +0.027 C 
ATOM     13  C   UNL     1      -5.679   2.180  25.301  0.00  0.00    +0.054 C 
ATOM     14  C   UNL     1      -6.174   2.811  24.003  0.00  0.00    +0.018 C 
ATOM     15  C   UNL     1      -4.275   4.451  24.162  0.00  0.00    +0.114 C 
ATOM     16  C   UNL     1      -4.009   2.246  22.914  0.00  0.00    +0.130 C 
ATOM     17  C   UNL     1      -5.035   3.260  26.197  0.00  0.00    +0.119 C 
ATOM     18  C   UNL     1      -4.670   1.079  25.024  0.00  0.00    +0.027 A 
ATOM     19  C   UNL     1      -4.565   0.031  25.864  0.00  0.00    +0.024 A 
ATOM     20  C   UNL     1      -2.836   0.218  23.633  0.00  0.00    +0.274 A 
ATOM     21  C   UNL     1      -2.635   4.159  26.002  0.00  0.00    +0.306 C 
ATOM     22  C   UNL     1      -2.753  -0.899  24.608  0.00  0.00    +0.112 A 
ATOM     23  C   UNL     1      -3.576  -0.990  25.652  0.00  0.00    +0.031 A 
ATOM     38  H   UNL     1      -3.225   3.602  27.914  0.00  0.00    +0.156 HD
ENDROOT
BRANCH  10  24
ATOM     24  C   UNL     1      -1.196   3.270  27.868  0.00  0.00    +0.035 A 
ATOM     26  C   UNL     1      -1.032   3.323  29.249  0.00  0.00    +0.024 A 
ATOM     27  C   UNL     1      -0.157   2.834  27.051  0.00  0.00    +0.024 A 
ATOM     28  C   UNL     1       0.181   2.936  29.818  0.00  0.00    +0.013 A 
ATOM     29  C   UNL     1       1.057   2.447  27.621  0.00  0.00    +0.013 A 
ATOM     32  C   UNL     1       1.225   2.498  29.004  0.00  0.00    +0.017 A 
BRANCH  32  36
ATOM      7  O   UNL     1       2.530   1.434  30.656  0.00  0.00    -0.292 OA
ATOM     36  C   UNL     1       2.490   2.094  29.598  0.00  0.00    +0.160 C 
ATOM     37  C   UNL     1       3.808   2.475  28.935  0.00  0.00    +0.091 C 
ENDBRANCH  32  36
ENDBRANCH  10  24
BRANCH  22  11
ATOM     11  N   UNL     1      -1.796  -1.915  24.439  0.00  0.00    -0.211 N 
ATOM     39  H   UNL     1      -2.211  -2.858  24.437  0.00  0.00    +0.174 HD
BRANCH  11   1
ATOM      1  S   UNL     1      -0.362  -1.780  25.329  0.00  0.00    +0.073 S 
ATOM      5  O   UNL     1      -0.645  -1.187  26.623  0.00  0.00    -0.150 OA
ATOM      6  O   UNL     1       0.385  -3.020  25.242  0.00  0.00    -0.150 OA
BRANCH   1  25
ATOM      2  F   UNL     1       0.634   3.024  23.969  0.00  0.00    -0.205 F 
ATOM     25  C   UNL     1       0.506  -0.572  24.373  0.00  0.00    +0.111 A 
ATOM     30  C   UNL     1       0.217   0.769  24.558  0.00  0.00    +0.067 A 
ATOM     31  C   UNL     1       1.454  -0.990  23.457  0.00  0.00    +0.029 A 
ATOM     33  C   UNL     1       0.900   1.722  23.804  0.00  0.00    +0.125 A 
ATOM     34  C   UNL     1       2.137  -0.036  22.701  0.00  0.00    +0.005 A 
ATOM     35  C   UNL     1       1.860   1.320  22.875  0.00  0.00    +0.038 A 
ENDBRANCH   1  25
ENDBRANCH  11   1
ENDBRANCH  22  11
TORSDOF 5
ENDMDL
MODEL 2
REMARK VINA RESULT:      14.5      2.562      5.373
REMARK  Name = 7113976
REMARK  6 active torsions:
REMARK  status: ('A' for Active; 'I' for Inactive)
REMARK    1  A    between atoms: S_1  and  N_11
REMARK    2  A    between atoms: S_1  and  C_25
REMARK    3  A    between atoms: N_10  and  C_24
REMARK    4  A    between atoms: N_11  and  C_22
REMARK    5  A    between atoms: C_32  and  C_36
REMARK    6  A    between atoms: C_36  and  C_37
REMARK                            x       y       z     vdW  Elec       q    Type
REMARK                         _______ _______ _______ _____ _____    ______ ____
ROOT
ATOM      3  O   UNL     1      -3.019   4.281  26.997  0.00  0.00    -0.266 OA
ATOM      4  O   UNL     1      -2.770  -0.930  26.385  0.00  0.00    -0.252 OA
ATOM      8  N   UNL     1      -4.597  -0.137  25.207  0.00  0.00    -0.284 N 
ATOM      9  N   UNL     1      -4.452   3.024  25.634  0.00  0.00    -0.310 N 
ATOM     10  N   UNL     1      -2.590  -0.674  24.088  0.00  0.00    -0.269 N 
ATOM     12  C   UNL     1      -6.117   1.317  26.560  0.00  0.00    +0.027 C 
ATOM     13  C   UNL     1      -5.947   1.659  24.132  0.00  0.00    +0.054 C 
ATOM     14  C   UNL     1      -6.923   1.627  25.304  0.00  0.00    +0.018 C 
ATOM     15  C   UNL     1      -5.412  -0.043  26.421  0.00  0.00    +0.114 C 
ATOM     16  C   UNL     1      -5.124   2.458  26.811  0.00  0.00    +0.130 C 
ATOM     17  C   UNL     1      -5.279   0.278  23.968  0.00  0.00    +0.119 C 
ATOM     18  C   UNL     1      -4.881   2.721  24.336  0.00  0.00    +0.027 A 
ATOM     19  C   UNL     1      -4.329   3.339  23.275  0.00  0.00    +0.024 A 
ATOM     20  C   UNL     1      -3.426   3.961  25.882  0.00  0.00    +0.274 A 
ATOM     21  C   UNL     1      -3.267  -0.602  25.305  0.00  0.00    +0.306 C 
ATOM     22  C   UNL     1      -2.841   4.590  24.671  0.00  0.00    +0.112 A 
ATOM     23  C   UNL     1      -3.276   4.303  23.444  0.00  0.00    +0.031 A 
ATOM     38  H   UNL     1      -3.133  -0.822  23.244  0.00  0.00    +0.156 HD
ENDROOT
BRANCH  10  24
ATOM     24  C   UNL     1      -1.189  -0.614  23.882  0.00  0.00    +0.035 A 
ATOM     26  C   UNL     1      -0.663   0.279  22.953  0.00  0.00    +0.024 A 
ATOM     27  C   UNL     1      -0.347  -1.450  24.611  0.00  0.00    +0.024 A 
ATOM     28  C   UNL     1       0.716   0.337  22.750  0.00  0.00    +0.013 A 
ATOM     29  C   UNL     1       1.032  -1.391  24.408  0.00  0.00    +0.013 A 
ATOM     32  C   UNL     1       1.563  -0.498  23.478  0.00  0.00    +0.017 A 
BRANCH  32  36
ATOM      7  O   UNL     1       3.745  -1.388  23.580  0.00  0.00    -0.292 OA
ATOM     36  C   UNL     1       3.000  -0.437  23.267  0.00  0.00    +0.160 C 
ATOM     37  C   UNL     1       3.636   0.805  22.654  0.00  0.00    +0.091 C 
ENDBRANCH  32  36
ENDBRANCH  10  24
BRANCH  22  11
ATOM     11  N   UNL     1      -1.806   5.534  24.794  0.00  0.00    -0.211 N 
ATOM     39  H   UNL     1      -2.048   6.447  24.384  0.00  0.00    +0.174 HD
BRANCH  11   1
ATOM      1  S   UNL     1      -0.235   5.004  24.451  0.00  0.00    +0.073 S 
ATOM      5  O   UNL     1      -0.182   4.476  23.100  0.00  0.00    -0.150 OA
ATOM      6  O   UNL     1       0.722   6.005  24.883  0.00  0.00    -0.150 OA
BRANCH   1  25
ATOM      2  F   UNL     1       1.629   2.735  28.610  0.00  0.00    -0.205 F 
ATOM     25  C   UNL     1      -0.102   3.632  25.559  0.00  0.00    +0.111 A 
ATOM     30  C   UNL     1       0.726   3.736  26.663  0.00  0.00    +0.067 A 
ATOM     31  C   UNL     1      -0.824   2.482  25.299  0.00  0.00    +0.029 A 
ATOM     33  C   UNL     1       0.832   2.654  27.537  0.00  0.00    +0.125 A 
ATOM     34  C   UNL     1      -0.717   1.399  26.173  0.00  0.00    +0.005 A 
ATOM     35  C   UNL     1       0.111   1.485  27.291  0.00  0.00    +0.038 A 
ENDBRANCH   1  25
ENDBRANCH  11   1
ENDBRANCH  22  11
TORSDOF 5
ENDMDL
MODEL 3
REMARK VINA RESULT:      15.0      3.307      6.518
REMARK  Name = 7113976
REMARK  6 active torsions:
REMARK  status: ('A' for Active; 'I' for Inactive)
REMARK    1  A    between atoms: S_1  and  N_11
REMARK    2  A    between atoms: S_1  and  C_25
REMARK    3  A    between atoms: N_10  and  C_24
REMARK    4  A    between atoms: N_11  and  C_22
REMARK    5  A    between atoms: C_32  and  C_36
REMARK    6  A    between atoms: C_36  and  C_37
REMARK                            x       y       z     vdW  Elec       q    Type
REMARK                         _______ _______ _______ _____ _____    ______ ____
ROOT
ATOM      3  O   UNL     1      -1.966   2.381  26.366  0.00  0.00    -0.266 OA
ATOM      4  O   UNL     1       0.384  -2.302  25.988  0.00  0.00    -0.252 OA
ATOM      8  N   UNL     1      -1.486  -2.304  24.625  0.00  0.00    -0.284 N 
ATOM      9  N   UNL     1      -2.646   0.655  24.936  0.00  0.00    -0.310 N 
ATOM     10  N   UNL     1       0.667  -2.000  23.707  0.00  0.00    -0.269 N 
ATOM     12  C   UNL     1      -3.580  -1.572  25.780  0.00  0.00    +0.027 C 
ATOM     13  C   UNL     1      -3.327  -1.196  23.365  0.00  0.00    +0.054 C 
ATOM     14  C   UNL     1      -4.318  -1.611  24.448  0.00  0.00    +0.018 C 
ATOM     15  C   UNL     1      -2.384  -2.540  25.758  0.00  0.00    +0.114 C 
ATOM     16  C   UNL     1      -3.149  -0.130  26.071  0.00  0.00    +0.130 C 
ATOM     17  C   UNL     1      -2.154  -2.198  23.315  0.00  0.00    +0.119 C 
ATOM     18  C   UNL     1      -2.793   0.203  23.618  0.00  0.00    +0.027 A 
ATOM     19  C   UNL     1      -2.433   0.987  22.585  0.00  0.00    +0.024 A 
ATOM     20  C   UNL     1      -2.105   1.923  25.233  0.00  0.00    +0.274 A 
ATOM     21  C   UNL     1      -0.096  -2.201  24.857  0.00  0.00    +0.306 C 
ATOM     22  C   UNL     1      -1.703   2.730  24.054  0.00  0.00    +0.112 A 
ATOM     23  C   UNL     1      -1.869   2.291  22.806  0.00  0.00    +0.031 A 
ATOM     38  H   UNL     1       0.310  -2.355  22.826  0.00  0.00    +0.156 HD
ENDROOT
BRANCH  10  24
ATOM     24  C   UNL     1       1.942  -1.388  23.622  0.00  0.00    +0.035 A 
ATOM     26  C   UNL     1       2.059  -0.103  23.103  0.00  0.00    +0.024 A 
ATOM     27  C   UNL     1       3.070  -2.078  24.057  0.00  0.00    +0.024 A 
ATOM     28  C   UNL     1       3.315   0.499  23.018  0.00  0.00    +0.013 A 
ATOM     29  C   UNL     1       4.326  -1.476  23.973  0.00  0.00    +0.013 A 
ATOM     32  C   UNL     1       4.448  -0.188  23.454  0.00  0.00    +0.017 A 
BRANCH  32  36
ATOM      7  O   UNL     1       5.942   1.615  23.743  0.00  0.00    -0.292 OA
ATOM     36  C   UNL     1       5.757   0.440  23.366  0.00  0.00    +0.160 C 
ATOM     37  C   UNL     1       6.945  -0.332  22.803  0.00  0.00    +0.091 C 
ENDBRANCH  32  36
ENDBRANCH  10  24
BRANCH  22  11
ATOM     11  N   UNL     1      -1.143   4.008  24.228  0.00  0.00    -0.211 N 
ATOM     39  H   UNL     1      -0.279   3.991  24.788  0.00  0.00    +0.174 HD
BRANCH  11   1
ATOM      1  S   UNL     1      -2.205   5.269  24.613  0.00  0.00    +0.073 S 
ATOM      5  O   UNL     1      -1.683   6.021  25.738  0.00  0.00    -0.150 OA
ATOM      6  O   UNL     1      -2.607   5.955  23.399  0.00  0.00    -0.150 OA
BRANCH   1  25
ATOM      2  F   UNL     1      -6.167   2.154  23.892  0.00  0.00    -0.205 F 
ATOM     25  C   UNL     1      -3.604   4.356  25.192  0.00  0.00    +0.111 A 
ATOM     30  C   UNL     1      -4.339   3.605  24.292  0.00  0.00    +0.067 A 
ATOM     31  C   UNL     1      -3.938   4.412  26.533  0.00  0.00    +0.029 A 
ATOM     33  C   UNL     1      -5.443   2.886  24.749  0.00  0.00    +0.125 A 
ATOM     34  C   UNL     1      -5.043   3.693  26.990  0.00  0.00    +0.005 A 
ATOM     35  C   UNL     1      -5.796   2.930  26.098  0.00  0.00    +0.038 A 
ENDBRANCH   1  25
ENDBRANCH  11   1
ENDBRANCH  22  11
TORSDOF 5
ENDMDL
MODEL 4
REMARK VINA RESULT:      16.0      2.932      5.854
REMARK  Name = 7113976
REMARK  6 active torsions:
REMARK  status: ('A' for Active; 'I' for Inactive)
REMARK    1  A    between atoms: S_1  and  N_11
REMARK    2  A    between atoms: S_1  and  C_25
REMARK    3  A    between atoms: N_10  and  C_24
REMARK    4  A    between atoms: N_11  and  C_22
REMARK    5  A    between atoms: C_32  and  C_36
REMARK    6  A    between atoms: C_36  and  C_37
REMARK                            x       y       z     vdW  Elec       q    Type
REMARK                         _______ _______ _______ _____ _____    ______ ____
ROOT
ATOM      3  O   UNL     1      -0.023   2.474  26.379  0.00  0.00    -0.266 OA
ATOM      4  O   UNL     1      -4.724   0.142  26.623  0.00  0.00    -0.252 OA
ATOM      8  N   UNL     1      -4.950   2.133  25.466  0.00  0.00    -0.284 N 
ATOM      9  N   UNL     1      -1.970   3.277  25.351  0.00  0.00    -0.310 N 
ATOM     10  N   UNL     1      -4.838   0.080  24.309  0.00  0.00    -0.269 N 
ATOM     12  C   UNL     1      -4.000   4.112  26.665  0.00  0.00    +0.027 C 
ATOM     13  C   UNL     1      -4.064   4.093  24.208  0.00  0.00    +0.054 C 
ATOM     14  C   UNL     1      -4.268   4.974  25.437  0.00  0.00    +0.018 C 
ATOM     15  C   UNL     1      -4.969   2.918  26.703  0.00  0.00    +0.114 C 
ATOM     16  C   UNL     1      -2.533   3.665  26.650  0.00  0.00    +0.130 C 
ATOM     17  C   UNL     1      -5.071   2.924  24.228  0.00  0.00    +0.119 C 
ATOM     18  C   UNL     1      -2.648   3.546  24.155  0.00  0.00    +0.027 A 
ATOM     19  C   UNL     1      -2.065   3.290  22.969  0.00  0.00    +0.024 A 
ATOM     20  C   UNL     1      -0.675   2.717  25.364  0.00  0.00    +0.274 A 
ATOM     21  C   UNL     1      -4.822   0.729  25.543  0.00  0.00    +0.306 C 
ATOM     22  C   UNL     1      -0.096   2.435  24.026  0.00  0.00    +0.112 A 
ATOM     23  C   UNL     1      -0.749   2.716  22.899  0.00  0.00    +0.031 A 
ATOM     38  H   UNL     1      -5.340   0.516  23.543  0.00  0.00    +0.156 HD
ENDROOT
BRANCH  10  24
ATOM     24  C   UNL     1      -4.265  -1.178  23.995  0.00  0.00    +0.035 A 
ATOM     26  C   UNL     1      -5.057  -2.181  23.444  0.00  0.00    +0.024 A 
ATOM     27  C   UNL     1      -2.914  -1.403  24.241  0.00  0.00    +0.024 A 
ATOM     28  C   UNL     1      -4.493  -3.419  23.135  0.00  0.00    +0.013 A 
ATOM     29  C   UNL     1      -2.350  -2.641  23.933  0.00  0.00    +0.013 A 
ATOM     32  C   UNL     1      -3.139  -3.649  23.380  0.00  0.00    +0.017 A 
BRANCH  32  36
ATOM      7  O   UNL     1      -3.240  -5.979  23.031  0.00  0.00    -0.292 OA
ATOM     36  C   UNL     1      -2.551  -4.939  23.058  0.00  0.00    +0.160 C 
ATOM     37  C   UNL     1      -1.063  -5.051  22.746  0.00  0.00    +0.091 C 
ENDBRANCH  32  36
ENDBRANCH  10  24
BRANCH  22  11
ATOM     11  N   UNL     1       1.187   1.869  23.916  0.00  0.00    -0.211 N 
ATOM     39  H   UNL     1       1.878   2.522  23.522  0.00  0.00    +0.174 HD
BRANCH  11   1
ATOM      1  S   UNL     1       1.283   0.292  23.308  0.00  0.00    +0.073 S 
ATOM      5  O   UNL     1       0.659  -0.630  24.239  0.00  0.00    -0.150 OA
ATOM      6  O   UNL     1       0.902   0.285  21.908  0.00  0.00    -0.150 OA
BRANCH   1  25
ATOM      2  F   UNL     1       5.349  -2.656  24.143  0.00  0.00    -0.205 F 
ATOM     25  C   UNL     1       3.028   0.017  23.382  0.00  0.00    +0.111 A 
ATOM     30  C   UNL     1       3.499  -1.234  23.739  0.00  0.00    +0.067 A 
ATOM     31  C   UNL     1       3.889   1.058  23.084  0.00  0.00    +0.029 A 
ATOM     33  C   UNL     1       4.875  -1.452  23.799  0.00  0.00    +0.125 A 
ATOM     34  C   UNL     1       5.266   0.841  23.145  0.00  0.00    +0.005 A 
ATOM     35  C   UNL     1       5.759  -0.414  23.502  0.00  0.00    +0.038 A 
ENDBRANCH   1  25
ENDBRANCH  11   1
ENDBRANCH  22  11
TORSDOF 5
ENDMDL
MODEL 5
REMARK VINA RESULT:      16.3      2.552      5.594
REMARK  Name = 7113976
REMARK  6 active torsions:
REMARK  status: ('A' for Active; 'I' for Inactive)
REMARK    1  A    between atoms: S_1  and  N_11
REMARK    2  A    between atoms: S_1  and  C_25
REMARK    3  A    between atoms: N_10  and  C_24
REMARK    4  A    between atoms: N_11  and  C_22
REMARK    5  A    between atoms: C_32  and  C_36
REMARK    6  A    between atoms: C_36  and  C_37
REMARK                            x       y       z     vdW  Elec       q    Type
REMARK                         _______ _______ _______ _____ _____    ______ ____
ROOT
ATOM      3  O   UNL     1      -2.957   2.764  26.290  0.00  0.00    -0.266 OA
ATOM      4  O   UNL     1      -0.589  -1.905  25.852  0.00  0.00    -0.252 OA
ATOM      8  N   UNL     1      -2.508  -1.929  24.559  0.00  0.00    -0.284 N 
ATOM      9  N   UNL     1      -3.677   1.024  24.895  0.00  0.00    -0.310 N 
ATOM     10  N   UNL     1      -0.393  -1.616  23.561  0.00  0.00    -0.269 N 
ATOM     12  C   UNL     1      -4.563  -1.204  25.787  0.00  0.00    +0.027 C 
ATOM     13  C   UNL     1      -4.402  -0.841  23.361  0.00  0.00    +0.054 C 
ATOM     14  C   UNL     1      -5.350  -1.256  24.483  0.00  0.00    +0.018 C 
ATOM     15  C   UNL     1      -3.362  -2.163  25.726  0.00  0.00    +0.114 C 
ATOM     16  C   UNL     1      -4.132   0.243  26.053  0.00  0.00    +0.130 C 
ATOM     17  C   UNL     1      -3.225  -1.835  23.275  0.00  0.00    +0.119 C 
ATOM     18  C   UNL     1      -3.869   0.563  23.587  0.00  0.00    +0.027 A 
ATOM     19  C   UNL     1      -3.552   1.344  22.536  0.00  0.00    +0.024 A 
ATOM     20  C   UNL     1      -3.134   2.298  25.165  0.00  0.00    +0.274 A 
ATOM     21  C   UNL     1      -1.112  -1.815  24.739  0.00  0.00    +0.306 C 
ATOM     22  C   UNL     1      -2.782   3.100  23.967  0.00  0.00    +0.112 A 
ATOM     23  C   UNL     1      -2.990   2.653  22.729  0.00  0.00    +0.031 A 
ATOM     38  H   UNL     1      -0.779  -1.978  22.695  0.00  0.00    +0.156 HD
ENDROOT
BRANCH  10  24
ATOM     24  C   UNL     1       0.874  -0.996  23.425  0.00  0.00    +0.035 A 
ATOM     26  C   UNL     1       0.970   0.259  22.831  0.00  0.00    +0.024 A 
ATOM     27  C   UNL     1       2.015  -1.646  23.886  0.00  0.00    +0.024 A 
ATOM     28  C   UNL     1       2.218   0.869  22.697  0.00  0.00    +0.013 A 
ATOM     29  C   UNL     1       3.263  -1.036  23.752  0.00  0.00    +0.013 A 
ATOM     32  C   UNL     1       3.364   0.221  23.158  0.00  0.00    +0.017 A 
BRANCH  32  36
ATOM      7  O   UNL     1       4.779   2.007  22.549  0.00  0.00    -0.292 OA
ATOM     36  C   UNL     1       4.664   0.857  23.019  0.00  0.00    +0.160 C 
ATOM     37  C   UNL     1       5.929   0.123  23.446  0.00  0.00    +0.091 C 
ENDBRANCH  32  36
ENDBRANCH  10  24
BRANCH  22  11
ATOM     11  N   UNL     1      -2.224   4.383  24.114  0.00  0.00    -0.211 N 
ATOM     39  H   UNL     1      -2.626   5.070  23.459  0.00  0.00    +0.174 HD
BRANCH  11   1
ATOM      1  S   UNL     1      -0.543   4.478  24.287  0.00  0.00    +0.073 S 
ATOM      5  O   UNL     1       0.098   4.098  23.042  0.00  0.00    -0.150 OA
ATOM      6  O   UNL     1      -0.190   5.725  24.940  0.00  0.00    -0.150 OA
BRANCH   1  25
ATOM      2  F   UNL     1       0.876   2.746  28.859  0.00  0.00    -0.205 F 
ATOM     25  C   UNL     1      -0.258   3.175  25.448  0.00  0.00    +0.111 A 
ATOM     30  C   UNL     1       0.203   3.489  26.714  0.00  0.00    +0.067 A 
ATOM     31  C   UNL     1      -0.498   1.867  25.067  0.00  0.00    +0.029 A 
ATOM     33  C   UNL     1       0.429   2.462  27.629  0.00  0.00    +0.125 A 
ATOM     34  C   UNL     1      -0.272   0.839  25.982  0.00  0.00    +0.005 A 
ATOM     35  C   UNL     1       0.192   1.136  27.263  0.00  0.00    +0.038 A 
ENDBRANCH   1  25
ENDBRANCH  11   1
ENDBRANCH  22  11
TORSDOF 5
ENDMDL
MODEL 6
REMARK VINA RESULT:      17.8      2.156      2.681
REMARK  Name = 7113976
REMARK  6 active torsions:
REMARK  status: ('A' for Active; 'I' for Inactive)
REMARK    1  A    between atoms: S_1  and  N_11
REMARK    2  A    between atoms: S_1  and  C_25
REMARK    3  A    between atoms: N_10  and  C_24
REMARK    4  A    between atoms: N_11  and  C_22
REMARK    5  A    between atoms: C_32  and  C_36
REMARK    6  A    between atoms: C_36  and  C_37
REMARK                            x       y       z     vdW  Elec       q    Type
REMARK                         _______ _______ _______ _____ _____    ______ ____
ROOT
ATOM      3  O   UNL     1      -0.795   1.104  22.070  0.00  0.00    -0.266 OA
ATOM      4  O   UNL     1      -1.950   4.593  25.823  0.00  0.00    -0.252 OA
ATOM      8  N   UNL     1      -3.584   2.955  25.812  0.00  0.00    -0.284 N 
ATOM      9  N   UNL     1      -2.595   0.920  23.559  0.00  0.00    -0.310 N 
ATOM     10  N   UNL     1      -1.867   2.925  27.430  0.00  0.00    -0.269 N 
ATOM     12  C   UNL     1      -4.579   2.534  23.557  0.00  0.00    +0.027 C 
ATOM     13  C   UNL     1      -4.492   0.715  25.207  0.00  0.00    +0.054 C 
ATOM     14  C   UNL     1      -5.360   1.358  24.130  0.00  0.00    +0.018 C 
ATOM     15  C   UNL     1      -4.263   3.556  24.662  0.00  0.00    +0.114 C 
ATOM     16  C   UNL     1      -3.310   2.007  22.878  0.00  0.00    +0.130 C 
ATOM     17  C   UNL     1      -4.218   1.731  26.336  0.00  0.00    +0.119 C 
ATOM     18  C   UNL     1      -3.175   0.227  24.629  0.00  0.00    +0.027 A 
ATOM     19  C   UNL     1      -2.555  -0.842  25.165  0.00  0.00    +0.024 A 
ATOM     20  C   UNL     1      -1.347   0.546  23.017  0.00  0.00    +0.274 A 
ATOM     21  C   UNL     1      -2.417   3.566  26.321  0.00  0.00    +0.306 C 
ATOM     22  C   UNL     1      -0.702  -0.623  23.666  0.00  0.00    +0.112 A 
ATOM     23  C   UNL     1      -1.279  -1.282  24.671  0.00  0.00    +0.031 A 
ATOM     38  H   UNL     1      -2.486   2.398  28.037  0.00  0.00    +0.156 HD
ENDROOT
BRANCH  10  24
ATOM     24  C   UNL     1      -0.516   2.960  27.857  0.00  0.00    +0.035 A 
ATOM     26  C   UNL     1      -0.218   2.927  29.215  0.00  0.00    +0.024 A 
ATOM     27  C   UNL     1       0.506   3.028  26.913  0.00  0.00    +0.024 A 
ATOM     28  C   UNL     1       1.113   2.962  29.635  0.00  0.00    +0.013 A 
ATOM     29  C   UNL     1       1.836   3.063  27.333  0.00  0.00    +0.013 A 
ATOM     32  C   UNL     1       2.139   3.030  28.693  0.00  0.00    +0.017 A 
BRANCH  32  36
ATOM      7  O   UNL     1       3.920   3.897  29.973  0.00  0.00    -0.292 OA
ATOM     36  C   UNL     1       3.525   3.066  29.131  0.00  0.00    +0.160 C 
ATOM     37  C   UNL     1       4.538   2.080  28.561  0.00  0.00    +0.091 C 
ENDBRANCH  32  36
ENDBRANCH  10  24
BRANCH  22  11
ATOM     11  N   UNL     1       0.548  -1.082  23.215  0.00  0.00    -0.211 N 
ATOM     39  H   UNL     1       1.028  -1.676  23.907  0.00  0.00    +0.174 HD
BRANCH  11   1
ATOM      1  S   UNL     1       1.548   0.043  22.440  0.00  0.00    +0.073 S 
ATOM      5  O   UNL     1       1.591  -0.242  21.017  0.00  0.00    -0.150 OA
ATOM      6  O   UNL     1       1.234   1.379  22.909  0.00  0.00    -0.150 OA
BRANCH   1  25
ATOM      2  F   UNL     1       6.351   1.117  23.743  0.00  0.00    -0.205 F 
ATOM     25  C   UNL     1       3.123  -0.397  23.114  0.00  0.00    +0.111 A 
ATOM     30  C   UNL     1       4.125   0.555  23.160  0.00  0.00    +0.067 A 
ATOM     31  C   UNL     1       3.322  -1.685  23.578  0.00  0.00    +0.029 A 
ATOM     33  C   UNL     1       5.368   0.208  23.691  0.00  0.00    +0.125 A 
ATOM     34  C   UNL     1       4.566  -2.032  24.108  0.00  0.00    +0.005 A 
ATOM     35  C   UNL     1       5.588  -1.085  24.164  0.00  0.00    +0.038 A 
ENDBRANCH   1  25
ENDBRANCH  11   1
ENDBRANCH  22  11
TORSDOF 5
ENDMDL
