MODEL 1
REMARK VINA RESULT:       4.4      0.000      0.000
REMARK  Name = 45361433
REMARK  10 active torsions:
REMARK  status: ('A' for Active; 'I' for Inactive)
REMARK    1  A    between atoms: O_1  and  C_10
REMARK    2  A    between atoms: N_4  and  C_14
REMARK    3  A    between atoms: N_5  and  C_23
REMARK    4  A    between atoms: C_7  and  C_17
REMARK    5  A    between atoms: C_9  and  C_19
REMARK    6  A    between atoms: C_12  and  C_18
REMARK    7  A    between atoms: C_18  and  C_20
REMARK    8  A    between atoms: C_18  and  C_21
REMARK    9  A    between atoms: C_22  and  C_26
REMARK   10  A    between atoms: C_34  and  C_35
REMARK                            x       y       z     vdW  Elec       q    Type
REMARK                         _______ _______ _______ _____ _____    ______ ____
ROOT
ATOM      7  C   UNL     1      -2.788  -1.122  25.107  0.00  0.00    -0.027 C 
ATOM      8  C   UNL     1      -2.439   0.031  24.109  0.00  0.00    +0.028 C 
ATOM      9  C   UNL     1      -0.891   0.294  24.077  0.00  0.00    +0.012 C 
ATOM     10  C   UNL     1      -3.325   1.285  24.364  0.00  0.00    +0.122 C 
ATOM     11  C   UNL     1      -4.302  -1.431  25.030  0.00  0.00    +0.007 C 
ATOM     12  C   UNL     1      -4.835   0.950  24.389  0.00  0.00    +0.029 C 
ATOM     13  C   UNL     1      -2.025  -2.400  24.688  0.00  0.00    +0.009 C 
ATOM     14  C   UNL     1      -0.129  -1.016  23.728  0.00  0.00    +0.076 C 
ATOM     15  C   UNL     1      -5.172  -0.215  25.318  0.00  0.00    +0.007 C 
ATOM     16  C   UNL     1      -0.518  -2.199  24.614  0.00  0.00    +0.023 C 
ATOM     17  C   UNL     1      -2.426  -0.770  26.573  0.00  0.00    +0.011 C 
ATOM     19  C   UNL     1      -0.473   1.399  23.093  0.00  0.00    +0.010 C 
ENDROOT
BRANCH  14   4
ATOM      3  O   UNL     1       1.626  -0.292  21.575  0.00  0.00    -0.270 OA
ATOM      4  N   UNL     1       1.306  -0.838  23.804  0.00  0.00    -0.308 N 
ATOM     22  C   UNL     1       2.067  -0.487  22.704  0.00  0.00    +0.244 C 
ATOM     36  H   UNL     1       1.753  -1.095  24.678  0.00  0.00    +0.149 HD
BRANCH  22  26
ATOM     26  C   UNL     1       3.529  -0.369  22.941  0.00  0.00    +0.037 A 
ATOM     30  C   UNL     1       4.213  -1.388  23.605  0.00  0.00    +0.014 A 
ATOM     31  C   UNL     1       4.219   0.761  22.500  0.00  0.00    +0.014 A 
ATOM     32  C   UNL     1       5.586  -1.278  23.826  0.00  0.00    +0.019 A 
ATOM     33  C   UNL     1       5.591   0.871  22.723  0.00  0.00    +0.019 A 
ATOM     34  C   UNL     1       6.275  -0.148  23.385  0.00  0.00    +0.052 A 
BRANCH  34  35
ATOM      6  N   UNL     1       8.823   0.057  23.797  0.00  0.00    -0.191 NA
ATOM     35  C   UNL     1       7.681  -0.035  23.613  0.00  0.00    +0.099 C 
ENDBRANCH  34  35
ENDBRANCH  22  26
ENDBRANCH  14   4
BRANCH  10   1
ATOM      1  O   UNL     1      -3.133   2.227  23.307  0.00  0.00    -0.391 OA
ATOM     37  H   UNL     1      -3.956   2.733  23.198  0.00  0.00    +0.210 HD
ENDBRANCH  10   1
BRANCH  12  18
ATOM     18  C   UNL     1      -5.681   2.172  24.770  0.00  0.00    +0.077 C 
ATOM     20  C   UNL     1      -5.972   3.014  23.533  0.00  0.00    +0.017 C 
BRANCH  18  21
ATOM      2  O   UNL     1      -5.383   3.081  26.994  0.00  0.00    -0.276 OA
ATOM      5  N   UNL     1      -3.811   3.592  25.368  0.00  0.00    -0.312 N 
ATOM     21  C   UNL     1      -4.964   2.986  25.843  0.00  0.00    +0.216 C 
ATOM     38  H   UNL     1      -3.528   3.443  24.405  0.00  0.00    +0.149 HD
BRANCH   5  23
ATOM     23  C   UNL     1      -2.962   4.417  26.199  0.00  0.00    +0.073 C 
ATOM     24  C   UNL     1      -2.003   3.559  27.032  0.00  0.00    +0.022 C 
ATOM     25  C   UNL     1      -2.199   5.444  25.357  0.00  0.00    +0.022 C 
ATOM     27  C   UNL     1      -0.901   2.923  26.184  0.00  0.00    +0.002 C 
ATOM     28  C   UNL     1      -1.096   4.805  24.512  0.00  0.00    +0.002 C 
ATOM     29  C   UNL     1      -0.149   3.966  25.364  0.00  0.00    +0.000 C 
ENDBRANCH   5  23
ENDBRANCH  18  21
ENDBRANCH  12  18
TORSDOF 7
ENDMDL
