MODEL 1
REMARK VINA RESULT:       0.1      0.000      0.000
REMARK  Name = 45783654
REMARK  7 active torsions:
REMARK  status: ('A' for Active; 'I' for Inactive)
REMARK    1  A    between atoms: O_2  and  C_26
REMARK    2  A    between atoms: N_4  and  C_14
REMARK    3  A    between atoms: N_8  and  C_28
REMARK    4  A    between atoms: C_10  and  C_15
REMARK    5  A    between atoms: C_14  and  C_16
REMARK    6  A    between atoms: C_19  and  C_22
REMARK    7  A    between atoms: C_23  and  C_26
REMARK                            x       y       z     vdW  Elec       q    Type
REMARK                         _______ _______ _______ _____ _____    ______ ____
ROOT
ATOM      4  N   UNL     1      -4.882   2.412  25.614  0.00  0.00    -0.287 NA
ATOM     10  C   UNL     1      -4.741   2.945  24.244  0.00  0.00    +0.146 C 
ATOM     11  C   UNL     1      -4.804   4.475  24.410  0.00  0.00    +0.030 C 
ATOM     12  C   UNL     1      -5.044   4.704  25.896  0.00  0.00    +0.017 C 
ATOM     13  C   UNL     1      -5.660   3.401  26.363  0.00  0.00    +0.085 C 
ENDROOT
BRANCH  10  15
ATOM      1  O   UNL     1      -3.460   2.501  22.210  0.00  0.00    -0.336 OA
ATOM      5  N   UNL     1      -2.350   2.059  24.103  0.00  0.00    -0.190 NA
ATOM      6  N   UNL     1      -2.197   2.038  21.821  0.00  0.00    -0.056 NA
ATOM     15  C   UNL     1      -3.467   2.483  23.569  0.00  0.00    +0.245 A 
ATOM     19  C   UNL     1      -1.602   1.798  22.993  0.00  0.00    +0.204 A 
BRANCH  19  22
ATOM      7  N   UNL     1       2.011   1.612  23.855  0.00  0.00    -0.237 NA
ATOM     22  C   UNL     1      -0.260   1.298  23.088  0.00  0.00    +0.041 A 
ATOM     24  C   UNL     1       0.088   0.070  22.536  0.00  0.00    +0.017 A 
ATOM     25  C   UNL     1       0.729   2.024  23.731  0.00  0.00    +0.124 A 
ATOM     27  C   UNL     1       1.397  -0.388  22.643  0.00  0.00    +0.047 A 
ATOM     28  C   UNL     1       2.312   0.414  23.306  0.00  0.00    +0.139 A 
BRANCH  28   8
ATOM      8  N   UNL     1       3.618  -0.038  23.414  0.00  0.00    -0.290 N 
ATOM      9  N   UNL     1       5.319  -1.413  23.800  0.00  0.00    -0.244 NA
ATOM     29  C   UNL     1       4.749   0.685  23.158  0.00  0.00    +0.114 A 
ATOM     30  C   UNL     1       4.011  -1.291  23.795  0.00  0.00    +0.205 A 
ATOM     31  C   UNL     1       5.785  -0.184  23.404  0.00  0.00    +0.130 A 
ENDBRANCH  28   8
ENDBRANCH  19  22
ENDBRANCH  10  15
BRANCH   4  14
ATOM     14  C   UNL     1      -5.491   1.089  25.655  0.00  0.00    +0.120 C 
BRANCH  14  16
ATOM     16  C   UNL     1      -4.511   0.009  25.283  0.00  0.00    -0.033 A 
ATOM     17  C   UNL     1      -4.711  -0.745  24.127  0.00  0.00    +0.006 A 
ATOM     18  C   UNL     1      -3.403  -0.237  26.093  0.00  0.00    +0.006 A 
ATOM     20  C   UNL     1      -3.803  -1.746  23.782  0.00  0.00    +0.015 A 
ATOM     21  C   UNL     1      -2.495  -1.239  25.749  0.00  0.00    +0.015 A 
ATOM     23  C   UNL     1      -2.695  -1.993  24.592  0.00  0.00    +0.059 A 
BRANCH  23  26
ATOM      3  O   UNL     1      -1.886  -3.839  23.303  0.00  0.00    -0.245 OA
ATOM     26  C   UNL     1      -1.748  -3.036  24.232  0.00  0.00    +0.337 C 
BRANCH  26   2
ATOM      2  O   UNL     1      -0.653  -3.047  25.042  0.00  0.00    -0.477 OA
ATOM     32  H   UNL     1       0.134  -2.671  24.595  0.00  0.00    +0.295 HD
ENDBRANCH  26   2
ENDBRANCH  23  26
ENDBRANCH  14  16
ENDBRANCH   4  14
TORSDOF 7
ENDMDL
