MODEL 1
REMARK VINA RESULT:      11.3      0.000      0.000
REMARK  Name = 7050310
REMARK  7 active torsions:
REMARK  status: ('A' for Active; 'I' for Inactive)
REMARK    1  A    between atoms: N_6  and  C_17
REMARK    2  A    between atoms: N_7  and  C_12
REMARK    3  A    between atoms: C_18  and  C_24
REMARK    4  A    between atoms: C_21  and  C_25
REMARK    5  A    between atoms: C_25  and  C_27
REMARK    6  A    between atoms: C_25  and  C_28
REMARK    7  A    between atoms: C_26  and  C_29
REMARK                            x       y       z     vdW  Elec       q    Type
REMARK                         _______ _______ _______ _____ _____    ______ ____
ROOT
ATOM      2  O   UNL     1       0.991   1.596  25.668  0.00  0.00    -0.273 OA
ATOM      3  O   UNL     1       0.199  -0.834  21.792  0.00  0.00    -0.252 OA
ATOM      5  N   UNL     1      -1.163   0.183  23.371  0.00  0.00    -0.273 N 
ATOM      6  N   UNL     1       1.052   0.380  23.637  0.00  0.00    -0.193 N 
ATOM     10  C   UNL     1      -1.046   0.931  24.593  0.00  0.00    +0.166 C 
ATOM     11  C   UNL     1      -1.715   0.195  25.748  0.00  0.00    +0.054 C 
ATOM     12  C   UNL     1      -3.144  -0.251  25.389  0.00  0.00    +0.077 C 
ATOM     13  C   UNL     1      -3.176  -1.016  24.055  0.00  0.00    +0.041 C 
ATOM     14  C   UNL     1      -2.476  -0.253  22.928  0.00  0.00    +0.112 C 
ATOM     15  C   UNL     1       0.464   1.011  24.730  0.00  0.00    +0.248 C 
ATOM     16  C   UNL     1       0.067  -0.152  22.801  0.00  0.00    +0.316 C 
ENDROOT
BRANCH   6  17
ATOM     17  C   UNL     1       2.462   0.268  23.414  0.00  0.00    +0.045 A 
ATOM     19  C   UNL     1       3.139  -0.897  23.782  0.00  0.00    +0.024 A 
ATOM     20  C   UNL     1       3.167   1.323  22.828  0.00  0.00    +0.024 A 
ATOM     21  C   UNL     1       5.213   0.047  22.979  0.00  0.00    -0.045 A 
ATOM     22  C   UNL     1       4.513  -1.007  23.565  0.00  0.00    +0.006 A 
ATOM     23  C   UNL     1       4.540   1.212  22.611  0.00  0.00    +0.006 A 
BRANCH  21  25
ATOM     25  C   UNL     1       6.681  -0.070  22.747  0.00  0.00    +0.013 C 
ATOM     27  C   UNL     1       7.110  -1.509  22.399  0.00  0.00    +0.012 C 
ATOM     28  C   UNL     1       7.509   0.447  23.939  0.00  0.00    +0.012 C 
ENDBRANCH  21  25
ENDBRANCH   6  17
BRANCH  12   7
ATOM      4  O   UNL     1      -2.435   2.446  25.807  0.00  0.00    -0.270 OA
ATOM      7  N   UNL     1      -4.051   0.874  25.360  0.00  0.00    -0.308 N 
ATOM     18  C   UNL     1      -3.617   2.180  25.577  0.00  0.00    +0.254 C 
ATOM     30  H   UNL     1      -5.040   0.700  25.212  0.00  0.00    +0.149 HD
BRANCH  18  24
ATOM      1  S   UNL     1      -4.267   4.728  24.820  0.00  0.00    +0.041 S 
ATOM      8  N   UNL     1      -6.622   4.387  25.602  0.00  0.00    -0.146 NA
ATOM      9  N   UNL     1      -5.828   5.289  25.049  0.00  0.00    -0.110 NA
ATOM     24  C   UNL     1      -4.651   3.220  25.483  0.00  0.00    +0.117 A 
ATOM     26  C   UNL     1      -5.949   3.202  25.851  0.00  0.00    +0.081 A 
ATOM     29  C   UNL     1      -6.699   2.090  26.469  0.00  0.00    +0.069 C 
ENDBRANCH  18  24
ENDBRANCH  12   7
TORSDOF 4
ENDMDL
MODEL 2
REMARK VINA RESULT:      13.4      1.894      2.527
REMARK  Name = 7050310
REMARK  7 active torsions:
REMARK  status: ('A' for Active; 'I' for Inactive)
REMARK    1  A    between atoms: N_6  and  C_17
REMARK    2  A    between atoms: N_7  and  C_12
REMARK    3  A    between atoms: C_18  and  C_24
REMARK    4  A    between atoms: C_21  and  C_25
REMARK    5  A    between atoms: C_25  and  C_27
REMARK    6  A    between atoms: C_25  and  C_28
REMARK    7  A    between atoms: C_26  and  C_29
REMARK                            x       y       z     vdW  Elec       q    Type
REMARK                         _______ _______ _______ _____ _____    ______ ____
ROOT
ATOM      2  O   UNL     1       0.652  -1.520  23.921  0.00  0.00    -0.273 OA
ATOM      3  O   UNL     1       1.931   2.904  23.329  0.00  0.00    -0.252 OA
ATOM      5  N   UNL     1      -0.099   1.842  23.697  0.00  0.00    -0.273 N 
ATOM      6  N   UNL     1       1.739   0.563  23.634  0.00  0.00    -0.193 N 
ATOM     10  C   UNL     1      -0.618   0.513  23.875  0.00  0.00    +0.166 C 
ATOM     11  C   UNL     1      -1.615   0.166  22.775  0.00  0.00    +0.054 C 
ATOM     12  C   UNL     1      -2.678   1.265  22.601  0.00  0.00    +0.077 C 
ATOM     13  C   UNL     1      -2.032   2.653  22.447  0.00  0.00    +0.041 C 
ATOM     14  C   UNL     1      -1.023   2.953  23.559  0.00  0.00    +0.112 C 
ATOM     15  C   UNL     1       0.662  -0.301  23.801  0.00  0.00    +0.248 C 
ATOM     16  C   UNL     1       1.289   1.884  23.548  0.00  0.00    +0.316 C 
ENDROOT
BRANCH   6  17
ATOM     17  C   UNL     1       3.110   0.159  23.537  0.00  0.00    +0.045 A 
ATOM     19  C   UNL     1       3.477  -1.152  23.850  0.00  0.00    +0.024 A 
ATOM     20  C   UNL     1       4.085   1.073  23.131  0.00  0.00    +0.024 A 
ATOM     21  C   UNL     1       5.783  -0.633  23.350  0.00  0.00    -0.045 A 
ATOM     22  C   UNL     1       4.811  -1.548  23.757  0.00  0.00    +0.006 A 
ATOM     23  C   UNL     1       5.419   0.677  23.037  0.00  0.00    +0.006 A 
BRANCH  21  25
ATOM     25  C   UNL     1       7.209  -1.055  23.250  0.00  0.00    +0.013 C 
ATOM     27  C   UNL     1       8.185   0.132  23.372  0.00  0.00    +0.012 C 
ATOM     28  C   UNL     1       7.502  -1.840  21.957  0.00  0.00    +0.012 C 
ENDBRANCH  21  25
ENDBRANCH   6  17
BRANCH  12   7
ATOM      4  O   UNL     1      -4.267   3.445  23.424  0.00  0.00    -0.270 OA
ATOM      7  N   UNL     1      -3.624   1.255  23.693  0.00  0.00    -0.308 N 
ATOM     18  C   UNL     1      -4.372   2.380  24.036  0.00  0.00    +0.254 C 
ATOM     30  H   UNL     1      -3.717   0.412  24.250  0.00  0.00    +0.149 HD
BRANCH  18  24
ATOM      1  S   UNL     1      -5.698   0.648  25.688  0.00  0.00    +0.041 S 
ATOM      8  N   UNL     1      -6.798   2.569  26.860  0.00  0.00    -0.146 NA
ATOM      9  N   UNL     1      -6.732   1.248  26.860  0.00  0.00    -0.110 NA
ATOM     24  C   UNL     1      -5.316   2.205  25.148  0.00  0.00    +0.117 A 
ATOM     26  C   UNL     1      -5.988   3.118  25.880  0.00  0.00    +0.081 A 
ATOM     29  C   UNL     1      -5.950   4.588  25.748  0.00  0.00    +0.069 C 
ENDBRANCH  18  24
ENDBRANCH  12   7
TORSDOF 4
ENDMDL
MODEL 3
REMARK VINA RESULT:      14.6      3.132      9.091
REMARK  Name = 7050310
REMARK  7 active torsions:
REMARK  status: ('A' for Active; 'I' for Inactive)
REMARK    1  A    between atoms: N_6  and  C_17
REMARK    2  A    between atoms: N_7  and  C_12
REMARK    3  A    between atoms: C_18  and  C_24
REMARK    4  A    between atoms: C_21  and  C_25
REMARK    5  A    between atoms: C_25  and  C_27
REMARK    6  A    between atoms: C_25  and  C_28
REMARK    7  A    between atoms: C_26  and  C_29
REMARK                            x       y       z     vdW  Elec       q    Type
REMARK                         _______ _______ _______ _____ _____    ______ ____
ROOT
ATOM      2  O   UNL     1      -0.056   3.235  24.163  0.00  0.00    -0.273 OA
ATOM      3  O   UNL     1      -2.548  -0.656  24.619  0.00  0.00    -0.252 OA
ATOM      5  N   UNL     1      -0.349  -0.202  24.034  0.00  0.00    -0.273 N 
ATOM      6  N   UNL     1      -1.657   1.537  24.562  0.00  0.00    -0.193 N 
ATOM     10  C   UNL     1       0.518   0.929  23.844  0.00  0.00    +0.166 C 
ATOM     11  C   UNL     1       1.027   0.990  22.408  0.00  0.00    +0.054 C 
ATOM     12  C   UNL     1       1.606  -0.362  21.950  0.00  0.00    +0.077 C 
ATOM     13  C   UNL     1       0.623  -1.514  22.220  0.00  0.00    +0.041 C 
ATOM     14  C   UNL     1       0.120  -1.526  23.666  0.00  0.00    +0.112 C 
ATOM     15  C   UNL     1      -0.425   2.067  24.193  0.00  0.00    +0.248 C 
ATOM     16  C   UNL     1      -1.636   0.144  24.452  0.00  0.00    +0.316 C 
ENDROOT
BRANCH   6  17
ATOM     17  C   UNL     1      -2.793   2.307  24.971  0.00  0.00    +0.045 A 
ATOM     19  C   UNL     1      -4.077   1.933  24.564  0.00  0.00    +0.024 A 
ATOM     20  C   UNL     1      -2.624   3.435  25.778  0.00  0.00    +0.024 A 
ATOM     21  C   UNL     1      -5.011   3.807  25.768  0.00  0.00    -0.045 A 
ATOM     22  C   UNL     1      -5.184   2.682  24.962  0.00  0.00    +0.006 A 
ATOM     23  C   UNL     1      -3.731   4.183  26.176  0.00  0.00    +0.006 A 
BRANCH  21  25
ATOM     25  C   UNL     1      -6.195   4.609  26.194  0.00  0.00    +0.013 C 
ATOM     27  C   UNL     1      -7.414   3.727  26.526  0.00  0.00    +0.012 C 
ATOM     28  C   UNL     1      -6.590   5.674  25.153  0.00  0.00    +0.012 C 
ENDBRANCH  21  25
ENDBRANCH   6  17
BRANCH  12   7
ATOM      4  O   UNL     1       3.579   1.570  22.519  0.00  0.00    -0.270 OA
ATOM      7  N   UNL     1       2.885  -0.620  22.571  0.00  0.00    -0.308 N 
ATOM     18  C   UNL     1       3.807   0.396  22.818  0.00  0.00    +0.254 C 
ATOM     30  H   UNL     1       3.132  -1.577  22.800  0.00  0.00    +0.149 HD
BRANCH  18  24
ATOM      1  S   UNL     1       6.303   1.099  23.692  0.00  0.00    +0.041 S 
ATOM      8  N   UNL     1       6.678  -1.219  24.564  0.00  0.00    -0.146 NA
ATOM      9  N   UNL     1       7.264  -0.037  24.457  0.00  0.00    -0.110 NA
ATOM     24  C   UNL     1       5.049  -0.017  23.485  0.00  0.00    +0.117 A 
ATOM     26  C   UNL     1       5.409  -1.208  24.007  0.00  0.00    +0.081 A 
ATOM     29  C   UNL     1       4.620  -2.456  24.044  0.00  0.00    +0.069 C 
ENDBRANCH  18  24
ENDBRANCH  12   7
TORSDOF 4
ENDMDL
