MODEL 1
REMARK VINA RESULT:      -5.2      0.000      0.000
REMARK  Name = 75536825
REMARK  7 active torsions:
REMARK  status: ('A' for Active; 'I' for Inactive)
REMARK    1  A    between atoms: O_3  and  C_9
REMARK    2  A    between atoms: N_5  and  C_8
REMARK    3  A    between atoms: N_5  and  C_13
REMARK    4  A    between atoms: N_6  and  C_12
REMARK    5  A    between atoms: C_10  and  C_12
REMARK    6  A    between atoms: C_13  and  C_14
REMARK    7  A    between atoms: C_15  and  C_18
REMARK                            x       y       z     vdW  Elec       q    Type
REMARK                         _______ _______ _______ _____ _____    ______ ____
ROOT
ATOM      2  O   UNL     1      -1.619  -2.471  23.770  0.00  0.00    -0.371 OA
ATOM      8  C   UNL     1      -0.022  -0.947  24.650  0.00  0.00    +0.111 C 
ATOM      9  C   UNL     1      -1.264  -0.921  25.522  0.00  0.00    +0.164 C 
ATOM     10  C   UNL     1      -1.903  -2.256  25.163  0.00  0.00    +0.165 C 
ATOM     11  C   UNL     1      -0.563  -1.577  23.376  0.00  0.00    +0.181 C 
ENDROOT
BRANCH   9   3
ATOM      3  O   UNL     1      -0.962  -0.835  26.901  0.00  0.00    -0.388 OA
ATOM     27  H   UNL     1      -1.492  -0.114  27.284  0.00  0.00    +0.210 HD
ENDBRANCH   9   3
BRANCH   8   5
ATOM      5  N   UNL     1       0.562   0.365  24.429  0.00  0.00    -0.305 NA
ATOM     26  H   UNL     1       1.455   0.255  23.948  0.00  0.00    +0.123 HD
BRANCH   5  13
ATOM     13  C   UNL     1      -0.313   1.199  23.613  0.00  0.00    +0.116 C 
BRANCH  13  14
ATOM      7  N   UNL     1      -1.445   4.811  25.654  0.00  0.00    -0.263 NA
ATOM     14  C   UNL     1      -0.710   2.463  24.328  0.00  0.00    -0.031 A 
ATOM     16  C   UNL     1      -1.313   2.398  25.578  0.00  0.00    +0.024 A 
ATOM     17  C   UNL     1      -0.472   3.701  23.740  0.00  0.00    +0.024 A 
ATOM     19  C   UNL     1      -1.660   3.590  26.195  0.00  0.00    +0.111 A 
ATOM     20  C   UNL     1      -0.856   4.834  24.438  0.00  0.00    +0.111 A 
ENDBRANCH  13  14
ENDBRANCH   5  13
ENDBRANCH   8   5
BRANCH  10  12
ATOM     12  C   UNL     1      -3.405  -2.284  25.390  0.00  0.00    +0.138 C 
BRANCH  12   6
ATOM      4  O   UNL     1      -3.957  -0.409  23.286  0.00  0.00    -0.270 OA
ATOM      6  N   UNL     1      -3.934  -0.961  25.541  0.00  0.00    -0.309 N 
ATOM     15  C   UNL     1      -4.172  -0.116  24.460  0.00  0.00    +0.244 C 
ATOM     28  H   UNL     1      -4.069  -0.630  26.490  0.00  0.00    +0.149 HD
BRANCH  15  18
ATOM      1  F   UNL     1      -6.165   4.987  25.689  0.00  0.00    -0.205 F 
ATOM     18  C   UNL     1      -4.699   1.234  24.786  0.00  0.00    +0.037 A 
ATOM     21  C   UNL     1      -4.242   2.349  24.084  0.00  0.00    +0.016 A 
ATOM     22  C   UNL     1      -5.651   1.387  25.793  0.00  0.00    +0.016 A 
ATOM     23  C   UNL     1      -4.736   3.617  24.389  0.00  0.00    +0.039 A 
ATOM     24  C   UNL     1      -6.146   2.655  26.098  0.00  0.00    +0.039 A 
ATOM     25  C   UNL     1      -5.688   3.770  25.397  0.00  0.00    +0.123 A 
ENDBRANCH  15  18
ENDBRANCH  12   6
ENDBRANCH  10  12
TORSDOF 7
ENDMDL
MODEL 2
REMARK VINA RESULT:      -4.7      2.239      3.550
REMARK  Name = 75536825
REMARK  7 active torsions:
REMARK  status: ('A' for Active; 'I' for Inactive)
REMARK    1  A    between atoms: O_3  and  C_9
REMARK    2  A    between atoms: N_5  and  C_8
REMARK    3  A    between atoms: N_5  and  C_13
REMARK    4  A    between atoms: N_6  and  C_12
REMARK    5  A    between atoms: C_10  and  C_12
REMARK    6  A    between atoms: C_13  and  C_14
REMARK    7  A    between atoms: C_15  and  C_18
REMARK                            x       y       z     vdW  Elec       q    Type
REMARK                         _______ _______ _______ _____ _____    ______ ____
ROOT
ATOM      2  O   UNL     1      -1.621  -2.681  23.890  0.00  0.00    -0.371 OA
ATOM      8  C   UNL     1      -0.011  -1.004  24.376  0.00  0.00    +0.111 C 
ATOM      9  C   UNL     1      -1.218  -0.807  25.275  0.00  0.00    +0.164 C 
ATOM     10  C   UNL     1      -1.854  -2.189  25.220  0.00  0.00    +0.165 C 
ATOM     11  C   UNL     1      -0.593  -1.881  23.280  0.00  0.00    +0.181 C 
ENDROOT
BRANCH   9   3
ATOM      3  O   UNL     1      -0.863  -0.441  26.595  0.00  0.00    -0.388 OA
ATOM     27  H   UNL     1      -0.859  -1.244  27.143  0.00  0.00    +0.210 HD
ENDBRANCH   9   3
BRANCH   8   5
ATOM      5  N   UNL     1       0.548   0.239  23.870  0.00  0.00    -0.305 NA
ATOM     26  H   UNL     1       1.127   0.664  24.595  0.00  0.00    +0.123 HD
BRANCH   5  13
ATOM     13  C   UNL     1       1.370   0.002  22.689  0.00  0.00    +0.116 C 
BRANCH  13  14
ATOM      7  N   UNL     1       5.547  -0.274  23.672  0.00  0.00    -0.263 NA
ATOM     14  C   UNL     1       2.832  -0.095  23.033  0.00  0.00    -0.031 A 
ATOM     16  C   UNL     1       3.351  -1.277  23.549  0.00  0.00    +0.024 A 
ATOM     17  C   UNL     1       3.670   0.997  22.834  0.00  0.00    +0.024 A 
ATOM     19  C   UNL     1       4.703  -1.316  23.850  0.00  0.00    +0.111 A 
ATOM     20  C   UNL     1       5.007   0.858  23.167  0.00  0.00    +0.111 A 
ENDBRANCH  13  14
ENDBRANCH   5  13
ENDBRANCH   8   5
BRANCH  10  12
ATOM     12  C   UNL     1      -3.345  -2.177  25.510  0.00  0.00    +0.138 C 
BRANCH  12   6
ATOM      4  O   UNL     1      -3.997  -0.377  23.370  0.00  0.00    -0.270 OA
ATOM      6  N   UNL     1      -3.840  -0.838  25.639  0.00  0.00    -0.309 N 
ATOM     15  C   UNL     1      -4.131  -0.033  24.542  0.00  0.00    +0.244 C 
ATOM     28  H   UNL     1      -3.908  -0.468  26.580  0.00  0.00    +0.149 HD
BRANCH  15  18
ATOM      1  F   UNL     1      -5.951   5.153  25.687  0.00  0.00    -0.205 F 
ATOM     18  C   UNL     1      -4.612   1.340  24.844  0.00  0.00    +0.037 A 
ATOM     21  C   UNL     1      -5.803   1.521  25.549  0.00  0.00    +0.016 A 
ATOM     22  C   UNL     1      -3.875   2.446  24.425  0.00  0.00    +0.016 A 
ATOM     23  C   UNL     1      -6.255   2.809  25.833  0.00  0.00    +0.039 A 
ATOM     24  C   UNL     1      -4.327   3.734  24.710  0.00  0.00    +0.039 A 
ATOM     25  C   UNL     1      -5.518   3.917  25.413  0.00  0.00    +0.123 A 
ENDBRANCH  15  18
ENDBRANCH  12   6
ENDBRANCH  10  12
TORSDOF 7
ENDMDL
MODEL 3
REMARK VINA RESULT:      -4.4      2.786      5.144
REMARK  Name = 75536825
REMARK  7 active torsions:
REMARK  status: ('A' for Active; 'I' for Inactive)
REMARK    1  A    between atoms: O_3  and  C_9
REMARK    2  A    between atoms: N_5  and  C_8
REMARK    3  A    between atoms: N_5  and  C_13
REMARK    4  A    between atoms: N_6  and  C_12
REMARK    5  A    between atoms: C_10  and  C_12
REMARK    6  A    between atoms: C_13  and  C_14
REMARK    7  A    between atoms: C_15  and  C_18
REMARK                            x       y       z     vdW  Elec       q    Type
REMARK                         _______ _______ _______ _____ _____    ______ ____
ROOT
ATOM      2  O   UNL     1      -3.805   3.846  26.889  0.00  0.00    -0.371 OA
ATOM      8  C   UNL     1      -2.119   4.485  25.342  0.00  0.00    +0.111 C 
ATOM      9  C   UNL     1      -3.336   4.000  24.576  0.00  0.00    +0.164 C 
ATOM     10  C   UNL     1      -4.425   4.151  25.629  0.00  0.00    +0.165 C 
ATOM     11  C   UNL     1      -2.377   3.896  26.719  0.00  0.00    +0.181 C 
ENDROOT
BRANCH   9   3
ATOM      3  O   UNL     1      -3.604   4.778  23.425  0.00  0.00    -0.388 OA
ATOM     27  H   UNL     1      -3.058   4.439  22.694  0.00  0.00    +0.210 HD
ENDBRANCH   9   3
BRANCH   8   5
ATOM      5  N   UNL     1      -0.857   4.050  24.767  0.00  0.00    -0.305 NA
ATOM     26  H   UNL     1      -0.233   4.853  24.685  0.00  0.00    +0.123 HD
BRANCH   5  13
ATOM     13  C   UNL     1      -0.219   3.040  25.605  0.00  0.00    +0.116 C 
BRANCH  13  14
ATOM      7  N   UNL     1       0.414  -0.642  23.477  0.00  0.00    -0.263 NA
ATOM     14  C   UNL     1       0.002   1.751  24.860  0.00  0.00    -0.031 A 
ATOM     16  C   UNL     1      -0.696   0.605  25.225  0.00  0.00    +0.024 A 
ATOM     17  C   UNL     1       0.904   1.702  23.804  0.00  0.00    +0.024 A 
ATOM     19  C   UNL     1      -0.456  -0.556  24.508  0.00  0.00    +0.111 A 
ATOM     20  C   UNL     1       1.073   0.492  23.150  0.00  0.00    +0.111 A 
ENDBRANCH  13  14
ENDBRANCH   5  13
ENDBRANCH   8   5
BRANCH  10  12
ATOM     12  C   UNL     1      -5.611   3.229  25.405  0.00  0.00    +0.138 C 
BRANCH  12   6
ATOM      4  O   UNL     1      -4.049   1.826  23.444  0.00  0.00    -0.270 OA
ATOM      6  N   UNL     1      -5.216   1.851  25.451  0.00  0.00    -0.309 N 
ATOM     15  C   UNL     1      -4.455   1.251  24.452  0.00  0.00    +0.244 C 
ATOM     28  H   UNL     1      -5.578   1.300  26.221  0.00  0.00    +0.149 HD
BRANCH  15  18
ATOM      1  F   UNL     1      -3.304  -4.200  25.144  0.00  0.00    -0.205 F 
ATOM     18  C   UNL     1      -4.151  -0.192  24.635  0.00  0.00    +0.037 A 
ATOM     21  C   UNL     1      -4.324  -1.081  23.575  0.00  0.00    +0.016 A 
ATOM     22  C   UNL     1      -3.692  -0.657  25.867  0.00  0.00    +0.016 A 
ATOM     23  C   UNL     1      -4.039  -2.435  23.746  0.00  0.00    +0.039 A 
ATOM     24  C   UNL     1      -3.407  -2.011  26.039  0.00  0.00    +0.039 A 
ATOM     25  C   UNL     1      -3.580  -2.901  24.979  0.00  0.00    +0.123 A 
ENDBRANCH  15  18
ENDBRANCH  12   6
ENDBRANCH  10  12
TORSDOF 7
ENDMDL
MODEL 4
REMARK VINA RESULT:      -3.8      2.504      5.126
REMARK  Name = 75536825
REMARK  7 active torsions:
REMARK  status: ('A' for Active; 'I' for Inactive)
REMARK    1  A    between atoms: O_3  and  C_9
REMARK    2  A    between atoms: N_5  and  C_8
REMARK    3  A    between atoms: N_5  and  C_13
REMARK    4  A    between atoms: N_6  and  C_12
REMARK    5  A    between atoms: C_10  and  C_12
REMARK    6  A    between atoms: C_13  and  C_14
REMARK    7  A    between atoms: C_15  and  C_18
REMARK                            x       y       z     vdW  Elec       q    Type
REMARK                         _______ _______ _______ _____ _____    ______ ____
ROOT
ATOM      2  O   UNL     1      -0.079   3.231  23.585  0.00  0.00    -0.371 OA
ATOM      8  C   UNL     1      -0.960   3.849  25.703  0.00  0.00    +0.111 C 
ATOM      9  C   UNL     1      -0.351   2.462  25.806  0.00  0.00    +0.164 C 
ATOM     10  C   UNL     1       0.583   2.462  24.603  0.00  0.00    +0.165 C 
ATOM     11  C   UNL     1      -1.136   3.990  24.200  0.00  0.00    +0.181 C 
ENDROOT
BRANCH   9   3
ATOM      3  O   UNL     1       0.348   2.261  27.018  0.00  0.00    -0.388 OA
ATOM     27  H   UNL     1       0.694   1.351  27.023  0.00  0.00    +0.210 HD
ENDBRANCH   9   3
BRANCH   8   5
ATOM      5  N   UNL     1      -2.206   3.995  26.435  0.00  0.00    -0.305 NA
ATOM     26  H   UNL     1      -2.067   4.650  27.204  0.00  0.00    +0.123 HD
BRANCH   5  13
ATOM     13  C   UNL     1      -3.267   4.500  25.570  0.00  0.00    +0.116 C 
BRANCH  13  14
ATOM      7  N   UNL     1      -6.399   1.605  25.017  0.00  0.00    -0.263 NA
ATOM     14  C   UNL     1      -4.364   3.487  25.377  0.00  0.00    -0.031 A 
ATOM     16  C   UNL     1      -5.261   3.225  26.405  0.00  0.00    +0.024 A 
ATOM     17  C   UNL     1      -4.483   2.810  24.168  0.00  0.00    +0.024 A 
ATOM     19  C   UNL     1      -6.252   2.283  26.178  0.00  0.00    +0.111 A 
ATOM     20  C   UNL     1      -5.508   1.887  24.040  0.00  0.00    +0.111 A 
ENDBRANCH  13  14
ENDBRANCH   5  13
ENDBRANCH   8   5
BRANCH  10  12
ATOM     12  C   UNL     1       0.887   1.069  24.078  0.00  0.00    +0.138 C 
BRANCH  12   6
ATOM      4  O   UNL     1      -0.344  -0.683  25.992  0.00  0.00    -0.270 OA
ATOM      6  N   UNL     1      -0.314   0.308  23.894  0.00  0.00    -0.309 N 
ATOM     15  C   UNL     1      -0.841  -0.520  24.881  0.00  0.00    +0.244 C 
ATOM     28  H   UNL     1      -0.737   0.343  22.973  0.00  0.00    +0.149 HD
BRANCH  15  18
ATOM      1  F   UNL     1      -5.516  -3.320  23.530  0.00  0.00    -0.205 F 
ATOM     18  C   UNL     1      -2.078  -1.261  24.524  0.00  0.00    +0.037 A 
ATOM     21  C   UNL     1      -3.256  -0.564  24.257  0.00  0.00    +0.016 A 
ATOM     22  C   UNL     1      -2.062  -2.654  24.454  0.00  0.00    +0.016 A 
ATOM     23  C   UNL     1      -4.418  -1.259  23.922  0.00  0.00    +0.039 A 
ATOM     24  C   UNL     1      -3.224  -3.349  24.119  0.00  0.00    +0.039 A 
ATOM     25  C   UNL     1      -4.402  -2.652  23.853  0.00  0.00    +0.123 A 
ENDBRANCH  15  18
ENDBRANCH  12   6
ENDBRANCH  10  12
TORSDOF 7
ENDMDL
MODEL 5
REMARK VINA RESULT:      -3.7      3.167      6.599
REMARK  Name = 75536825
REMARK  7 active torsions:
REMARK  status: ('A' for Active; 'I' for Inactive)
REMARK    1  A    between atoms: O_3  and  C_9
REMARK    2  A    between atoms: N_5  and  C_8
REMARK    3  A    between atoms: N_5  and  C_13
REMARK    4  A    between atoms: N_6  and  C_12
REMARK    5  A    between atoms: C_10  and  C_12
REMARK    6  A    between atoms: C_13  and  C_14
REMARK    7  A    between atoms: C_15  and  C_18
REMARK                            x       y       z     vdW  Elec       q    Type
REMARK                         _______ _______ _______ _____ _____    ______ ____
ROOT
ATOM      2  O   UNL     1      -3.297   4.240  23.803  0.00  0.00    -0.371 OA
ATOM      8  C   UNL     1      -4.687   3.102  25.358  0.00  0.00    +0.111 C 
ATOM      9  C   UNL     1      -3.381   3.472  26.039  0.00  0.00    +0.164 C 
ATOM     10  C   UNL     1      -2.886   4.592  25.134  0.00  0.00    +0.165 C 
ATOM     11  C   UNL     1      -4.304   3.215  23.891  0.00  0.00    +0.181 C 
ENDROOT
BRANCH   9   3
ATOM      3  O   UNL     1      -3.564   3.910  27.371  0.00  0.00    -0.388 OA
ATOM     27  H   UNL     1      -4.458   4.286  27.448  0.00  0.00    +0.210 HD
ENDBRANCH   9   3
BRANCH   8   5
ATOM      5  N   UNL     1      -5.177   1.781  25.714  0.00  0.00    -0.305 NA
ATOM     26  H   UNL     1      -6.129   1.864  26.072  0.00  0.00    +0.123 HD
BRANCH   5  13
ATOM     13  C   UNL     1      -5.183   0.893  24.557  0.00  0.00    +0.116 C 
BRANCH  13  14
ATOM      7  N   UNL     1      -2.419  -2.367  25.026  0.00  0.00    -0.263 NA
ATOM     14  C   UNL     1      -4.216  -0.249  24.721  0.00  0.00    -0.031 A 
ATOM     16  C   UNL     1      -4.391  -1.422  23.997  0.00  0.00    +0.024 A 
ATOM     17  C   UNL     1      -3.142  -0.132  25.596  0.00  0.00    +0.024 A 
ATOM     19  C   UNL     1      -3.474  -2.444  24.183  0.00  0.00    +0.111 A 
ATOM     20  C   UNL     1      -2.280  -1.211  25.712  0.00  0.00    +0.111 A 
ENDBRANCH  13  14
ENDBRANCH   5  13
ENDBRANCH   8   5
BRANCH  10  12
ATOM     12  C   UNL     1      -1.379   4.775  25.174  0.00  0.00    +0.138 C 
BRANCH  12   6
ATOM      4  O   UNL     1      -0.114   2.441  26.273  0.00  0.00    -0.270 OA
ATOM      6  N   UNL     1      -0.708   3.740  24.443  0.00  0.00    -0.309 N 
ATOM     15  C   UNL     1      -0.121   2.639  25.060  0.00  0.00    +0.244 C 
ATOM     28  H   UNL     1      -0.616   3.878  23.442  0.00  0.00    +0.149 HD
BRANCH  15  18
ATOM      1  F   UNL     1       2.440  -1.030  21.668  0.00  0.00    -0.205 F 
ATOM     18  C   UNL     1       0.557   1.668  24.163  0.00  0.00    +0.037 A 
ATOM     21  C   UNL     1      -0.139   0.559  23.682  0.00  0.00    +0.016 A 
ATOM     22  C   UNL     1       1.889   1.865  23.800  0.00  0.00    +0.016 A 
ATOM     23  C   UNL     1       0.497  -0.352  22.840  0.00  0.00    +0.039 A 
ATOM     24  C   UNL     1       2.525   0.954  22.958  0.00  0.00    +0.039 A 
ATOM     25  C   UNL     1       1.829  -0.156  22.478  0.00  0.00    +0.123 A 
ENDBRANCH  15  18
ENDBRANCH  12   6
ENDBRANCH  10  12
TORSDOF 7
ENDMDL
MODEL 6
REMARK VINA RESULT:      -3.4      4.075      7.340
REMARK  Name = 75536825
REMARK  7 active torsions:
REMARK  status: ('A' for Active; 'I' for Inactive)
REMARK    1  A    between atoms: O_3  and  C_9
REMARK    2  A    between atoms: N_5  and  C_8
REMARK    3  A    between atoms: N_5  and  C_13
REMARK    4  A    between atoms: N_6  and  C_12
REMARK    5  A    between atoms: C_10  and  C_12
REMARK    6  A    between atoms: C_13  and  C_14
REMARK    7  A    between atoms: C_15  and  C_18
REMARK                            x       y       z     vdW  Elec       q    Type
REMARK                         _______ _______ _______ _____ _____    ______ ____
ROOT
ATOM      2  O   UNL     1      -2.335   2.035  22.466  0.00  0.00    -0.371 OA
ATOM      8  C   UNL     1      -2.992   2.561  24.688  0.00  0.00    +0.111 C 
ATOM      9  C   UNL     1      -1.957   1.451  24.727  0.00  0.00    +0.164 C 
ATOM     10  C   UNL     1      -1.295   1.619  23.366  0.00  0.00    +0.165 C 
ATOM     11  C   UNL     1      -3.460   2.485  23.243  0.00  0.00    +0.181 C 
ENDROOT
BRANCH   9   3
ATOM      3  O   UNL     1      -1.033   1.602  25.786  0.00  0.00    -0.388 OA
ATOM     27  H   UNL     1      -1.218   2.446  26.234  0.00  0.00    +0.210 HD
ENDBRANCH   9   3
BRANCH   8   5
ATOM      5  N   UNL     1      -4.073   2.383  25.642  0.00  0.00    -0.305 NA
ATOM     26  H   UNL     1      -4.541   3.279  25.787  0.00  0.00    +0.123 HD
BRANCH   5  13
ATOM     13  C   UNL     1      -5.050   1.415  25.156  0.00  0.00    +0.116 C 
BRANCH  13  14
ATOM      7  N   UNL     1      -3.396  -2.548  24.918  0.00  0.00    -0.263 NA
ATOM     14  C   UNL     1      -4.471   0.027  25.073  0.00  0.00    -0.031 A 
ATOM     16  C   UNL     1      -3.796  -0.514  26.161  0.00  0.00    +0.024 A 
ATOM     17  C   UNL     1      -4.610  -0.718  23.907  0.00  0.00    +0.024 A 
ATOM     19  C   UNL     1      -3.281  -1.794  26.034  0.00  0.00    +0.111 A 
ATOM     20  C   UNL     1      -4.059  -1.988  23.881  0.00  0.00    +0.111 A 
ENDBRANCH  13  14
ENDBRANCH   5  13
ENDBRANCH   8   5
BRANCH  10  12
ATOM     12  C   UNL     1      -0.649   0.346  22.850  0.00  0.00    +0.138 C 
BRANCH  12   6
ATOM      4  O   UNL     1       1.540  -0.442  21.166  0.00  0.00    -0.270 OA
ATOM      6  N   UNL     1       0.734   0.275  23.221  0.00  0.00    -0.309 N 
ATOM     15  C   UNL     1       1.734  -0.119  22.336  0.00  0.00    +0.244 C 
ATOM     28  H   UNL     1       0.954   0.462  24.193  0.00  0.00    +0.149 HD
BRANCH  15  18
ATOM      1  F   UNL     1       6.952  -0.290  24.399  0.00  0.00    -0.205 F 
ATOM     18  C   UNL     1       3.114  -0.164  22.882  0.00  0.00    +0.037 A 
ATOM     21  C   UNL     1       3.596  -1.336  23.465  0.00  0.00    +0.016 A 
ATOM     22  C   UNL     1       3.930   0.965  22.811  0.00  0.00    +0.016 A 
ATOM     23  C   UNL     1       4.892  -1.379  23.979  0.00  0.00    +0.039 A 
ATOM     24  C   UNL     1       5.226   0.922  23.324  0.00  0.00    +0.039 A 
ATOM     25  C   UNL     1       5.707  -0.249  23.908  0.00  0.00    +0.123 A 
ENDBRANCH  15  18
ENDBRANCH  12   6
ENDBRANCH  10  12
TORSDOF 7
ENDMDL
MODEL 7
REMARK VINA RESULT:      -3.1      2.770      5.542
REMARK  Name = 75536825
REMARK  7 active torsions:
REMARK  status: ('A' for Active; 'I' for Inactive)
REMARK    1  A    between atoms: O_3  and  C_9
REMARK    2  A    between atoms: N_5  and  C_8
REMARK    3  A    between atoms: N_5  and  C_13
REMARK    4  A    between atoms: N_6  and  C_12
REMARK    5  A    between atoms: C_10  and  C_12
REMARK    6  A    between atoms: C_13  and  C_14
REMARK    7  A    between atoms: C_15  and  C_18
REMARK                            x       y       z     vdW  Elec       q    Type
REMARK                         _______ _______ _______ _____ _____    ______ ____
ROOT
ATOM      2  O   UNL     1       0.225   3.813  24.437  0.00  0.00    -0.371 OA
ATOM      8  C   UNL     1      -2.026   4.568  24.507  0.00  0.00    +0.111 C 
ATOM      9  C   UNL     1      -1.799   3.583  25.639  0.00  0.00    +0.164 C 
ATOM     10  C   UNL     1      -0.282   3.630  25.769  0.00  0.00    +0.165 C 
ATOM     11  C   UNL     1      -0.855   4.251  23.592  0.00  0.00    +0.181 C 
ENDROOT
BRANCH   9   3
ATOM      3  O   UNL     1      -2.443   3.969  26.837  0.00  0.00    -0.388 OA
ATOM     27  H   UNL     1      -2.329   4.928  26.950  0.00  0.00    +0.210 HD
ENDBRANCH   9   3
BRANCH   8   5
ATOM      5  N   UNL     1      -3.314   4.416  23.851  0.00  0.00    -0.305 NA
ATOM     26  H   UNL     1      -3.295   4.911  22.959  0.00  0.00    +0.123 HD
BRANCH   5  13
ATOM     13  C   UNL     1      -3.614   3.010  23.604  0.00  0.00    +0.116 C 
BRANCH  13  14
ATOM      7  N   UNL     1      -6.568   1.496  26.338  0.00  0.00    -0.263 NA
ATOM     14  C   UNL     1      -4.648   2.480  24.561  0.00  0.00    -0.031 A 
ATOM     16  C   UNL     1      -5.318   3.348  25.415  0.00  0.00    +0.024 A 
ATOM     17  C   UNL     1      -4.938   1.121  24.593  0.00  0.00    +0.024 A 
ATOM     19  C   UNL     1      -6.261   2.811  26.278  0.00  0.00    +0.111 A 
ATOM     20  C   UNL     1      -5.897   0.683  25.491  0.00  0.00    +0.111 A 
ENDBRANCH  13  14
ENDBRANCH   5  13
ENDBRANCH   8   5
BRANCH  10  12
ATOM     12  C   UNL     1       0.308   2.368  26.374  0.00  0.00    +0.138 C 
BRANCH  12   6
ATOM      4  O   UNL     1       0.350   0.590  24.119  0.00  0.00    -0.270 OA
ATOM      6  N   UNL     1      -0.546   1.237  26.160  0.00  0.00    -0.309 N 
ATOM     15  C   UNL     1      -0.456   0.426  25.032  0.00  0.00    +0.244 C 
ATOM     28  H   UNL     1      -1.281   1.088  26.842  0.00  0.00    +0.149 HD
BRANCH  15  18
ATOM      1  F   UNL     1      -4.145  -3.794  24.712  0.00  0.00    -0.205 F 
ATOM     18  C   UNL     1      -1.432  -0.691  24.947  0.00  0.00    +0.037 A 
ATOM     21  C   UNL     1      -2.516  -0.737  25.823  0.00  0.00    +0.016 A 
ATOM     22  C   UNL     1      -1.265  -1.693  23.992  0.00  0.00    +0.016 A 
ATOM     23  C   UNL     1      -3.432  -1.786  25.744  0.00  0.00    +0.039 A 
ATOM     24  C   UNL     1      -2.181  -2.741  23.913  0.00  0.00    +0.039 A 
ATOM     25  C   UNL     1      -3.265  -2.788  24.789  0.00  0.00    +0.123 A 
ENDBRANCH  15  18
ENDBRANCH  12   6
ENDBRANCH  10  12
TORSDOF 7
ENDMDL
MODEL 8
REMARK VINA RESULT:      -2.9      1.763      4.236
REMARK  Name = 75536825
REMARK  7 active torsions:
REMARK  status: ('A' for Active; 'I' for Inactive)
REMARK    1  A    between atoms: O_3  and  C_9
REMARK    2  A    between atoms: N_5  and  C_8
REMARK    3  A    between atoms: N_5  and  C_13
REMARK    4  A    between atoms: N_6  and  C_12
REMARK    5  A    between atoms: C_10  and  C_12
REMARK    6  A    between atoms: C_13  and  C_14
REMARK    7  A    between atoms: C_15  and  C_18
REMARK                            x       y       z     vdW  Elec       q    Type
REMARK                         _______ _______ _______ _____ _____    ______ ____
ROOT
ATOM      2  O   UNL     1      -2.093  -1.522  26.762  0.00  0.00    -0.371 OA
ATOM      8  C   UNL     1      -3.486  -2.284  24.995  0.00  0.00    +0.111 C 
ATOM      9  C   UNL     1      -2.109  -1.967  24.439  0.00  0.00    +0.164 C 
ATOM     10  C   UNL     1      -1.262  -2.025  25.703  0.00  0.00    +0.165 C 
ATOM     11  C   UNL     1      -3.460  -1.526  26.312  0.00  0.00    +0.181 C 
ENDROOT
BRANCH   9   3
ATOM      3  O   UNL     1      -1.680  -2.907  23.473  0.00  0.00    -0.388 OA
ATOM     27  H   UNL     1      -1.219  -3.629  23.933  0.00  0.00    +0.210 HD
ENDBRANCH   9   3
BRANCH   8   5
ATOM      5  N   UNL     1      -4.574  -1.871  24.125  0.00  0.00    -0.305 NA
ATOM     26  H   UNL     1      -5.366  -1.579  24.698  0.00  0.00    +0.123 HD
BRANCH   5  13
ATOM     13  C   UNL     1      -4.172  -0.758  23.273  0.00  0.00    +0.116 C 
BRANCH  13  14
ATOM      7  N   UNL     1      -5.040   3.044  25.085  0.00  0.00    -0.263 NA
ATOM     14  C   UNL     1      -4.476   0.573  23.908  0.00  0.00    -0.031 A 
ATOM     16  C   UNL     1      -5.400   0.658  24.943  0.00  0.00    +0.024 A 
ATOM     17  C   UNL     1      -3.833   1.722  23.461  0.00  0.00    +0.024 A 
ATOM     19  C   UNL     1      -5.645   1.906  25.493  0.00  0.00    +0.111 A 
ATOM     20  C   UNL     1      -4.148   2.922  24.077  0.00  0.00    +0.111 A 
ENDBRANCH  13  14
ENDBRANCH   5  13
ENDBRANCH   8   5
BRANCH  10  12
ATOM     12  C   UNL     1       0.010  -1.200  25.613  0.00  0.00    +0.138 C 
BRANCH  12   6
ATOM      4  O   UNL     1      -0.008   0.567  23.348  0.00  0.00    -0.270 OA
ATOM      6  N   UNL     1      -0.278   0.205  25.625  0.00  0.00    -0.309 N 
ATOM     15  C   UNL     1      -0.263   0.988  24.474  0.00  0.00    +0.244 C 
ATOM     28  H   UNL     1      -0.428   0.630  26.533  0.00  0.00    +0.149 HD
BRANCH  15  18
ATOM      1  F   UNL     1      -1.378   6.445  25.175  0.00  0.00    -0.205 F 
ATOM     18  C   UNL     1      -0.559   2.432  24.659  0.00  0.00    +0.037 A 
ATOM     21  C   UNL     1      -1.276   2.859  25.777  0.00  0.00    +0.016 A 
ATOM     22  C   UNL     1      -0.118   3.361  23.717  0.00  0.00    +0.016 A 
ATOM     23  C   UNL     1      -1.553   4.215  25.951  0.00  0.00    +0.039 A 
ATOM     24  C   UNL     1      -0.396   4.716  23.891  0.00  0.00    +0.039 A 
ATOM     25  C   UNL     1      -1.113   5.144  25.008  0.00  0.00    +0.123 A 
ENDBRANCH  15  18
ENDBRANCH  12   6
ENDBRANCH  10  12
TORSDOF 7
ENDMDL
