MODEL 1
REMARK VINA RESULT:      -5.3      0.000      0.000
REMARK  Name = 26743878
REMARK  5 active torsions:
REMARK  status: ('A' for Active; 'I' for Inactive)
REMARK    1  A    between atoms: O_1  and  C_8
REMARK    2  A    between atoms: N_3  and  C_11
REMARK    3  A    between atoms: C_6  and  C_10
REMARK    4  A    between atoms: C_12  and  C_13
REMARK    5  A    between atoms: C_16  and  C_19
REMARK                            x       y       z     vdW  Elec       q    Type
REMARK                         _______ _______ _______ _____ _____    ______ ____
ROOT
ATOM      2  O   UNL     1      -3.995 -10.460  13.196  0.00  0.00    -0.336 OA
ATOM      4  N   UNL     1      -6.109 -10.285  13.916  0.00  0.00    -0.190 NA
ATOM      5  N   UNL     1      -3.941 -10.573  14.591  0.00  0.00    -0.056 NA
ATOM     10  C   UNL     1      -5.307 -10.292  12.882  0.00  0.00    +0.245 A 
ATOM     12  C   UNL     1      -5.226 -10.460  14.943  0.00  0.00    +0.202 A 
ENDROOT
BRANCH  12  13
ATOM     13  C   UNL     1      -5.661 -10.517  16.308  0.00  0.00    +0.023 A 
ATOM     14  C   UNL     1      -7.012 -10.364  16.618  0.00  0.00    +0.015 A 
ATOM     15  C   UNL     1      -4.730 -10.725  17.327  0.00  0.00    +0.012 A 
ATOM     16  C   UNL     1      -7.433 -10.421  17.947  0.00  0.00    -0.050 A 
ATOM     17  C   UNL     1      -5.152 -10.781  18.656  0.00  0.00    +0.001 A 
ATOM     18  C   UNL     1      -6.504 -10.630  18.966  0.00  0.00    +0.003 A 
ATOM     19  C   UNL     1      -8.878 -10.259  18.278  0.00  0.00    +0.044 C 
ENDBRANCH  12  13
BRANCH  10   6
ATOM      3  N   UNL     1      -6.619  -9.074  11.152  0.00  0.00    -0.292 NA
ATOM      6  C   UNL     1      -5.635 -10.144  11.411  0.00  0.00    +0.148 C 
ATOM      7  C   UNL     1      -4.406  -9.763  10.564  0.00  0.00    +0.061 C 
ATOM      8  C   UNL     1      -4.813  -8.491   9.831  0.00  0.00    +0.130 C 
ATOM      9  C   UNL     1      -6.328  -8.559   9.816  0.00  0.00    +0.116 C 
ATOM     11  C   UNL     1      -8.000  -9.520  11.280  0.00  0.00    +0.105 C 
BRANCH   8   1
ATOM      1  O   UNL     1      -4.276  -8.473   8.522  0.00  0.00    -0.390 OA
ATOM     20  H   UNL     1      -4.699  -9.192   8.022  0.00  0.00    +0.210 HD
ENDBRANCH   8   1
ENDBRANCH  10   6
TORSDOF 3
ENDMDL
MODEL 2
REMARK VINA RESULT:      -4.6      3.175      5.196
REMARK  Name = 26743878
REMARK  5 active torsions:
REMARK  status: ('A' for Active; 'I' for Inactive)
REMARK    1  A    between atoms: O_1  and  C_8
REMARK    2  A    between atoms: N_3  and  C_11
REMARK    3  A    between atoms: C_6  and  C_10
REMARK    4  A    between atoms: C_12  and  C_13
REMARK    5  A    between atoms: C_16  and  C_19
REMARK                            x       y       z     vdW  Elec       q    Type
REMARK                         _______ _______ _______ _____ _____    ______ ____
ROOT
ATOM      2  O   UNL     1      -5.340  -9.082   8.124  0.00  0.00    -0.336 OA
ATOM      4  N   UNL     1      -6.074  -9.385  10.219  0.00  0.00    -0.190 NA
ATOM      5  N   UNL     1      -4.213  -9.409   8.888  0.00  0.00    -0.056 NA
ATOM     10  C   UNL     1      -6.393  -9.089   8.985  0.00  0.00    +0.245 A 
ATOM     12  C   UNL     1      -4.726  -9.573  10.111  0.00  0.00    +0.202 A 
ENDROOT
BRANCH  12  13
ATOM     13  C   UNL     1      -3.922  -9.923  11.246  0.00  0.00    +0.023 A 
ATOM     14  C   UNL     1      -4.524 -10.166  12.481  0.00  0.00    +0.015 A 
ATOM     15  C   UNL     1      -2.536 -10.022  11.113  0.00  0.00    +0.012 A 
ATOM     16  C   UNL     1      -3.740 -10.508  13.583  0.00  0.00    -0.050 A 
ATOM     17  C   UNL     1      -1.753 -10.363  12.216  0.00  0.00    +0.001 A 
ATOM     18  C   UNL     1      -2.355 -10.607  13.451  0.00  0.00    +0.003 A 
ATOM     19  C   UNL     1      -4.384 -10.768  14.903  0.00  0.00    +0.044 C 
ENDBRANCH  12  13
BRANCH  10   6
ATOM      3  N   UNL     1      -8.862  -9.122   9.294  0.00  0.00    -0.292 NA
ATOM      6  C   UNL     1      -7.748  -8.762   8.394  0.00  0.00    +0.148 C 
ATOM      7  C   UNL     1      -7.931  -7.256   8.124  0.00  0.00    +0.061 C 
ATOM      8  C   UNL     1      -9.199  -6.873   8.876  0.00  0.00    +0.130 C 
ATOM      9  C   UNL     1      -9.947  -8.186   9.005  0.00  0.00    +0.116 C 
ATOM     11  C   UNL     1      -9.285 -10.510   9.158  0.00  0.00    +0.105 C 
BRANCH   8   1
ATOM      1  O   UNL     1      -9.943  -5.915   8.149  0.00  0.00    -0.390 OA
ATOM     20  H   UNL     1     -10.280  -6.352   7.348  0.00  0.00    +0.210 HD
ENDBRANCH   8   1
ENDBRANCH  10   6
TORSDOF 3
ENDMDL
MODEL 3
REMARK VINA RESULT:      -4.6      2.081      2.491
REMARK  Name = 26743878
REMARK  5 active torsions:
REMARK  status: ('A' for Active; 'I' for Inactive)
REMARK    1  A    between atoms: O_1  and  C_8
REMARK    2  A    between atoms: N_3  and  C_11
REMARK    3  A    between atoms: C_6  and  C_10
REMARK    4  A    between atoms: C_12  and  C_13
REMARK    5  A    between atoms: C_16  and  C_19
REMARK                            x       y       z     vdW  Elec       q    Type
REMARK                         _______ _______ _______ _____ _____    ______ ____
ROOT
ATOM      2  O   UNL     1      -2.915 -10.781  14.858  0.00  0.00    -0.336 OA
ATOM      4  N   UNL     1      -4.991 -10.327  14.150  0.00  0.00    -0.190 NA
ATOM      5  N   UNL     1      -3.701 -10.657  16.010  0.00  0.00    -0.056 NA
ATOM     10  C   UNL     1      -3.752 -10.572  13.807  0.00  0.00    +0.245 A 
ATOM     12  C   UNL     1      -4.912 -10.389  15.511  0.00  0.00    +0.202 A 
ENDROOT
BRANCH  12  13
ATOM     13  C   UNL     1      -6.060 -10.178  16.342  0.00  0.00    +0.023 A 
ATOM     14  C   UNL     1      -7.247  -9.700  15.787  0.00  0.00    +0.015 A 
ATOM     15  C   UNL     1      -5.991 -10.452  17.709  0.00  0.00    +0.012 A 
ATOM     16  C   UNL     1      -8.364  -9.496  16.597  0.00  0.00    -0.050 A 
ATOM     17  C   UNL     1      -7.108 -10.248  18.519  0.00  0.00    +0.001 A 
ATOM     18  C   UNL     1      -8.295  -9.770  17.963  0.00  0.00    +0.003 A 
ATOM     19  C   UNL     1      -9.633  -8.985  16.003  0.00  0.00    +0.044 C 
ENDBRANCH  12  13
BRANCH  10   6
ATOM      3  N   UNL     1      -3.820  -9.790  11.445  0.00  0.00    -0.292 NA
ATOM      6  C   UNL     1      -3.135 -10.655  12.426  0.00  0.00    +0.148 C 
ATOM      7  C   UNL     1      -1.666 -10.190  12.403  0.00  0.00    +0.061 C 
ATOM      8  C   UNL     1      -1.617  -9.095  11.345  0.00  0.00    +0.130 C 
ATOM      9  C   UNL     1      -2.811  -9.400  10.462  0.00  0.00    +0.116 C 
ATOM     11  C   UNL     1      -4.973 -10.428  10.823  0.00  0.00    +0.105 C 
BRANCH   8   1
ATOM      1  O   UNL     1      -0.402  -9.150  10.623  0.00  0.00    -0.390 OA
ATOM     20  H   UNL     1      -0.178 -10.088  10.499  0.00  0.00    +0.210 HD
ENDBRANCH   8   1
ENDBRANCH  10   6
TORSDOF 3
ENDMDL
MODEL 4
REMARK VINA RESULT:      -4.0      2.303      3.626
REMARK  Name = 26743878
REMARK  5 active torsions:
REMARK  status: ('A' for Active; 'I' for Inactive)
REMARK    1  A    between atoms: O_1  and  C_8
REMARK    2  A    between atoms: N_3  and  C_11
REMARK    3  A    between atoms: C_6  and  C_10
REMARK    4  A    between atoms: C_12  and  C_13
REMARK    5  A    between atoms: C_16  and  C_19
REMARK                            x       y       z     vdW  Elec       q    Type
REMARK                         _______ _______ _______ _____ _____    ______ ____
ROOT
ATOM      2  O   UNL     1      -5.229 -10.142   9.569  0.00  0.00    -0.336 OA
ATOM      4  N   UNL     1      -6.518  -9.354  11.223  0.00  0.00    -0.190 NA
ATOM      5  N   UNL     1      -4.608 -10.527  10.763  0.00  0.00    -0.056 NA
ATOM     10  C   UNL     1      -6.346  -9.455   9.930  0.00  0.00    +0.245 A 
ATOM     12  C   UNL     1      -5.427 -10.026  11.694  0.00  0.00    +0.202 A 
ENDROOT
BRANCH  12  13
ATOM     13  C   UNL     1      -5.185 -10.179  13.099  0.00  0.00    +0.023 A 
ATOM     14  C   UNL     1      -6.209  -9.936  14.015  0.00  0.00    +0.015 A 
ATOM     15  C   UNL     1      -3.923 -10.570  13.550  0.00  0.00    +0.012 A 
ATOM     16  C   UNL     1      -5.972 -10.086  15.381  0.00  0.00    -0.050 A 
ATOM     17  C   UNL     1      -3.687 -10.719  14.916  0.00  0.00    +0.001 A 
ATOM     18  C   UNL     1      -4.711 -10.478  15.833  0.00  0.00    +0.003 A 
ATOM     19  C   UNL     1      -7.067  -9.828  16.360  0.00  0.00    +0.044 C 
ENDBRANCH  12  13
BRANCH  10   6
ATOM      3  N   UNL     1      -8.573  -9.481   8.819  0.00  0.00    -0.292 NA
ATOM      6  C   UNL     1      -7.205  -8.924   8.802  0.00  0.00    +0.148 C 
ATOM      7  C   UNL     1      -7.400  -7.397   8.870  0.00  0.00    +0.061 C 
ATOM      8  C   UNL     1      -8.910  -7.194   8.875  0.00  0.00    +0.130 C 
ATOM      9  C   UNL     1      -9.441  -8.461   8.234  0.00  0.00    +0.116 C 
ATOM     11  C   UNL     1      -8.682 -10.757   8.125  0.00  0.00    +0.105 C 
BRANCH   8   1
ATOM      1  O   UNL     1      -9.262  -6.042   8.133  0.00  0.00    -0.390 OA
ATOM     20  H   UNL     1      -8.537  -5.401   8.226  0.00  0.00    +0.210 HD
ENDBRANCH   8   1
ENDBRANCH  10   6
TORSDOF 3
ENDMDL
MODEL 5
REMARK VINA RESULT:      -3.7     14.872     16.216
REMARK  Name = 26743878
REMARK  5 active torsions:
REMARK  status: ('A' for Active; 'I' for Inactive)
REMARK    1  A    between atoms: O_1  and  C_8
REMARK    2  A    between atoms: N_3  and  C_11
REMARK    3  A    between atoms: C_6  and  C_10
REMARK    4  A    between atoms: C_12  and  C_13
REMARK    5  A    between atoms: C_16  and  C_19
REMARK                            x       y       z     vdW  Elec       q    Type
REMARK                         _______ _______ _______ _____ _____    ______ ____
ROOT
ATOM      2  O   UNL     1       1.449   1.629  23.902  0.00  0.00    -0.336 OA
ATOM      4  N   UNL     1       0.424  -0.322  23.505  0.00  0.00    -0.190 NA
ATOM      5  N   UNL     1       0.130   1.785  24.347  0.00  0.00    -0.056 NA
ATOM     10  C   UNL     1       1.537   0.361  23.421  0.00  0.00    +0.245 A 
ATOM     12  C   UNL     1      -0.411   0.592  24.079  0.00  0.00    +0.202 A 
ENDROOT
BRANCH  12  13
ATOM     13  C   UNL     1      -1.780   0.282  24.371  0.00  0.00    +0.023 A 
ATOM     14  C   UNL     1      -2.739   1.295  24.381  0.00  0.00    +0.015 A 
ATOM     15  C   UNL     1      -2.153  -1.035  24.645  0.00  0.00    +0.012 A 
ATOM     16  C   UNL     1      -4.070   0.992  24.665  0.00  0.00    -0.050 A 
ATOM     17  C   UNL     1      -3.485  -1.337  24.928  0.00  0.00    +0.001 A 
ATOM     18  C   UNL     1      -4.444  -0.324  24.938  0.00  0.00    +0.003 A 
ATOM     19  C   UNL     1      -5.096   2.075  24.675  0.00  0.00    +0.044 C 
ENDBRANCH  12  13
BRANCH  10   6
ATOM      3  N   UNL     1       3.943   0.933  23.142  0.00  0.00    -0.292 NA
ATOM      6  C   UNL     1       2.885  -0.060  22.874  0.00  0.00    +0.148 C 
ATOM      7  C   UNL     1       3.402  -1.367  23.507  0.00  0.00    +0.061 C 
ATOM      8  C   UNL     1       4.776  -1.017  24.064  0.00  0.00    +0.130 C 
ATOM      9  C   UNL     1       5.196   0.187  23.244  0.00  0.00    +0.116 C 
ATOM     11  C   UNL     1       4.012   1.985  22.137  0.00  0.00    +0.105 C 
BRANCH   8   1
ATOM      1  O   UNL     1       5.672  -2.100  23.904  0.00  0.00    -0.390 OA
ATOM     20  H   UNL     1       6.160  -1.956  23.075  0.00  0.00    +0.210 HD
ENDBRANCH   8   1
ENDBRANCH  10   6
TORSDOF 3
ENDMDL
MODEL 6
REMARK VINA RESULT:      -3.5      3.337      4.726
REMARK  Name = 26743878
REMARK  5 active torsions:
REMARK  status: ('A' for Active; 'I' for Inactive)
REMARK    1  A    between atoms: O_1  and  C_8
REMARK    2  A    between atoms: N_3  and  C_11
REMARK    3  A    between atoms: C_6  and  C_10
REMARK    4  A    between atoms: C_12  and  C_13
REMARK    5  A    between atoms: C_16  and  C_19
REMARK                            x       y       z     vdW  Elec       q    Type
REMARK                         _______ _______ _______ _____ _____    ______ ____
ROOT
ATOM      2  O   UNL     1      -4.336  -9.920  17.209  0.00  0.00    -0.336 OA
ATOM      4  N   UNL     1      -5.598 -10.498  15.451  0.00  0.00    -0.190 NA
ATOM      5  N   UNL     1      -5.661  -9.669  17.583  0.00  0.00    -0.056 NA
ATOM     10  C   UNL     1      -4.388 -10.405  15.940  0.00  0.00    +0.245 A 
ATOM     12  C   UNL     1      -6.346 -10.034  16.495  0.00  0.00    +0.202 A 
ENDROOT
BRANCH  12  13
ATOM     13  C   UNL     1      -7.775  -9.949  16.417  0.00  0.00    +0.023 A 
ATOM     14  C   UNL     1      -8.525  -9.713  17.570  0.00  0.00    +0.015 A 
ATOM     15  C   UNL     1      -8.417 -10.103  15.187  0.00  0.00    +0.012 A 
ATOM     16  C   UNL     1      -9.915  -9.629  17.492  0.00  0.00    -0.050 A 
ATOM     17  C   UNL     1      -9.807 -10.020  15.111  0.00  0.00    +0.001 A 
ATOM     18  C   UNL     1     -10.557  -9.782  16.263  0.00  0.00    +0.003 A 
ATOM     19  C   UNL     1     -10.716  -9.375  18.724  0.00  0.00    +0.044 C 
ENDBRANCH  12  13
BRANCH  10   6
ATOM      3  N   UNL     1      -2.759  -9.925  14.120  0.00  0.00    -0.292 NA
ATOM      6  C   UNL     1      -3.063 -10.761  15.299  0.00  0.00    +0.148 C 
ATOM      7  C   UNL     1      -1.868 -10.551  16.249  0.00  0.00    +0.061 C 
ATOM      8  C   UNL     1      -0.926  -9.620  15.496  0.00  0.00    +0.130 C 
ATOM      9  C   UNL     1      -1.302  -9.832  14.043  0.00  0.00    +0.116 C 
ATOM     11  C   UNL     1      -3.342 -10.436  12.887  0.00  0.00    +0.105 C 
BRANCH   8   1
ATOM      1  O   UNL     1       0.423  -9.964  15.745  0.00  0.00    -0.390 OA
ATOM     20  H   UNL     1       0.977  -9.424  15.155  0.00  0.00    +0.210 HD
ENDBRANCH   8   1
ENDBRANCH  10   6
TORSDOF 3
ENDMDL
MODEL 7
REMARK VINA RESULT:      -3.5     15.900     17.045
REMARK  Name = 26743878
REMARK  5 active torsions:
REMARK  status: ('A' for Active; 'I' for Inactive)
REMARK    1  A    between atoms: O_1  and  C_8
REMARK    2  A    between atoms: N_3  and  C_11
REMARK    3  A    between atoms: C_6  and  C_10
REMARK    4  A    between atoms: C_12  and  C_13
REMARK    5  A    between atoms: C_16  and  C_19
REMARK                            x       y       z     vdW  Elec       q    Type
REMARK                         _______ _______ _______ _____ _____    ______ ____
ROOT
ATOM      2  O   UNL     1       0.562  -0.653  23.556  0.00  0.00    -0.336 OA
ATOM      4  N   UNL     1       1.017   1.534  23.728  0.00  0.00    -0.190 NA
ATOM      5  N   UNL     1      -0.603  -0.051  24.047  0.00  0.00    -0.056 NA
ATOM     10  C   UNL     1       1.466   0.350  23.397  0.00  0.00    +0.245 A 
ATOM     12  C   UNL     1      -0.257   1.239  24.121  0.00  0.00    +0.202 A 
ENDROOT
BRANCH  12  13
ATOM     13  C   UNL     1      -1.157   2.254  24.584  0.00  0.00    +0.023 A 
ATOM     14  C   UNL     1      -2.517   1.976  24.715  0.00  0.00    +0.015 A 
ATOM     15  C   UNL     1      -0.671   3.524  24.902  0.00  0.00    +0.012 A 
ATOM     16  C   UNL     1      -3.391   2.965  25.166  0.00  0.00    -0.050 A 
ATOM     17  C   UNL     1      -1.546   4.512  25.352  0.00  0.00    +0.001 A 
ATOM     18  C   UNL     1      -2.906   4.233  25.485  0.00  0.00    +0.003 A 
ATOM     19  C   UNL     1      -4.845   2.666  25.308  0.00  0.00    +0.044 C 
ENDBRANCH  12  13
BRANCH  10   6
ATOM      3  N   UNL     1       3.874   0.945  23.186  0.00  0.00    -0.292 NA
ATOM      6  C   UNL     1       2.828  -0.048  22.869  0.00  0.00    +0.148 C 
ATOM      7  C   UNL     1       3.340  -1.367  23.478  0.00  0.00    +0.061 C 
ATOM      8  C   UNL     1       4.699  -1.024  24.074  0.00  0.00    +0.130 C 
ATOM      9  C   UNL     1       5.129   0.205  23.295  0.00  0.00    +0.116 C 
ATOM     11  C   UNL     1       3.956   2.024  22.211  0.00  0.00    +0.105 C 
BRANCH   8   1
ATOM      1  O   UNL     1       5.606  -2.096  23.905  0.00  0.00    -0.390 OA
ATOM     20  H   UNL     1       6.063  -2.230  24.753  0.00  0.00    +0.210 HD
ENDBRANCH   8   1
ENDBRANCH  10   6
TORSDOF 3
ENDMDL
MODEL 8
REMARK VINA RESULT:      -3.3      4.011      5.795
REMARK  Name = 26743878
REMARK  5 active torsions:
REMARK  status: ('A' for Active; 'I' for Inactive)
REMARK    1  A    between atoms: O_1  and  C_8
REMARK    2  A    between atoms: N_3  and  C_11
REMARK    3  A    between atoms: C_6  and  C_10
REMARK    4  A    between atoms: C_12  and  C_13
REMARK    5  A    between atoms: C_16  and  C_19
REMARK                            x       y       z     vdW  Elec       q    Type
REMARK                         _______ _______ _______ _____ _____    ______ ____
ROOT
ATOM      2  O   UNL     1      -5.782 -10.767   8.869  0.00  0.00    -0.336 OA
ATOM      4  N   UNL     1      -5.739 -10.230  11.043  0.00  0.00    -0.190 NA
ATOM      5  N   UNL     1      -4.430 -10.693   9.224  0.00  0.00    -0.056 NA
ATOM     10  C   UNL     1      -6.485 -10.481   9.997  0.00  0.00    +0.245 A 
ATOM     12  C   UNL     1      -4.486 -10.371  10.521  0.00  0.00    +0.202 A 
ENDROOT
BRANCH  12  13
ATOM     13  C   UNL     1      -3.311 -10.184  11.321  0.00  0.00    +0.023 A 
ATOM     14  C   UNL     1      -2.181  -9.578  10.772  0.00  0.00    +0.015 A 
ATOM     15  C   UNL     1      -3.299 -10.607  12.651  0.00  0.00    +0.012 A 
ATOM     16  C   UNL     1      -1.039  -9.396  11.552  0.00  0.00    -0.050 A 
ATOM     17  C   UNL     1      -2.157 -10.424  13.431  0.00  0.00    +0.001 A 
ATOM     18  C   UNL     1      -1.027  -9.818  12.882  0.00  0.00    +0.003 A 
ATOM     19  C   UNL     1       0.169  -8.748  10.966  0.00  0.00    +0.044 C 
ENDBRANCH  12  13
BRANCH  10   6
ATOM      3  N   UNL     1      -8.661  -9.744  10.955  0.00  0.00    -0.292 NA
ATOM      6  C   UNL     1      -7.994 -10.498   9.875  0.00  0.00    +0.148 C 
ATOM      7  C   UNL     1      -8.492  -9.843   8.572  0.00  0.00    +0.061 C 
ATOM      8  C   UNL     1      -9.468  -8.764   9.022  0.00  0.00    +0.130 C 
ATOM      9  C   UNL     1      -9.911  -9.235  10.394  0.00  0.00    +0.116 C 
ATOM     11  C   UNL     1      -8.881 -10.537  12.157  0.00  0.00    +0.105 C 
BRANCH   8   1
ATOM      1  O   UNL     1     -10.556  -8.666   8.124  0.00  0.00    -0.390 OA
ATOM     20  H   UNL     1     -10.655  -9.530   7.689  0.00  0.00    +0.210 HD
ENDBRANCH   8   1
ENDBRANCH  10   6
TORSDOF 3
ENDMDL
MODEL 9
REMARK VINA RESULT:      -3.3     14.971     16.955
REMARK  Name = 26743878
REMARK  5 active torsions:
REMARK  status: ('A' for Active; 'I' for Inactive)
REMARK    1  A    between atoms: O_1  and  C_8
REMARK    2  A    between atoms: N_3  and  C_11
REMARK    3  A    between atoms: C_6  and  C_10
REMARK    4  A    between atoms: C_12  and  C_13
REMARK    5  A    between atoms: C_16  and  C_19
REMARK                            x       y       z     vdW  Elec       q    Type
REMARK                         _______ _______ _______ _____ _____    ______ ____
ROOT
ATOM      2  O   UNL     1      -1.629   2.169  25.327  0.00  0.00    -0.336 OA
ATOM      4  N   UNL     1      -1.598   1.226  23.296  0.00  0.00    -0.190 NA
ATOM      5  N   UNL     1      -0.296   1.819  25.081  0.00  0.00    -0.056 NA
ATOM     10  C   UNL     1      -2.329   1.784  24.226  0.00  0.00    +0.245 A 
ATOM     12  C   UNL     1      -0.358   1.268  23.865  0.00  0.00    +0.202 A 
ENDROOT
BRANCH  12  13
ATOM     13  C   UNL     1       0.798   0.752  23.192  0.00  0.00    +0.023 A 
ATOM     14  C   UNL     1       2.074   1.153  23.586  0.00  0.00    +0.015 A 
ATOM     15  C   UNL     1       0.645  -0.154  22.141  0.00  0.00    +0.012 A 
ATOM     16  C   UNL     1       3.198   0.649  22.931  0.00  0.00    -0.050 A 
ATOM     17  C   UNL     1       1.769  -0.657  21.486  0.00  0.00    +0.001 A 
ATOM     18  C   UNL     1       3.046  -0.256  21.881  0.00  0.00    +0.003 A 
ATOM     19  C   UNL     1       4.562   1.078  23.354  0.00  0.00    +0.044 C 
ENDBRANCH  12  13
BRANCH  10   6
ATOM      3  N   UNL     1      -4.541   1.209  25.211  0.00  0.00    -0.292 NA
ATOM      6  C   UNL     1      -3.818   2.058  24.244  0.00  0.00    +0.148 C 
ATOM      7  C   UNL     1      -4.152   3.503  24.662  0.00  0.00    +0.061 C 
ATOM      8  C   UNL     1      -5.104   3.361  25.842  0.00  0.00    +0.130 C 
ATOM      9  C   UNL     1      -5.701   1.980  25.653  0.00  0.00    +0.116 C 
ATOM     11  C   UNL     1      -4.919  -0.088  24.666  0.00  0.00    +0.105 C 
BRANCH   8   1
ATOM      1  O   UNL     1      -6.095   4.370  25.811  0.00  0.00    -0.390 OA
ATOM     20  H   UNL     1      -5.955   4.893  25.003  0.00  0.00    +0.210 HD
ENDBRANCH   8   1
ENDBRANCH  10   6
TORSDOF 3
ENDMDL
MODEL 10
REMARK VINA RESULT:      -2.9     14.640     16.259
REMARK  Name = 26743878
REMARK  5 active torsions:
REMARK  status: ('A' for Active; 'I' for Inactive)
REMARK    1  A    between atoms: O_1  and  C_8
REMARK    2  A    between atoms: N_3  and  C_11
REMARK    3  A    between atoms: C_6  and  C_10
REMARK    4  A    between atoms: C_12  and  C_13
REMARK    5  A    between atoms: C_16  and  C_19
REMARK                            x       y       z     vdW  Elec       q    Type
REMARK                         _______ _______ _______ _____ _____    ______ ____
ROOT
ATOM      2  O   UNL     1       0.589   2.042  24.227  0.00  0.00    -0.336 OA
ATOM      4  N   UNL     1      -0.890   0.393  23.897  0.00  0.00    -0.190 NA
ATOM      5  N   UNL     1      -0.651   2.544  24.638  0.00  0.00    -0.056 NA
ATOM     10  C   UNL     1       0.359   0.770  23.804  0.00  0.00    +0.245 A 
ATOM     12  C   UNL     1      -1.473   1.514  24.413  0.00  0.00    +0.202 A 
ENDROOT
BRANCH  12  13
ATOM     13  C   UNL     1      -2.878   1.572  24.692  0.00  0.00    +0.023 A 
ATOM     14  C   UNL     1      -3.486   2.797  24.969  0.00  0.00    +0.015 A 
ATOM     15  C   UNL     1      -3.639   0.402  24.685  0.00  0.00    +0.012 A 
ATOM     16  C   UNL     1      -4.853   2.852  25.239  0.00  0.00    -0.050 A 
ATOM     17  C   UNL     1      -5.006   0.458  24.956  0.00  0.00    +0.001 A 
ATOM     18  C   UNL     1      -5.614   1.683  25.232  0.00  0.00    +0.003 A 
ATOM     19  C   UNL     1      -5.502   4.162  25.535  0.00  0.00    +0.044 C 
ENDBRANCH  12  13
BRANCH  10   6
ATOM      3  N   UNL     1       1.726   0.089  21.839  0.00  0.00    -0.292 NA
ATOM      6  C   UNL     1       1.562  -0.002  23.303  0.00  0.00    +0.148 C 
ATOM      7  C   UNL     1       2.889   0.524  23.882  0.00  0.00    +0.061 C 
ATOM      8  C   UNL     1       3.750   0.841  22.666  0.00  0.00    +0.130 C 
ATOM      9  C   UNL     1       3.158  -0.030  21.575  0.00  0.00    +0.116 C 
ATOM     11  C   UNL     1       0.949  -0.905  21.111  0.00  0.00    +0.105 C 
BRANCH   8   1
ATOM      1  O   UNL     1       5.105   0.523  22.914  0.00  0.00    -0.390 OA
ATOM     20  H   UNL     1       5.256  -0.384  22.597  0.00  0.00    +0.210 HD
ENDBRANCH   8   1
ENDBRANCH  10   6
TORSDOF 3
ENDMDL
