MODEL 1
REMARK VINA RESULT:       3.5      0.000      0.000
REMARK  Name = 7113375
REMARK  9 active torsions:
REMARK  status: ('A' for Active; 'I' for Inactive)
REMARK    1  A    between atoms: N_8  and  C_19
REMARK    2  A    between atoms: N_9  and  C_22
REMARK    3  A    between atoms: C_12  and  C_16
REMARK    4  A    between atoms: C_17  and  C_21
REMARK    5  A    between atoms: C_19  and  C_20
REMARK    6  A    between atoms: C_19  and  C_23
REMARK    7  A    between atoms: C_20  and  C_24
REMARK    8  A    between atoms: C_22  and  C_25
REMARK    9  A    between atoms: C_22  and  C_26
REMARK                            x       y       z     vdW  Elec       q    Type
REMARK                         _______ _______ _______ _____ _____    ______ ____
ROOT
ATOM      3  O   UNL     1       3.277   2.238  22.720  0.00  0.00    -0.269 OA
ATOM      4  O   UNL     1      -3.011  -0.702  23.324  0.00  0.00    -0.253 OA
ATOM      6  N   UNL     1       1.929   0.434  23.270  0.00  0.00    -0.283 N 
ATOM      7  N   UNL     1      -0.718  -0.721  23.697  0.00  0.00    -0.282 N 
ATOM      9  N   UNL     1      -2.181  -2.014  25.021  0.00  0.00    -0.297 N 
ATOM     12  C   UNL     1       0.711   1.159  22.898  0.00  0.00    +0.179 C 
ATOM     13  C   UNL     1      -0.466   0.229  22.609  0.00  0.00    +0.141 C 
ATOM     14  C   UNL     1       1.765  -0.960  23.706  0.00  0.00    +0.128 C 
ATOM     15  C   UNL     1       0.453  -1.198  24.442  0.00  0.00    +0.128 C 
ATOM     17  C   UNL     1       3.180   1.066  23.088  0.00  0.00    +0.254 C 
ATOM     18  C   UNL     1      -2.042  -1.118  23.966  0.00  0.00    +0.303 C 
ATOM     35  H   UNL     1      -1.389  -2.222  25.619  0.00  0.00    +0.150 HD
ENDROOT
BRANCH  17  21
ATOM      1  S   UNL     1       4.208  -1.381  23.731  0.00  0.00    -0.092 S 
ATOM     21  C   UNL     1       4.377   0.279  23.363  0.00  0.00    +0.074 A 
ATOM     27  C   UNL     1       5.689   0.688  23.373  0.00  0.00    +0.021 A 
ATOM     28  C   UNL     1       6.575  -0.382  23.688  0.00  0.00    +0.008 A 
ATOM     29  C   UNL     1       5.902  -1.564  23.906  0.00  0.00    +0.046 A 
ENDBRANCH  17  21
BRANCH  12  16
ATOM      2  O   UNL     1       1.127   2.197  25.011  0.00  0.00    -0.274 OA
ATOM      8  N   UNL     1      -0.787   2.785  23.824  0.00  0.00    -0.302 N 
ATOM     16  C   UNL     1       0.397   2.099  24.028  0.00  0.00    +0.236 C 
ATOM     34  H   UNL     1      -1.336   2.591  22.991  0.00  0.00    +0.150 HD
BRANCH   8  19
ATOM     19  C   UNL     1      -1.326   3.733  24.773  0.00  0.00    +0.163 C 
BRANCH  19  23
ATOM      5  O   UNL     1      -1.696   3.557  27.169  0.00  0.00    -0.274 OA
ATOM     10  N   UNL     1      -1.460   1.625  25.948  0.00  0.00    -0.328 N 
ATOM     23  C   UNL     1      -1.498   2.996  26.093  0.00  0.00    +0.231 C 
ATOM     36  H   UNL     1      -1.299   1.174  25.053  0.00  0.00    +0.145 HD
ATOM     37  H   UNL     1      -1.578   1.015  26.750  0.00  0.00    +0.145 HD
ENDBRANCH  19  23
BRANCH  19  20
ATOM     20  C   UNL     1      -2.664   4.321  24.310  0.00  0.00    +0.068 C 
BRANCH  20  24
ATOM     11  N   UNL     1      -5.690   3.128  26.211  0.00  0.00    -0.263 NA
ATOM     24  C   UNL     1      -3.845   3.475  24.719  0.00  0.00    -0.027 A 
ATOM     30  C   UNL     1      -4.154   2.328  24.018  0.00  0.00    +0.006 A 
ATOM     31  C   UNL     1      -4.621   3.841  25.793  0.00  0.00    +0.114 A 
ATOM     32  C   UNL     1      -5.248   1.569  24.418  0.00  0.00    +0.020 A 
ATOM     33  C   UNL     1      -5.977   2.008  25.512  0.00  0.00    +0.111 A 
ENDBRANCH  20  24
ENDBRANCH  19  20
ENDBRANCH   8  19
ENDBRANCH  12  16
BRANCH   9  22
ATOM     22  C   UNL     1      -3.468  -2.519  25.439  0.00  0.00    +0.068 C 
ATOM     25  C   UNL     1      -4.249  -1.445  26.187  0.00  0.00    +0.027 C 
ATOM     26  C   UNL     1      -4.250  -3.034  24.237  0.00  0.00    +0.027 C 
ENDBRANCH   9  22
TORSDOF 7
ENDMDL
MODEL 2
REMARK VINA RESULT:       4.2      3.103      6.829
REMARK  Name = 7113375
REMARK  9 active torsions:
REMARK  status: ('A' for Active; 'I' for Inactive)
REMARK    1  A    between atoms: N_8  and  C_19
REMARK    2  A    between atoms: N_9  and  C_22
REMARK    3  A    between atoms: C_12  and  C_16
REMARK    4  A    between atoms: C_17  and  C_21
REMARK    5  A    between atoms: C_19  and  C_20
REMARK    6  A    between atoms: C_19  and  C_23
REMARK    7  A    between atoms: C_20  and  C_24
REMARK    8  A    between atoms: C_22  and  C_25
REMARK    9  A    between atoms: C_22  and  C_26
REMARK                            x       y       z     vdW  Elec       q    Type
REMARK                         _______ _______ _______ _____ _____    ______ ____
ROOT
ATOM      3  O   UNL     1      -2.033   2.252  22.477  0.00  0.00    -0.269 OA
ATOM      4  O   UNL     1       2.309   3.858  27.685  0.00  0.00    -0.253 OA
ATOM      6  N   UNL     1      -1.562   2.428  24.740  0.00  0.00    -0.283 N 
ATOM      7  N   UNL     1       0.328   2.924  26.909  0.00  0.00    -0.282 N 
ATOM      9  N   UNL     1       1.240   2.296  28.992  0.00  0.00    -0.297 N 
ATOM     12  C   UNL     1      -0.218   2.949  24.478  0.00  0.00    +0.179 C 
ATOM     13  C   UNL     1       0.368   3.704  25.669  0.00  0.00    +0.141 C 
ATOM     14  C   UNL     1      -1.973   2.329  26.149  0.00  0.00    +0.128 C 
ATOM     15  C   UNL     1      -0.810   2.013  27.082  0.00  0.00    +0.128 C 
ATOM     17  C   UNL     1      -2.414   2.158  23.645  0.00  0.00    +0.254 C 
ATOM     18  C   UNL     1       1.361   3.085  27.852  0.00  0.00    +0.303 C 
ATOM     35  H   UNL     1       0.536   1.569  29.035  0.00  0.00    +0.150 HD
ENDROOT
BRANCH  17  21
ATOM      1  S   UNL     1      -4.902   2.923  24.470  0.00  0.00    -0.092 S 
ATOM     21  C   UNL     1      -3.782   1.745  23.943  0.00  0.00    +0.074 A 
ATOM     27  C   UNL     1      -4.337   0.492  23.860  0.00  0.00    +0.021 A 
ATOM     28  C   UNL     1      -5.711   0.495  24.237  0.00  0.00    +0.008 A 
ATOM     29  C   UNL     1      -6.147   1.752  24.592  0.00  0.00    +0.046 A 
ENDBRANCH  17  21
BRANCH  12  16
ATOM      2  O   UNL     1       1.838   1.902  23.852  0.00  0.00    -0.274 OA
ATOM      8  N   UNL     1      -0.076   0.593  24.056  0.00  0.00    -0.302 N 
ATOM     16  C   UNL     1       0.642   1.775  24.102  0.00  0.00    +0.236 C 
ATOM     34  H   UNL     1      -1.075   0.612  24.239  0.00  0.00    +0.150 HD
BRANCH   8  19
ATOM     19  C   UNL     1       0.513  -0.677  23.697  0.00  0.00    +0.163 C 
BRANCH  19  23
ATOM      5  O   UNL     1       1.043  -0.270  21.361  0.00  0.00    -0.274 OA
ATOM     10  N   UNL     1       2.763  -0.336  22.882  0.00  0.00    -0.328 N 
ATOM     23  C   UNL     1       1.436  -0.425  22.514  0.00  0.00    +0.231 C 
ATOM     36  H   UNL     1       3.074  -0.463  23.840  0.00  0.00    +0.145 HD
ATOM     37  H   UNL     1       3.482  -0.154  22.190  0.00  0.00    +0.145 HD
ENDBRANCH  19  23
BRANCH  19  20
ATOM     20  C   UNL     1      -0.546  -1.725  23.335  0.00  0.00    +0.068 C 
BRANCH  20  24
ATOM     11  N   UNL     1      -2.512  -1.154  26.498  0.00  0.00    -0.263 NA
ATOM     24  C   UNL     1      -1.640  -1.831  24.369  0.00  0.00    -0.027 A 
ATOM     30  C   UNL     1      -2.721  -2.661  24.154  0.00  0.00    +0.006 A 
ATOM     31  C   UNL     1      -1.567  -1.103  25.532  0.00  0.00    +0.114 A 
ATOM     32  C   UNL     1      -3.714  -2.739  25.124  0.00  0.00    +0.020 A 
ATOM     33  C   UNL     1      -3.563  -1.972  26.269  0.00  0.00    +0.111 A 
ENDBRANCH  20  24
ENDBRANCH  19  20
ENDBRANCH   8  19
ENDBRANCH  12  16
BRANCH   9  22
ATOM     22  C   UNL     1       2.215   2.327  30.058  0.00  0.00    +0.068 C 
ATOM     25  C   UNL     1       1.564   1.970  31.389  0.00  0.00    +0.027 C 
ATOM     26  C   UNL     1       3.375   1.392  29.743  0.00  0.00    +0.027 C 
ENDBRANCH   9  22
TORSDOF 7
ENDMDL
MODEL 3
REMARK VINA RESULT:       5.0      2.647      6.460
REMARK  Name = 7113375
REMARK  9 active torsions:
REMARK  status: ('A' for Active; 'I' for Inactive)
REMARK    1  A    between atoms: N_8  and  C_19
REMARK    2  A    between atoms: N_9  and  C_22
REMARK    3  A    between atoms: C_12  and  C_16
REMARK    4  A    between atoms: C_17  and  C_21
REMARK    5  A    between atoms: C_19  and  C_20
REMARK    6  A    between atoms: C_19  and  C_23
REMARK    7  A    between atoms: C_20  and  C_24
REMARK    8  A    between atoms: C_22  and  C_25
REMARK    9  A    between atoms: C_22  and  C_26
REMARK                            x       y       z     vdW  Elec       q    Type
REMARK                         _______ _______ _______ _____ _____    ______ ____
ROOT
ATOM      3  O   UNL     1      -3.414   1.556  23.872  0.00  0.00    -0.269 OA
ATOM      4  O   UNL     1       2.901  -0.461  21.723  0.00  0.00    -0.253 OA
ATOM      6  N   UNL     1      -1.121   1.872  23.746  0.00  0.00    -0.283 N 
ATOM      7  N   UNL     1       1.537   0.918  23.003  0.00  0.00    -0.282 N 
ATOM      9  N   UNL     1       3.807   0.592  23.556  0.00  0.00    -0.297 N 
ATOM     12  C   UNL     1      -0.941   0.663  22.938  0.00  0.00    +0.179 C 
ATOM     13  C   UNL     1       0.369   0.663  22.154  0.00  0.00    +0.141 C 
ATOM     14  C   UNL     1       0.082   2.672  24.020  0.00  0.00    +0.128 C 
ATOM     15  C   UNL     1       1.341   1.823  24.142  0.00  0.00    +0.128 C 
ATOM     17  C   UNL     1      -2.429   2.254  24.119  0.00  0.00    +0.254 C 
ATOM     18  C   UNL     1       2.760   0.296  22.689  0.00  0.00    +0.303 C 
ATOM     35  H   UNL     1       3.627   1.096  24.417  0.00  0.00    +0.150 HD
ENDROOT
BRANCH  17  21
ATOM      1  S   UNL     1      -3.913   3.718  25.883  0.00  0.00    -0.092 S 
ATOM     21  C   UNL     1      -2.583   3.520  24.829  0.00  0.00    +0.074 A 
ATOM     27  C   UNL     1      -1.782   4.635  24.778  0.00  0.00    +0.021 A 
ATOM     28  C   UNL     1      -2.268   5.675  25.621  0.00  0.00    +0.008 A 
ATOM     29  C   UNL     1      -3.421   5.310  26.281  0.00  0.00    +0.046 A 
ENDBRANCH  17  21
BRANCH  12  16
ATOM      2  O   UNL     1      -1.102  -1.663  23.468  0.00  0.00    -0.274 OA
ATOM      8  N   UNL     1      -0.990  -0.117  25.204  0.00  0.00    -0.302 N 
ATOM     16  C   UNL     1      -1.013  -0.508  23.877  0.00  0.00    +0.236 C 
ATOM     34  H   UNL     1      -0.959   0.873  25.429  0.00  0.00    +0.150 HD
BRANCH   8  19
ATOM     19  C   UNL     1      -1.071  -1.050  26.306  0.00  0.00    +0.163 C 
BRANCH  19  23
ATOM      5  O   UNL     1      -0.898  -3.423  25.812  0.00  0.00    -0.274 OA
ATOM     10  N   UNL     1       0.951  -2.097  25.492  0.00  0.00    -0.328 N 
ATOM     23  C   UNL     1      -0.357  -2.321  25.869  0.00  0.00    +0.231 C 
ATOM     36  H   UNL     1       1.384  -1.180  25.541  0.00  0.00    +0.145 HD
ATOM     37  H   UNL     1       1.534  -2.859  25.164  0.00  0.00    +0.145 HD
ENDBRANCH  19  23
BRANCH  19  20
ATOM     20  C   UNL     1      -2.520  -1.358  26.700  0.00  0.00    +0.068 C 
BRANCH  20  24
ATOM     11  N   UNL     1      -4.998  -0.938  23.893  0.00  0.00    -0.263 NA
ATOM     24  C   UNL     1      -3.392  -1.681  25.511  0.00  0.00    -0.027 A 
ATOM     30  C   UNL     1      -3.391  -2.952  24.974  0.00  0.00    +0.006 A 
ATOM     31  C   UNL     1      -4.193  -0.713  24.955  0.00  0.00    +0.114 A 
ATOM     32  C   UNL     1      -4.205  -3.221  23.879  0.00  0.00    +0.020 A 
ATOM     33  C   UNL     1      -4.983  -2.189  23.381  0.00  0.00    +0.111 A 
ENDBRANCH  20  24
ENDBRANCH  19  20
ENDBRANCH   8  19
ENDBRANCH  12  16
BRANCH   9  22
ATOM     22  C   UNL     1       5.129   0.035  23.389  0.00  0.00    +0.068 C 
ATOM     25  C   UNL     1       6.169   0.904  24.085  0.00  0.00    +0.027 C 
ATOM     26  C   UNL     1       5.169  -1.397  23.908  0.00  0.00    +0.027 C 
ENDBRANCH   9  22
TORSDOF 7
ENDMDL
MODEL 4
REMARK VINA RESULT:       5.0      2.214      6.188
REMARK  Name = 7113375
REMARK  9 active torsions:
REMARK  status: ('A' for Active; 'I' for Inactive)
REMARK    1  A    between atoms: N_8  and  C_19
REMARK    2  A    between atoms: N_9  and  C_22
REMARK    3  A    between atoms: C_12  and  C_16
REMARK    4  A    between atoms: C_17  and  C_21
REMARK    5  A    between atoms: C_19  and  C_20
REMARK    6  A    between atoms: C_19  and  C_23
REMARK    7  A    between atoms: C_20  and  C_24
REMARK    8  A    between atoms: C_22  and  C_25
REMARK    9  A    between atoms: C_22  and  C_26
REMARK                            x       y       z     vdW  Elec       q    Type
REMARK                         _______ _______ _______ _____ _____    ______ ____
ROOT
ATOM      3  O   UNL     1      -3.387   1.902  23.800  0.00  0.00    -0.269 OA
ATOM      4  O   UNL     1       2.778  -0.624  21.756  0.00  0.00    -0.253 OA
ATOM      6  N   UNL     1      -1.074   2.037  23.701  0.00  0.00    -0.283 N 
ATOM      7  N   UNL     1       1.510   0.872  23.002  0.00  0.00    -0.282 N 
ATOM      9  N   UNL     1       3.741   0.379  23.589  0.00  0.00    -0.297 N 
ATOM     12  C   UNL     1      -0.979   0.808  22.908  0.00  0.00    +0.179 C 
ATOM     13  C   UNL     1       0.337   0.698  22.141  0.00  0.00    +0.141 C 
ATOM     14  C   UNL     1       0.183   2.746  23.981  0.00  0.00    +0.128 C 
ATOM     15  C   UNL     1       1.371   1.803  24.129  0.00  0.00    +0.128 C 
ATOM     17  C   UNL     1      -2.353   2.524  24.052  0.00  0.00    +0.254 C 
ATOM     18  C   UNL     1       2.685   0.154  22.711  0.00  0.00    +0.303 C 
ATOM     35  H   UNL     1       3.590   0.906  24.442  0.00  0.00    +0.150 HD
ENDROOT
BRANCH  17  21
ATOM      1  S   UNL     1      -1.364   5.062  24.259  0.00  0.00    -0.092 S 
ATOM     21  C   UNL     1      -2.418   3.807  24.745  0.00  0.00    +0.074 A 
ATOM     27  C   UNL     1      -3.237   4.181  25.782  0.00  0.00    +0.021 A 
ATOM     28  C   UNL     1      -2.997   5.526  26.188  0.00  0.00    +0.008 A 
ATOM     29  C   UNL     1      -2.004   6.122  25.443  0.00  0.00    +0.046 A 
ENDBRANCH  17  21
BRANCH  12  16
ATOM      2  O   UNL     1      -0.216  -1.074  24.169  0.00  0.00    -0.274 OA
ATOM      8  N   UNL     1      -2.460  -0.468  24.296  0.00  0.00    -0.302 N 
ATOM     16  C   UNL     1      -1.153  -0.342  23.859  0.00  0.00    +0.236 C 
ATOM     34  H   UNL     1      -3.166   0.169  23.939  0.00  0.00    +0.150 HD
BRANCH   8  19
ATOM     19  C   UNL     1      -2.896  -1.509  25.199  0.00  0.00    +0.163 C 
BRANCH  19  23
ATOM      5  O   UNL     1      -4.204  -2.304  23.312  0.00  0.00    -0.274 OA
ATOM     10  N   UNL     1      -3.501  -3.827  24.882  0.00  0.00    -0.328 N 
ATOM     23  C   UNL     1      -3.617  -2.555  24.362  0.00  0.00    +0.231 C 
ATOM     36  H   UNL     1      -3.011  -4.021  25.750  0.00  0.00    +0.145 HD
ATOM     37  H   UNL     1      -3.923  -4.621  24.411  0.00  0.00    +0.145 HD
ENDBRANCH  19  23
BRANCH  19  20
ATOM     20  C   UNL     1      -3.821  -0.973  26.298  0.00  0.00    +0.068 C 
BRANCH  20  24
ATOM     11  N   UNL     1      -5.779   2.243  26.152  0.00  0.00    -0.263 NA
ATOM     24  C   UNL     1      -4.756   0.102  25.801  0.00  0.00    -0.027 A 
ATOM     30  C   UNL     1      -5.421  -0.056  24.603  0.00  0.00    +0.006 A 
ATOM     31  C   UNL     1      -4.954   1.244  26.539  0.00  0.00    +0.114 A 
ATOM     32  C   UNL     1      -6.277   0.951  24.170  0.00  0.00    +0.020 A 
ATOM     33  C   UNL     1      -6.421   2.070  24.975  0.00  0.00    +0.111 A 
ENDBRANCH  20  24
ENDBRANCH  19  20
ENDBRANCH   8  19
ENDBRANCH  12  16
BRANCH   9  22
ATOM     22  C   UNL     1       5.018  -0.281  23.445  0.00  0.00    +0.068 C 
ATOM     25  C   UNL     1       6.122   0.539  24.102  0.00  0.00    +0.027 C 
ATOM     26  C   UNL     1       4.955  -1.688  24.026  0.00  0.00    +0.027 C 
ENDBRANCH   9  22
TORSDOF 7
ENDMDL
MODEL 5
REMARK VINA RESULT:       5.2      1.745      4.723
REMARK  Name = 7113375
REMARK  9 active torsions:
REMARK  status: ('A' for Active; 'I' for Inactive)
REMARK    1  A    between atoms: N_8  and  C_19
REMARK    2  A    between atoms: N_9  and  C_22
REMARK    3  A    between atoms: C_12  and  C_16
REMARK    4  A    between atoms: C_17  and  C_21
REMARK    5  A    between atoms: C_19  and  C_20
REMARK    6  A    between atoms: C_19  and  C_23
REMARK    7  A    between atoms: C_20  and  C_24
REMARK    8  A    between atoms: C_22  and  C_25
REMARK    9  A    between atoms: C_22  and  C_26
REMARK                            x       y       z     vdW  Elec       q    Type
REMARK                         _______ _______ _______ _____ _____    ______ ____
ROOT
ATOM      3  O   UNL     1       1.112  -1.577  24.512  0.00  0.00    -0.269 OA
ATOM      4  O   UNL     1      -2.529   4.025  26.493  0.00  0.00    -0.253 OA
ATOM      6  N   UNL     1       0.697   0.703  24.428  0.00  0.00    -0.283 N 
ATOM      7  N   UNL     1      -0.953   3.010  25.120  0.00  0.00    -0.282 N 
ATOM      9  N   UNL     1      -2.047   4.995  24.464  0.00  0.00    -0.297 N 
ATOM     12  C   UNL     1      -0.400   0.596  25.395  0.00  0.00    +0.179 C 
ATOM     13  C   UNL     1      -0.720   1.924  26.077  0.00  0.00    +0.141 C 
ATOM     14  C   UNL     1       1.035   2.053  23.954  0.00  0.00    +0.128 C 
ATOM     15  C   UNL     1      -0.179   2.971  23.874  0.00  0.00    +0.128 C 
ATOM     17  C   UNL     1       1.426  -0.460  24.095  0.00  0.00    +0.254 C 
ATOM     18  C   UNL     1      -1.888   4.013  25.437  0.00  0.00    +0.303 C 
ATOM     35  H   UNL     1      -1.620   4.880  23.552  0.00  0.00    +0.150 HD
ENDROOT
BRANCH  17  21
ATOM      1  S   UNL     1       4.134  -0.688  23.813  0.00  0.00    -0.092 S 
ATOM     21  C   UNL     1       2.580  -0.301  23.215  0.00  0.00    +0.074 A 
ATOM     27  C   UNL     1       2.612   0.134  21.912  0.00  0.00    +0.021 A 
ATOM     28  C   UNL     1       3.938   0.151  21.392  0.00  0.00    +0.008 A 
ATOM     29  C   UNL     1       4.863  -0.272  22.320  0.00  0.00    +0.046 A 
ENDBRANCH  17  21
BRANCH  12  16
ATOM      2  O   UNL     1      -1.747   0.266  23.448  0.00  0.00    -0.274 OA
ATOM      8  N   UNL     1      -2.461  -0.626  25.476  0.00  0.00    -0.302 N 
ATOM     16  C   UNL     1      -1.592   0.065  24.650  0.00  0.00    +0.236 C 
ATOM     34  H   UNL     1      -2.254  -0.693  26.469  0.00  0.00    +0.150 HD
BRANCH   8  19
ATOM     19  C   UNL     1      -3.695  -1.216  25.010  0.00  0.00    +0.163 C 
BRANCH  19  23
ATOM      5  O   UNL     1      -4.167  -3.316  23.881  0.00  0.00    -0.274 OA
ATOM     10  N   UNL     1      -1.980  -2.786  24.347  0.00  0.00    -0.328 N 
ATOM     23  C   UNL     1      -3.339  -2.550  24.369  0.00  0.00    +0.231 C 
ATOM     36  H   UNL     1      -1.307  -2.143  24.752  0.00  0.00    +0.145 HD
ATOM     37  H   UNL     1      -1.607  -3.633  23.933  0.00  0.00    +0.145 HD
ENDBRANCH  19  23
BRANCH  19  20
ATOM     20  C   UNL     1      -4.424  -0.317  24.004  0.00  0.00    +0.068 C 
BRANCH  20  24
ATOM     11  N   UNL     1      -4.930   3.376  24.548  0.00  0.00    -0.263 NA
ATOM     24  C   UNL     1      -4.896   0.979  24.616  0.00  0.00    -0.027 A 
ATOM     30  C   UNL     1      -5.683   0.967  25.748  0.00  0.00    +0.006 A 
ATOM     31  C   UNL     1      -4.543   2.181  24.050  0.00  0.00    +0.114 A 
ATOM     32  C   UNL     1      -6.102   2.177  26.290  0.00  0.00    +0.020 A 
ATOM     33  C   UNL     1      -5.701   3.344  25.658  0.00  0.00    +0.111 A 
ENDBRANCH  20  24
ENDBRANCH  19  20
ENDBRANCH   8  19
ENDBRANCH  12  16
BRANCH   9  22
ATOM     22  C   UNL     1      -2.970   6.094  24.621  0.00  0.00    +0.068 C 
ATOM     25  C   UNL     1      -2.217   7.412  24.760  0.00  0.00    +0.027 C 
ATOM     26  C   UNL     1      -3.945   6.138  23.451  0.00  0.00    +0.027 C 
ENDBRANCH   9  22
TORSDOF 7
ENDMDL
MODEL 6
REMARK VINA RESULT:       6.3      2.117      5.782
REMARK  Name = 7113375
REMARK  9 active torsions:
REMARK  status: ('A' for Active; 'I' for Inactive)
REMARK    1  A    between atoms: N_8  and  C_19
REMARK    2  A    between atoms: N_9  and  C_22
REMARK    3  A    between atoms: C_12  and  C_16
REMARK    4  A    between atoms: C_17  and  C_21
REMARK    5  A    between atoms: C_19  and  C_20
REMARK    6  A    between atoms: C_19  and  C_23
REMARK    7  A    between atoms: C_20  and  C_24
REMARK    8  A    between atoms: C_22  and  C_25
REMARK    9  A    between atoms: C_22  and  C_26
REMARK                            x       y       z     vdW  Elec       q    Type
REMARK                         _______ _______ _______ _____ _____    ______ ____
ROOT
ATOM      3  O   UNL     1      -3.855   0.227  25.562  0.00  0.00    -0.269 OA
ATOM      4  O   UNL     1       2.913   1.439  24.429  0.00  0.00    -0.253 OA
ATOM      6  N   UNL     1      -1.822  -0.366  24.621  0.00  0.00    -0.283 N 
ATOM      7  N   UNL     1       0.964   0.249  23.997  0.00  0.00    -0.282 N 
ATOM      9  N   UNL     1       2.732   0.303  22.436  0.00  0.00    -0.297 N 
ATOM     12  C   UNL     1      -1.150   0.803  25.195  0.00  0.00    +0.179 C 
ATOM     13  C   UNL     1       0.365   0.635  25.279  0.00  0.00    +0.141 C 
ATOM     14  C   UNL     1      -0.985  -1.303  23.857  0.00  0.00    +0.128 C 
ATOM     15  C   UNL     1       0.158  -0.612  23.124  0.00  0.00    +0.128 C 
ATOM     17  C   UNL     1      -3.186  -0.583  24.918  0.00  0.00    +0.254 C 
ATOM     18  C   UNL     1       2.253   0.714  23.676  0.00  0.00    +0.303 C 
ATOM     35  H   UNL     1       2.115  -0.166  21.783  0.00  0.00    +0.150 HD
ENDROOT
BRANCH  17  21
ATOM      1  S   UNL     1      -3.253  -3.310  25.041  0.00  0.00    -0.092 S 
ATOM     21  C   UNL     1      -3.795  -1.812  24.422  0.00  0.00    +0.074 A 
ATOM     27  C   UNL     1      -4.789  -1.960  23.486  0.00  0.00    +0.021 A 
ATOM     28  C   UNL     1      -5.115  -3.330  23.270  0.00  0.00    +0.008 A 
ATOM     29  C   UNL     1      -4.355  -4.172  24.052  0.00  0.00    +0.046 A 
ENDBRANCH  17  21
BRANCH  12  16
ATOM      2  O   UNL     1      -1.282   2.014  23.138  0.00  0.00    -0.274 OA
ATOM      8  N   UNL     1      -2.115   2.995  25.078  0.00  0.00    -0.302 N 
ATOM     16  C   UNL     1      -1.520   1.984  24.343  0.00  0.00    +0.236 C 
ATOM     34  H   UNL     1      -2.223   2.880  26.082  0.00  0.00    +0.150 HD
BRANCH   8  19
ATOM     19  C   UNL     1      -2.544   4.248  24.499  0.00  0.00    +0.163 C 
BRANCH  19  23
ATOM      5  O   UNL     1      -1.698   6.411  25.214  0.00  0.00    -0.274 OA
ATOM     10  N   UNL     1      -0.190   4.781  24.625  0.00  0.00    -0.328 N 
ATOM     23  C   UNL     1      -1.465   5.276  24.806  0.00  0.00    +0.231 C 
ATOM     36  H   UNL     1      -0.011   3.840  24.290  0.00  0.00    +0.145 HD
ATOM     37  H   UNL     1       0.622   5.360  24.811  0.00  0.00    +0.145 HD
ENDBRANCH  19  23
BRANCH  19  20
ATOM     20  C   UNL     1      -3.896   4.710  25.054  0.00  0.00    +0.068 C 
BRANCH  20  24
ATOM     11  N   UNL     1      -6.222   2.332  26.825  0.00  0.00    -0.263 NA
ATOM     24  C   UNL     1      -4.852   3.566  25.291  0.00  0.00    -0.027 A 
ATOM     30  C   UNL     1      -5.218   2.740  24.248  0.00  0.00    +0.006 A 
ATOM     31  C   UNL     1      -5.364   3.339  26.546  0.00  0.00    +0.114 A 
ATOM     32  C   UNL     1      -6.100   1.694  24.496  0.00  0.00    +0.020 A 
ATOM     33  C   UNL     1      -6.568   1.533  25.791  0.00  0.00    +0.111 A 
ENDBRANCH  20  24
ENDBRANCH  19  20
ENDBRANCH   8  19
ENDBRANCH  12  16
BRANCH   9  22
ATOM     22  C   UNL     1       4.032   0.694  21.943  0.00  0.00    +0.068 C 
ATOM     25  C   UNL     1       4.185   2.210  21.978  0.00  0.00    +0.027 C 
ATOM     26  C   UNL     1       5.131   0.010  22.747  0.00  0.00    +0.027 C 
ENDBRANCH   9  22
TORSDOF 7
ENDMDL
MODEL 7
REMARK VINA RESULT:       6.5      2.958      3.897
REMARK  Name = 7113375
REMARK  9 active torsions:
REMARK  status: ('A' for Active; 'I' for Inactive)
REMARK    1  A    between atoms: N_8  and  C_19
REMARK    2  A    between atoms: N_9  and  C_22
REMARK    3  A    between atoms: C_12  and  C_16
REMARK    4  A    between atoms: C_17  and  C_21
REMARK    5  A    between atoms: C_19  and  C_20
REMARK    6  A    between atoms: C_19  and  C_23
REMARK    7  A    between atoms: C_20  and  C_24
REMARK    8  A    between atoms: C_22  and  C_25
REMARK    9  A    between atoms: C_22  and  C_26
REMARK                            x       y       z     vdW  Elec       q    Type
REMARK                         _______ _______ _______ _____ _____    ______ ____
ROOT
ATOM      3  O   UNL     1       1.271   3.436  25.916  0.00  0.00    -0.269 OA
ATOM      4  O   UNL     1      -1.807  -2.105  23.022  0.00  0.00    -0.253 OA
ATOM      6  N   UNL     1       0.159   1.411  26.101  0.00  0.00    -0.283 N 
ATOM      7  N   UNL     1      -1.292  -0.810  24.881  0.00  0.00    -0.282 N 
ATOM      9  N   UNL     1      -3.136  -2.281  24.891  0.00  0.00    -0.297 N 
ATOM     12  C   UNL     1       0.085   1.254  24.646  0.00  0.00    +0.179 C 
ATOM     13  C   UNL     1      -0.140  -0.195  24.216  0.00  0.00    +0.141 C 
ATOM     14  C   UNL     1      -0.382   0.312  26.915  0.00  0.00    +0.128 C 
ATOM     15  C   UNL     1      -1.568  -0.382  26.258  0.00  0.00    +0.128 C 
ATOM     17  C   UNL     1       0.831   2.535  26.631  0.00  0.00    +0.254 C 
ATOM     18  C   UNL     1      -2.059  -1.760  24.181  0.00  0.00    +0.303 C 
ATOM     35  H   UNL     1      -3.404  -1.875  25.780  0.00  0.00    +0.150 HD
ENDROOT
BRANCH  17  21
ATOM      1  S   UNL     1       2.557   2.599  28.747  0.00  0.00    -0.092 S 
ATOM     21  C   UNL     1       0.983   2.605  28.081  0.00  0.00    +0.074 A 
ATOM     27  C   UNL     1       0.005   2.679  29.044  0.00  0.00    +0.021 A 
ATOM     28  C   UNL     1       0.557   2.732  30.356  0.00  0.00    +0.008 A 
ATOM     29  C   UNL     1       1.934   2.697  30.340  0.00  0.00    +0.046 A 
ENDBRANCH  17  21
BRANCH  12  16
ATOM      2  O   UNL     1      -1.552   1.986  23.065  0.00  0.00    -0.274 OA
ATOM      8  N   UNL     1      -1.344   3.129  25.082  0.00  0.00    -0.302 N 
ATOM     16  C   UNL     1      -1.028   2.142  24.164  0.00  0.00    +0.236 C 
ATOM     34  H   UNL     1      -0.812   3.192  25.945  0.00  0.00    +0.150 HD
BRANCH   8  19
ATOM     19  C   UNL     1      -2.363   4.127  24.850  0.00  0.00    +0.163 C 
BRANCH  19  23
ATOM      5  O   UNL     1      -2.264   6.503  25.351  0.00  0.00    -0.274 OA
ATOM     10  N   UNL     1      -0.353   5.452  24.628  0.00  0.00    -0.328 N 
ATOM     23  C   UNL     1      -1.691   5.488  24.962  0.00  0.00    +0.231 C 
ATOM     36  H   UNL     1       0.108   4.605  24.311  0.00  0.00    +0.145 HD
ATOM     37  H   UNL     1       0.216   6.290  24.676  0.00  0.00    +0.145 HD
ENDBRANCH  19  23
BRANCH  19  20
ATOM     20  C   UNL     1      -3.519   4.018  25.852  0.00  0.00    +0.068 C 
BRANCH  20  24
ATOM     11  N   UNL     1      -4.807   0.650  24.760  0.00  0.00    -0.263 NA
ATOM     24  C   UNL     1      -4.478   2.901  25.517  0.00  0.00    -0.027 A 
ATOM     30  C   UNL     1      -5.838   3.091  25.648  0.00  0.00    +0.006 A 
ATOM     31  C   UNL     1      -4.003   1.689  25.078  0.00  0.00    +0.114 A 
ATOM     32  C   UNL     1      -6.697   2.045  25.332  0.00  0.00    +0.020 A 
ATOM     33  C   UNL     1      -6.136   0.855  24.895  0.00  0.00    +0.111 A 
ENDBRANCH  20  24
ENDBRANCH  19  20
ENDBRANCH   8  19
ENDBRANCH  12  16
BRANCH   9  22
ATOM     22  C   UNL     1      -4.033  -3.261  24.323  0.00  0.00    +0.068 C 
ATOM     25  C   UNL     1      -5.079  -2.585  23.444  0.00  0.00    +0.027 C 
ATOM     26  C   UNL     1      -3.249  -4.307  23.541  0.00  0.00    +0.027 C 
ENDBRANCH   9  22
TORSDOF 7
ENDMDL
