MODEL 1
REMARK VINA RESULT:       3.6      0.000      0.000
REMARK  Name = 11912995
REMARK  5 active torsions:
REMARK  status: ('A' for Active; 'I' for Inactive)
REMARK    1  A    between atoms: N_4  and  C_10
REMARK    2  A    between atoms: N_5  and  C_11
REMARK    3  A    between atoms: C_12  and  C_17
REMARK    4  A    between atoms: C_19  and  C_22
REMARK    5  A    between atoms: C_27  and  C_28
REMARK                            x       y       z     vdW  Elec       q    Type
REMARK                         _______ _______ _______ _____ _____    ______ ____
ROOT
ATOM      5  N   UNL     1      -5.381   1.516  24.302  0.00  0.00    -0.306 N 
ATOM      6  N   UNL     1      -3.309   0.427  24.129  0.00  0.00    -0.214 NA
ATOM      7  N   UNL     1      -5.347  -0.827  24.420  0.00  0.00    -0.223 NA
ATOM     18  C   UNL     1      -4.657   0.337  24.283  0.00  0.00    +0.216 A 
ATOM     19  C   UNL     1      -2.636  -0.742  24.116  0.00  0.00    +0.076 A 
ATOM     20  C   UNL     1      -4.610  -1.958  24.398  0.00  0.00    +0.116 A 
ATOM     21  C   UNL     1      -3.239  -1.976  24.248  0.00  0.00    +0.048 A 
ATOM     35  H   UNL     1      -6.377   1.440  24.470  0.00  0.00    +0.149 HD
ENDROOT
BRANCH   5  11
ATOM      1  O   UNL     1      -2.608   3.892  24.236  0.00  0.00    -0.370 OA
ATOM      2  O   UNL     1      -4.927   3.815  26.323  0.00  0.00    -0.370 OA
ATOM      8  C   UNL     1      -3.650   3.160  26.245  0.00  0.00    +0.171 C 
ATOM      9  C   UNL     1      -3.401   2.827  24.788  0.00  0.00    +0.171 C 
ATOM     10  C   UNL     1      -2.541   4.125  26.596  0.00  0.00    +0.130 C 
ATOM     11  C   UNL     1      -4.779   2.826  24.169  0.00  0.00    +0.130 C 
ATOM     13  C   UNL     1      -2.294   4.830  25.274  0.00  0.00    +0.185 C 
ATOM     14  C   UNL     1      -5.528   3.835  25.020  0.00  0.00    +0.185 C 
BRANCH  10   4
ATOM      3  O   UNL     1      -0.227   3.358  25.010  0.00  0.00    -0.276 OA
ATOM      4  N   UNL     1      -1.361   3.425  27.043  0.00  0.00    -0.307 N 
ATOM     17  C   UNL     1      -0.307   3.103  26.206  0.00  0.00    +0.216 C 
ATOM     34  H   UNL     1      -1.294   3.186  28.028  0.00  0.00    +0.149 HD
BRANCH  17  12
ATOM     12  C   UNL     1       0.810   2.380  26.882  0.00  0.00    +0.075 C 
ATOM     15  C   UNL     1       0.669   2.051  28.329  0.00  0.00    +0.013 C 
ATOM     16  C   UNL     1       1.627   3.118  27.887  0.00  0.00    +0.013 C 
ENDBRANCH  17  12
ENDBRANCH  10   4
ENDBRANCH   5  11
BRANCH  19  22
ATOM     22  C   UNL     1      -1.207  -0.624  23.952  0.00  0.00    +0.001 A 
ATOM     23  C   UNL     1      -0.669   0.449  23.237  0.00  0.00    +0.010 A 
ATOM     24  C   UNL     1      -0.356  -1.582  24.508  0.00  0.00    +0.010 A 
ATOM     25  C   UNL     1       0.712   0.562  23.078  0.00  0.00    +0.009 A 
ATOM     26  C   UNL     1       1.025  -1.469  24.349  0.00  0.00    +0.009 A 
ATOM     27  C   UNL     1       1.559  -0.397  23.634  0.00  0.00    -0.018 A 
BRANCH  27  28
ATOM     28  C   UNL     1       2.992  -0.279  23.469  0.00  0.00    -0.018 A 
ATOM     29  C   UNL     1       3.531   0.849  22.852  0.00  0.00    +0.008 A 
ATOM     30  C   UNL     1       3.834  -1.292  23.928  0.00  0.00    +0.008 A 
ATOM     31  C   UNL     1       4.912   0.964  22.692  0.00  0.00    +0.001 A 
ATOM     32  C   UNL     1       5.214  -1.177  23.770  0.00  0.00    +0.001 A 
ATOM     33  C   UNL     1       5.754  -0.049  23.152  0.00  0.00    +0.000 A 
ENDBRANCH  27  28
ENDBRANCH  19  22
TORSDOF 5
ENDMDL
