MODEL 1
REMARK VINA RESULT:      -4.1      0.000      0.000
REMARK  Name = 45783711
REMARK  6 active torsions:
REMARK  status: ('A' for Active; 'I' for Inactive)
REMARK    1  A    between atoms: O_2  and  C_23
REMARK    2  A    between atoms: O_2  and  C_24
REMARK    3  A    between atoms: N_3  and  C_13
REMARK    4  A    between atoms: C_9  and  C_14
REMARK    5  A    between atoms: C_13  and  C_15
REMARK    6  A    between atoms: C_16  and  C_19
REMARK                            x       y       z     vdW  Elec       q    Type
REMARK                         _______ _______ _______ _____ _____    ______ ____
ROOT
ATOM      1  O   UNL     1      -2.225   1.644  25.670  0.00  0.00    -0.336 OA
ATOM      4  N   UNL     1      -1.709   1.674  23.490  0.00  0.00    -0.190 NA
ATOM      7  N   UNL     1      -0.878   1.270  25.582  0.00  0.00    -0.056 NA
ATOM     14  C   UNL     1      -2.637   1.863  24.393  0.00  0.00    +0.245 A 
ATOM     16  C   UNL     1      -0.648   1.312  24.266  0.00  0.00    +0.204 A 
ENDROOT
BRANCH  16  19
ATOM      8  N   UNL     1       2.944   1.603  23.345  0.00  0.00    -0.221 NA
ATOM     19  C   UNL     1       0.630   0.995  23.696  0.00  0.00    +0.041 A 
ATOM     20  C   UNL     1       0.817  -0.171  22.961  0.00  0.00    +0.018 A 
ATOM     21  C   UNL     1       1.715   1.842  23.857  0.00  0.00    +0.126 A 
ATOM     22  C   UNL     1       2.066  -0.451  22.420  0.00  0.00    +0.068 A 
ATOM     23  C   UNL     1       3.088   0.460  22.638  0.00  0.00    +0.214 A 
BRANCH  23   2
ATOM      2  O   UNL     1       4.328   0.206  22.114  0.00  0.00    -0.480 OA
ATOM     24  C   UNL     1       5.396   0.054  23.042  0.00  0.00    +0.279 C 
ENDBRANCH  23   2
ENDBRANCH  16  19
BRANCH  14   9
ATOM      3  N   UNL     1      -5.003   1.539  25.094  0.00  0.00    -0.284 NA
ATOM      9  C   UNL     1      -4.080   2.286  24.215  0.00  0.00    +0.146 C 
ATOM     10  C   UNL     1      -4.315   3.766  24.569  0.00  0.00    +0.030 C 
ATOM     11  C   UNL     1      -5.425   3.755  25.609  0.00  0.00    +0.017 C 
ATOM     12  C   UNL     1      -6.128   2.434  25.367  0.00  0.00    +0.085 C 
BRANCH   3  13
ATOM     13  C   UNL     1      -5.438   0.271  24.524  0.00  0.00    +0.159 C 
BRANCH  13  15
ATOM      5  N   UNL     1      -3.609  -0.909  25.767  0.00  0.00    -0.347 N 
ATOM      6  N   UNL     1      -4.056  -1.689  23.737  0.00  0.00    -0.239 NA
ATOM     15  C   UNL     1      -4.376  -0.790  24.641  0.00  0.00    +0.121 A 
ATOM     17  C   UNL     1      -2.747  -1.950  25.569  0.00  0.00    +0.104 A 
ATOM     18  C   UNL     1      -3.042  -2.416  24.308  0.00  0.00    +0.130 A 
ATOM     25  H   UNL     1      -3.668  -0.331  26.596  0.00  0.00    +0.167 HD
ENDBRANCH  13  15
ENDBRANCH   3  13
ENDBRANCH  14   9
TORSDOF 5
ENDMDL
MODEL 2
REMARK VINA RESULT:      -3.2      1.874      3.485
REMARK  Name = 45783711
REMARK  6 active torsions:
REMARK  status: ('A' for Active; 'I' for Inactive)
REMARK    1  A    between atoms: O_2  and  C_23
REMARK    2  A    between atoms: O_2  and  C_24
REMARK    3  A    between atoms: N_3  and  C_13
REMARK    4  A    between atoms: C_9  and  C_14
REMARK    5  A    between atoms: C_13  and  C_15
REMARK    6  A    between atoms: C_16  and  C_19
REMARK                            x       y       z     vdW  Elec       q    Type
REMARK                         _______ _______ _______ _____ _____    ______ ____
ROOT
ATOM      1  O   UNL     1      -3.093  -0.630  24.747  0.00  0.00    -0.336 OA
ATOM      4  N   UNL     1      -1.874   1.247  24.684  0.00  0.00    -0.190 NA
ATOM      7  N   UNL     1      -1.866  -0.982  24.169  0.00  0.00    -0.056 NA
ATOM     14  C   UNL     1      -3.014   0.699  25.019  0.00  0.00    +0.245 A 
ATOM     16  C   UNL     1      -1.202   0.179  24.167  0.00  0.00    +0.204 A 
ENDROOT
BRANCH  16  19
ATOM      8  N   UNL     1       2.232   1.500  23.626  0.00  0.00    -0.221 NA
ATOM     19  C   UNL     1       0.132   0.303  23.654  0.00  0.00    +0.041 A 
ATOM     20  C   UNL     1       0.626  -0.601  22.720  0.00  0.00    +0.018 A 
ATOM     21  C   UNL     1       0.967   1.327  24.071  0.00  0.00    +0.126 A 
ATOM     22  C   UNL     1       1.923  -0.455  22.239  0.00  0.00    +0.068 A 
ATOM     23  C   UNL     1       2.678   0.603  22.720  0.00  0.00    +0.214 A 
BRANCH  23   2
ATOM      2  O   UNL     1       3.959   0.768  22.261  0.00  0.00    -0.480 OA
ATOM     24  C   UNL     1       5.004   0.271  23.089  0.00  0.00    +0.279 C 
ENDBRANCH  23   2
ENDBRANCH  16  19
BRANCH  14   9
ATOM      3  N   UNL     1      -4.316   2.784  25.407  0.00  0.00    -0.284 NA
ATOM      9  C   UNL     1      -4.232   1.330  25.658  0.00  0.00    +0.146 C 
ATOM     10  C   UNL     1      -5.554   0.762  25.108  0.00  0.00    +0.030 C 
ATOM     11  C   UNL     1      -6.338   1.974  24.626  0.00  0.00    +0.017 C 
ATOM     12  C   UNL     1      -5.739   3.122  25.413  0.00  0.00    +0.085 C 
BRANCH   3  13
ATOM     13  C   UNL     1      -3.560   3.575  26.368  0.00  0.00    +0.159 C 
BRANCH  13  15
ATOM      5  N   UNL     1      -1.143   3.638  25.710  0.00  0.00    -0.347 N 
ATOM      6  N   UNL     1      -2.342   5.421  25.151  0.00  0.00    -0.239 NA
ATOM     15  C   UNL     1      -2.369   4.242  25.732  0.00  0.00    +0.121 A 
ATOM     17  C   UNL     1      -0.280   4.485  25.074  0.00  0.00    +0.104 A 
ATOM     18  C   UNL     1      -1.043   5.579  24.738  0.00  0.00    +0.130 A 
ATOM     25  H   UNL     1      -0.914   2.731  26.096  0.00  0.00    +0.167 HD
ENDBRANCH  13  15
ENDBRANCH   3  13
ENDBRANCH  14   9
TORSDOF 5
ENDMDL
MODEL 3
REMARK VINA RESULT:      -1.1      1.518      3.513
REMARK  Name = 45783711
REMARK  6 active torsions:
REMARK  status: ('A' for Active; 'I' for Inactive)
REMARK    1  A    between atoms: O_2  and  C_23
REMARK    2  A    between atoms: O_2  and  C_24
REMARK    3  A    between atoms: N_3  and  C_13
REMARK    4  A    between atoms: C_9  and  C_14
REMARK    5  A    between atoms: C_13  and  C_15
REMARK    6  A    between atoms: C_16  and  C_19
REMARK                            x       y       z     vdW  Elec       q    Type
REMARK                         _______ _______ _______ _____ _____    ______ ____
ROOT
ATOM      1  O   UNL     1      -1.582   0.725  23.697  0.00  0.00    -0.336 OA
ATOM      4  N   UNL     1      -0.181  -0.917  24.296  0.00  0.00    -0.190 NA
ATOM      7  N   UNL     1      -0.305   1.133  23.289  0.00  0.00    -0.056 NA
ATOM     14  C   UNL     1      -1.418  -0.492  24.281  0.00  0.00    +0.245 A 
ATOM     16  C   UNL     1       0.465   0.112  23.677  0.00  0.00    +0.204 A 
ENDROOT
BRANCH  16  19
ATOM      8  N   UNL     1       3.898   1.278  22.846  0.00  0.00    -0.221 NA
ATOM     19  C   UNL     1       1.884   0.091  23.463  0.00  0.00    +0.041 A 
ATOM     20  C   UNL     1       2.618  -1.076  23.645  0.00  0.00    +0.018 A 
ATOM     21  C   UNL     1       2.565   1.231  23.066  0.00  0.00    +0.126 A 
ATOM     22  C   UNL     1       3.991  -1.066  23.429  0.00  0.00    +0.068 A 
ATOM     23  C   UNL     1       4.578   0.125  23.033  0.00  0.00    +0.214 A 
BRANCH  23   2
ATOM      2  O   UNL     1       5.930   0.160  22.814  0.00  0.00    -0.480 OA
ATOM     24  C   UNL     1       6.746  -0.558  23.734  0.00  0.00    +0.279 C 
ENDBRANCH  23   2
ENDBRANCH  16  19
BRANCH  14   9
ATOM      3  N   UNL     1      -3.895  -0.393  24.501  0.00  0.00    -0.284 NA
ATOM      9  C   UNL     1      -2.670  -1.157  24.814  0.00  0.00    +0.146 C 
ATOM     10  C   UNL     1      -2.910  -2.550  24.202  0.00  0.00    +0.030 C 
ATOM     11  C   UNL     1      -4.316  -2.492  23.622  0.00  0.00    +0.017 C 
ATOM     12  C   UNL     1      -4.977  -1.373  24.400  0.00  0.00    +0.085 C 
BRANCH   3  13
ATOM     13  C   UNL     1      -4.187   0.648  25.476  0.00  0.00    +0.159 C 
BRANCH  13  15
ATOM      5  N   UNL     1      -2.720   2.676  25.348  0.00  0.00    -0.347 N 
ATOM      6  N   UNL     1      -4.554   2.730  24.098  0.00  0.00    -0.239 NA
ATOM     15  C   UNL     1      -3.852   2.019  24.952  0.00  0.00    +0.121 A 
ATOM     17  C   UNL     1      -2.699   3.882  24.706  0.00  0.00    +0.104 A 
ATOM     18  C   UNL     1      -3.841   3.892  23.940  0.00  0.00    +0.130 A 
ATOM     25  H   UNL     1      -2.026   2.334  26.000  0.00  0.00    +0.167 HD
ENDBRANCH  13  15
ENDBRANCH   3  13
ENDBRANCH  14   9
TORSDOF 5
ENDMDL
