MODEL 1
REMARK VINA RESULT:      -0.3      0.000      0.000
REMARK  Name = 11886048
REMARK  7 active torsions:
REMARK  status: ('A' for Active; 'I' for Inactive)
REMARK    1  A    between atoms: O_3  and  C_14
REMARK    2  A    between atoms: O_3  and  C_18
REMARK    3  A    between atoms: N_6  and  C_13
REMARK    4  A    between atoms: N_10  and  C_22
REMARK    5  A    between atoms: C_17  and  C_19
REMARK    6  A    between atoms: C_30  and  C_31
REMARK    7  A    between atoms: C_31  and  C_32
REMARK                            x       y       z     vdW  Elec       q    Type
REMARK                         _______ _______ _______ _____ _____    ______ ____
ROOT
ATOM      1  O   UNL     1      -2.544   0.103  25.164  0.00  0.00    -0.368 OA
ATOM      2  O   UNL     1      -5.030  -0.880  23.610  0.00  0.00    -0.368 OA
ATOM     11  C   UNL     1      -4.877   0.038  24.716  0.00  0.00    +0.177 C 
ATOM     12  C   UNL     1      -3.769  -0.512  25.592  0.00  0.00    +0.192 C 
ATOM     13  C   UNL     1      -4.337   1.360  24.206  0.00  0.00    +0.168 C 
ATOM     14  C   UNL     1      -3.795  -1.988  25.273  0.00  0.00    +0.235 C 
ATOM     15  C   UNL     1      -2.830   1.128  24.201  0.00  0.00    +0.190 C 
ATOM     16  C   UNL     1      -4.139  -1.988  23.802  0.00  0.00    +0.207 C 
ENDROOT
BRANCH  13   6
ATOM      6  N   UNL     1      -4.794   2.498  25.005  0.00  0.00    -0.217 N 
ATOM      7  N   UNL     1      -6.094   2.657  25.280  0.00  0.00    -0.043 NA
ATOM      8  N   UNL     1      -4.898   4.304  26.191  0.00  0.00    -0.108 NA
ATOM      9  N   UNL     1      -6.152   3.766  26.007  0.00  0.00    -0.023 NA
ATOM     17  C   UNL     1      -4.072   3.502  25.561  0.00  0.00    +0.182 A 
BRANCH  17  19
ATOM     19  C   UNL     1      -2.642   3.636  25.458  0.00  0.00    +0.021 A 
ATOM     20  C   UNL     1      -1.807   2.828  26.232  0.00  0.00    +0.011 A 
ATOM     21  C   UNL     1      -2.087   4.575  24.587  0.00  0.00    +0.011 A 
ATOM     23  C   UNL     1      -0.422   2.959  26.135  0.00  0.00    +0.001 A 
ATOM     24  C   UNL     1      -0.702   4.705  24.490  0.00  0.00    +0.001 A 
ATOM     25  C   UNL     1       0.131   3.897  25.264  0.00  0.00    +0.000 A 
ENDBRANCH  17  19
ENDBRANCH  13   6
BRANCH  14   3
ATOM      3  O   UNL     1      -2.574  -2.642  25.533  0.00  0.00    -0.442 OA
BRANCH   3  18
ATOM      4  O   UNL     1      -1.503  -3.113  23.568  0.00  0.00    -0.226 OA
ATOM     10  N   UNL     1      -0.694  -1.493  25.052  0.00  0.00    -0.251 N 
ATOM     18  C   UNL     1      -1.565  -2.469  24.608  0.00  0.00    +0.405 C 
ATOM     33  H   UNL     1      -0.914  -1.068  25.948  0.00  0.00    +0.158 HD
BRANCH  10  22
ATOM     22  C   UNL     1       0.470  -1.010  24.411  0.00  0.00    +0.036 A 
ATOM     26  C   UNL     1       0.434   0.221  23.776  0.00  0.00    +0.024 A 
ATOM     27  C   UNL     1       1.625  -1.776  24.432  0.00  0.00    +0.024 A 
ATOM     28  C   UNL     1       1.582   0.699  23.145  0.00  0.00    +0.013 A 
ATOM     29  C   UNL     1       2.774  -1.297  23.800  0.00  0.00    +0.013 A 
ATOM     30  C   UNL     1       2.752  -0.060  23.157  0.00  0.00    +0.017 A 
BRANCH  30  31
ATOM      5  O   UNL     1       3.916   0.888  21.337  0.00  0.00    -0.292 OA
ATOM     31  C   UNL     1       3.950   0.439  22.500  0.00  0.00    +0.160 C 
ATOM     32  C   UNL     1       5.289   0.421  23.229  0.00  0.00    +0.091 C 
ENDBRANCH  30  31
ENDBRANCH  10  22
ENDBRANCH   3  18
ENDBRANCH  14   3
TORSDOF 6
ENDMDL
MODEL 2
REMARK VINA RESULT:      -0.2      1.349      1.814
REMARK  Name = 11886048
REMARK  7 active torsions:
REMARK  status: ('A' for Active; 'I' for Inactive)
REMARK    1  A    between atoms: O_3  and  C_14
REMARK    2  A    between atoms: O_3  and  C_18
REMARK    3  A    between atoms: N_6  and  C_13
REMARK    4  A    between atoms: N_10  and  C_22
REMARK    5  A    between atoms: C_17  and  C_19
REMARK    6  A    between atoms: C_30  and  C_31
REMARK    7  A    between atoms: C_31  and  C_32
REMARK                            x       y       z     vdW  Elec       q    Type
REMARK                         _______ _______ _______ _____ _____    ______ ____
ROOT
ATOM      1  O   UNL     1      -2.540   1.016  23.546  0.00  0.00    -0.368 OA
ATOM      2  O   UNL     1      -5.064  -0.502  24.484  0.00  0.00    -0.368 OA
ATOM     11  C   UNL     1      -4.305   0.577  25.075  0.00  0.00    +0.177 C 
ATOM     12  C   UNL     1      -2.847   0.310  24.758  0.00  0.00    +0.192 C 
ATOM     13  C   UNL     1      -4.619   1.873  24.353  0.00  0.00    +0.168 C 
ATOM     14  C   UNL     1      -2.819  -1.186  24.556  0.00  0.00    +0.235 C 
ATOM     15  C   UNL     1      -3.650   1.846  23.176  0.00  0.00    +0.190 C 
ATOM     16  C   UNL     1      -4.153  -1.442  23.896  0.00  0.00    +0.207 C 
ENDROOT
BRANCH  13   6
ATOM      6  N   UNL     1      -4.512   3.042  25.228  0.00  0.00    -0.217 N 
ATOM      7  N   UNL     1      -5.612   3.637  25.704  0.00  0.00    -0.043 NA
ATOM      8  N   UNL     1      -3.783   4.679  26.439  0.00  0.00    -0.108 NA
ATOM      9  N   UNL     1      -5.159   4.640  26.445  0.00  0.00    -0.023 NA
ATOM     17  C   UNL     1      -3.404   3.678  25.678  0.00  0.00    +0.182 A 
BRANCH  17  19
ATOM     19  C   UNL     1      -2.053   3.297  25.356  0.00  0.00    +0.021 A 
ATOM     20  C   UNL     1      -1.353   2.429  26.197  0.00  0.00    +0.011 A 
ATOM     21  C   UNL     1      -1.439   3.795  24.206  0.00  0.00    +0.011 A 
ATOM     23  C   UNL     1      -0.044   2.060  25.887  0.00  0.00    +0.001 A 
ATOM     24  C   UNL     1      -0.130   3.425  23.896  0.00  0.00    +0.001 A 
ATOM     25  C   UNL     1       0.567   2.558  24.737  0.00  0.00    +0.000 A 
ENDBRANCH  17  19
ENDBRANCH  13   6
BRANCH  14   3
ATOM      3  O   UNL     1      -1.741  -1.627  23.761  0.00  0.00    -0.442 OA
BRANCH   3  18
ATOM      4  O   UNL     1      -0.181  -1.529  25.430  0.00  0.00    -0.226 OA
ATOM     10  N   UNL     1       0.357  -1.009  23.212  0.00  0.00    -0.251 N 
ATOM     18  C   UNL     1      -0.471  -1.395  24.248  0.00  0.00    +0.405 C 
ATOM     33  H   UNL     1      -0.070  -0.956  22.291  0.00  0.00    +0.158 HD
BRANCH  10  22
ATOM     22  C   UNL     1       1.730  -0.678  23.274  0.00  0.00    +0.036 A 
ATOM     26  C   UNL     1       2.626  -1.590  23.809  0.00  0.00    +0.024 A 
ATOM     27  C   UNL     1       2.155   0.552  22.796  0.00  0.00    +0.024 A 
ATOM     28  C   UNL     1       3.980  -1.265  23.869  0.00  0.00    +0.013 A 
ATOM     29  C   UNL     1       3.510   0.878  22.857  0.00  0.00    +0.013 A 
ATOM     30  C   UNL     1       4.423  -0.031  23.393  0.00  0.00    +0.017 A 
BRANCH  30  31
ATOM      5  O   UNL     1       6.238   1.311  24.078  0.00  0.00    -0.292 OA
ATOM     31  C   UNL     1       5.835   0.308  23.454  0.00  0.00    +0.160 C 
ATOM     32  C   UNL     1       6.867  -0.565  22.749  0.00  0.00    +0.091 C 
ENDBRANCH  30  31
ENDBRANCH  10  22
ENDBRANCH   3  18
ENDBRANCH  14   3
TORSDOF 6
ENDMDL
MODEL 3
REMARK VINA RESULT:       2.8      2.082      4.394
REMARK  Name = 11886048
REMARK  7 active torsions:
REMARK  status: ('A' for Active; 'I' for Inactive)
REMARK    1  A    between atoms: O_3  and  C_14
REMARK    2  A    between atoms: O_3  and  C_18
REMARK    3  A    between atoms: N_6  and  C_13
REMARK    4  A    between atoms: N_10  and  C_22
REMARK    5  A    between atoms: C_17  and  C_19
REMARK    6  A    between atoms: C_30  and  C_31
REMARK    7  A    between atoms: C_31  and  C_32
REMARK                            x       y       z     vdW  Elec       q    Type
REMARK                         _______ _______ _______ _____ _____    ______ ____
ROOT
ATOM      1  O   UNL     1      -1.386   0.347  25.104  0.00  0.00    -0.368 OA
ATOM      2  O   UNL     1      -0.600   3.069  23.866  0.00  0.00    -0.368 OA
ATOM     11  C   UNL     1      -1.867   2.383  23.977  0.00  0.00    +0.177 C 
ATOM     12  C   UNL     1      -1.583   0.905  23.796  0.00  0.00    +0.192 C 
ATOM     13  C   UNL     1      -2.383   2.499  25.399  0.00  0.00    +0.168 C 
ATOM     14  C   UNL     1      -0.305   0.909  22.991  0.00  0.00    +0.235 C 
ATOM     15  C   UNL     1      -1.699   1.331  26.101  0.00  0.00    +0.190 C 
ATOM     16  C   UNL     1       0.420   2.109  23.553  0.00  0.00    +0.207 C 
ENDROOT
BRANCH  13   6
ATOM      6  N   UNL     1      -3.846   2.502  25.466  0.00  0.00    -0.217 N 
ATOM      7  N   UNL     1      -4.513   3.642  25.680  0.00  0.00    -0.043 NA
ATOM      8  N   UNL     1      -5.933   1.935  25.469  0.00  0.00    -0.108 NA
ATOM      9  N   UNL     1      -5.793   3.288  25.681  0.00  0.00    -0.023 NA
ATOM     17  C   UNL     1      -4.713   1.468  25.338  0.00  0.00    +0.182 A 
BRANCH  17  19
ATOM     19  C   UNL     1      -4.328   0.101  25.101  0.00  0.00    +0.021 A 
ATOM     20  C   UNL     1      -3.843  -0.681  26.150  0.00  0.00    +0.011 A 
ATOM     21  C   UNL     1      -4.437  -0.445  23.821  0.00  0.00    +0.011 A 
ATOM     23  C   UNL     1      -3.468  -2.005  25.920  0.00  0.00    +0.001 A 
ATOM     24  C   UNL     1      -4.063  -1.769  23.592  0.00  0.00    +0.001 A 
ATOM     25  C   UNL     1      -3.578  -2.549  24.642  0.00  0.00    +0.000 A 
ENDBRANCH  17  19
ENDBRANCH  13   6
BRANCH  14   3
ATOM      3  O   UNL     1       0.447  -0.275  23.124  0.00  0.00    -0.442 OA
BRANCH   3  18
ATOM      4  O   UNL     1       1.907  -0.226  21.364  0.00  0.00    -0.226 OA
ATOM     10  N   UNL     1       2.655  -0.339  23.580  0.00  0.00    -0.251 N 
ATOM     18  C   UNL     1       1.712  -0.276  22.572  0.00  0.00    +0.405 C 
ATOM     33  H   UNL     1       2.296  -0.373  24.530  0.00  0.00    +0.158 HD
BRANCH  10  22
ATOM     22  C   UNL     1       4.063  -0.361  23.453  0.00  0.00    +0.036 A 
ATOM     26  C   UNL     1       4.754  -1.524  23.752  0.00  0.00    +0.024 A 
ATOM     27  C   UNL     1       4.725   0.781  23.031  0.00  0.00    +0.024 A 
ATOM     28  C   UNL     1       6.142  -1.547  23.627  0.00  0.00    +0.013 A 
ATOM     29  C   UNL     1       6.114   0.759  22.906  0.00  0.00    +0.013 A 
ATOM     30  C   UNL     1       6.823  -0.406  23.204  0.00  0.00    +0.017 A 
BRANCH  30  31
ATOM      5  O   UNL     1       8.838  -1.173  22.246  0.00  0.00    -0.292 OA
ATOM     31  C   UNL     1       8.271  -0.429  23.071  0.00  0.00    +0.160 C 
ATOM     32  C   UNL     1       9.137   0.468  23.949  0.00  0.00    +0.091 C 
ENDBRANCH  30  31
ENDBRANCH  10  22
ENDBRANCH   3  18
ENDBRANCH  14   3
TORSDOF 6
ENDMDL
MODEL 4
REMARK VINA RESULT:       3.0      1.704      2.613
REMARK  Name = 11886048
REMARK  7 active torsions:
REMARK  status: ('A' for Active; 'I' for Inactive)
REMARK    1  A    between atoms: O_3  and  C_14
REMARK    2  A    between atoms: O_3  and  C_18
REMARK    3  A    between atoms: N_6  and  C_13
REMARK    4  A    between atoms: N_10  and  C_22
REMARK    5  A    between atoms: C_17  and  C_19
REMARK    6  A    between atoms: C_30  and  C_31
REMARK    7  A    between atoms: C_31  and  C_32
REMARK                            x       y       z     vdW  Elec       q    Type
REMARK                         _______ _______ _______ _____ _____    ______ ____
ROOT
ATOM      1  O   UNL     1      -3.197   0.012  23.149  0.00  0.00    -0.368 OA
ATOM      2  O   UNL     1      -2.038  -0.752  25.912  0.00  0.00    -0.368 OA
ATOM     11  C   UNL     1      -2.583   0.483  25.396  0.00  0.00    +0.177 C 
ATOM     12  C   UNL     1      -2.148   0.583  23.947  0.00  0.00    +0.192 C 
ATOM     13  C   UNL     1      -4.095   0.383  25.333  0.00  0.00    +0.168 C 
ATOM     14  C   UNL     1      -0.899  -0.264  23.917  0.00  0.00    +0.235 C 
ATOM     15  C   UNL     1      -4.331  -0.278  23.979  0.00  0.00    +0.190 C 
ATOM     16  C   UNL     1      -1.239  -1.367  24.891  0.00  0.00    +0.207 C 
ENDROOT
BRANCH  13   6
ATOM      6  N   UNL     1      -4.751   1.678  25.523  0.00  0.00    -0.217 N 
ATOM      7  N   UNL     1      -6.061   1.743  25.788  0.00  0.00    -0.043 NA
ATOM      8  N   UNL     1      -5.180   3.790  25.705  0.00  0.00    -0.108 NA
ATOM      9  N   UNL     1      -6.318   3.040  25.898  0.00  0.00    -0.023 NA
ATOM     17  C   UNL     1      -4.221   2.924  25.474  0.00  0.00    +0.182 A 
BRANCH  17  19
ATOM     19  C   UNL     1      -2.835   3.214  25.211  0.00  0.00    +0.021 A 
ATOM     20  C   UNL     1      -1.907   3.197  26.253  0.00  0.00    +0.011 A 
ATOM     21  C   UNL     1      -2.417   3.516  23.914  0.00  0.00    +0.011 A 
ATOM     23  C   UNL     1      -0.565   3.480  25.999  0.00  0.00    +0.001 A 
ATOM     24  C   UNL     1      -1.074   3.799  23.660  0.00  0.00    +0.001 A 
ATOM     25  C   UNL     1      -0.149   3.781  24.703  0.00  0.00    +0.000 A 
ENDBRANCH  17  19
ENDBRANCH  13   6
BRANCH  14   3
ATOM      3  O   UNL     1      -0.588  -0.765  22.636  0.00  0.00    -0.442 OA
BRANCH   3  18
ATOM      4  O   UNL     1       1.042  -0.646  21.037  0.00  0.00    -0.226 OA
ATOM     10  N   UNL     1       1.547  -0.522  23.319  0.00  0.00    -0.251 N 
ATOM     18  C   UNL     1       0.721  -0.643  22.219  0.00  0.00    +0.405 C 
ATOM     33  H   UNL     1       1.091  -0.540  24.228  0.00  0.00    +0.158 HD
BRANCH  10  22
ATOM     22  C   UNL     1       2.953  -0.375  23.340  0.00  0.00    +0.036 A 
ATOM     26  C   UNL     1       3.520   0.803  22.880  0.00  0.00    +0.024 A 
ATOM     27  C   UNL     1       3.737  -1.412  23.820  0.00  0.00    +0.024 A 
ATOM     28  C   UNL     1       4.906   0.949  22.901  0.00  0.00    +0.013 A 
ATOM     29  C   UNL     1       5.125  -1.266  23.841  0.00  0.00    +0.013 A 
ATOM     30  C   UNL     1       5.709  -0.085  23.381  0.00  0.00    +0.017 A 
BRANCH  30  31
ATOM      5  O   UNL     1       7.702   0.999  24.026  0.00  0.00    -0.292 OA
ATOM     31  C   UNL     1       7.155   0.066  23.404  0.00  0.00    +0.160 C 
ATOM     32  C   UNL     1       8.044  -0.924  22.659  0.00  0.00    +0.091 C 
ENDBRANCH  30  31
ENDBRANCH  10  22
ENDBRANCH   3  18
ENDBRANCH  14   3
TORSDOF 6
ENDMDL
MODEL 5
REMARK VINA RESULT:       3.2      2.234      4.218
REMARK  Name = 11886048
REMARK  7 active torsions:
REMARK  status: ('A' for Active; 'I' for Inactive)
REMARK    1  A    between atoms: O_3  and  C_14
REMARK    2  A    between atoms: O_3  and  C_18
REMARK    3  A    between atoms: N_6  and  C_13
REMARK    4  A    between atoms: N_10  and  C_22
REMARK    5  A    between atoms: C_17  and  C_19
REMARK    6  A    between atoms: C_30  and  C_31
REMARK    7  A    between atoms: C_31  and  C_32
REMARK                            x       y       z     vdW  Elec       q    Type
REMARK                         _______ _______ _______ _____ _____    ______ ____
ROOT
ATOM      1  O   UNL     1      -1.745   2.890  25.006  0.00  0.00    -0.368 OA
ATOM      2  O   UNL     1      -2.868   1.904  22.299  0.00  0.00    -0.368 OA
ATOM     11  C   UNL     1      -3.241   1.619  23.667  0.00  0.00    +0.177 C 
ATOM     12  C   UNL     1      -1.958   1.574  24.471  0.00  0.00    +0.192 C 
ATOM     13  C   UNL     1      -4.006   2.797  24.238  0.00  0.00    +0.168 C 
ATOM     14  C   UNL     1      -0.925   1.222  23.428  0.00  0.00    +0.235 C 
ATOM     15  C   UNL     1      -2.893   3.710  24.741  0.00  0.00    +0.190 C 
ATOM     16  C   UNL     1      -1.437   1.957  22.212  0.00  0.00    +0.207 C 
ENDROOT
BRANCH  13   6
ATOM      6  N   UNL     1      -4.989   2.392  25.246  0.00  0.00    -0.217 N 
ATOM      7  N   UNL     1      -5.776   3.301  25.832  0.00  0.00    -0.043 NA
ATOM      8  N   UNL     1      -6.220   1.263  26.620  0.00  0.00    -0.108 NA
ATOM      9  N   UNL     1      -6.528   2.604  26.674  0.00  0.00    -0.023 NA
ATOM     17  C   UNL     1      -5.263   1.155  25.728  0.00  0.00    +0.182 A 
BRANCH  17  19
ATOM     19  C   UNL     1      -4.598  -0.052  25.311  0.00  0.00    +0.021 A 
ATOM     20  C   UNL     1      -4.941  -0.657  24.100  0.00  0.00    +0.011 A 
ATOM     21  C   UNL     1      -3.611  -0.622  26.117  0.00  0.00    +0.011 A 
ATOM     23  C   UNL     1      -4.298  -1.827  23.697  0.00  0.00    +0.001 A 
ATOM     24  C   UNL     1      -2.968  -1.793  25.713  0.00  0.00    +0.001 A 
ATOM     25  C   UNL     1      -3.313  -2.395  24.503  0.00  0.00    +0.000 A 
ENDBRANCH  17  19
ENDBRANCH  13   6
BRANCH  14   3
ATOM      3  O   UNL     1       0.384   1.616  23.774  0.00  0.00    -0.442 OA
BRANCH   3  18
ATOM      4  O   UNL     1       1.191  -0.461  23.261  0.00  0.00    -0.226 OA
ATOM     10  N   UNL     1       2.615   1.374  23.550  0.00  0.00    -0.251 N 
ATOM     18  C   UNL     1       1.398   0.722  23.502  0.00  0.00    +0.405 C 
ATOM     33  H   UNL     1       2.584   2.367  23.767  0.00  0.00    +0.158 HD
BRANCH  10  22
ATOM     22  C   UNL     1       3.902   0.832  23.333  0.00  0.00    +0.036 A 
ATOM     26  C   UNL     1       4.298   0.518  22.043  0.00  0.00    +0.024 A 
ATOM     27  C   UNL     1       4.744   0.625  24.415  0.00  0.00    +0.024 A 
ATOM     28  C   UNL     1       5.568  -0.016  21.828  0.00  0.00    +0.013 A 
ATOM     29  C   UNL     1       6.014   0.090  24.199  0.00  0.00    +0.013 A 
ATOM     30  C   UNL     1       6.426  -0.230  22.905  0.00  0.00    +0.017 A 
BRANCH  30  31
ATOM      5  O   UNL     1       7.917  -1.824  22.012  0.00  0.00    -0.292 OA
ATOM     31  C   UNL     1       7.751  -0.786  22.682  0.00  0.00    +0.160 C 
ATOM     32  C   UNL     1       8.981  -0.102  23.270  0.00  0.00    +0.091 C 
ENDBRANCH  30  31
ENDBRANCH  10  22
ENDBRANCH   3  18
ENDBRANCH  14   3
TORSDOF 6
ENDMDL
