MODEL 1
REMARK VINA RESULT:      -1.0      0.000      0.000
REMARK  Name = 28961418
REMARK  9 active torsions:
REMARK  status: ('A' for Active; 'I' for Inactive)
REMARK    1  A    between atoms: O_3  and  C_10
REMARK    2  A    between atoms: O_4  and  C_17
REMARK    3  A    between atoms: N_5  and  C_8
REMARK    4  A    between atoms: N_6  and  C_18
REMARK    5  A    between atoms: N_7  and  C_14
REMARK    6  A    between atoms: N_7  and  C_19
REMARK    7  A    between atoms: C_9  and  C_14
REMARK    8  A    between atoms: C_11  and  C_17
REMARK    9  A    between atoms: C_19  and  C_22
REMARK                            x       y       z     vdW  Elec       q    Type
REMARK                         _______ _______ _______ _____ _____    ______ ____
ROOT
ATOM      2  O   UNL     1      -4.870   3.279  23.711  0.00  0.00    -0.366 OA
ATOM      8  C   UNL     1      -2.500   3.111  23.843  0.00  0.00    +0.118 C 
ATOM      9  C   UNL     1      -3.762   2.480  23.241  0.00  0.00    +0.152 C 
ATOM     10  C   UNL     1      -3.022   3.794  25.099  0.00  0.00    +0.165 C 
ATOM     11  C   UNL     1      -4.374   4.295  24.603  0.00  0.00    +0.174 C 
ENDROOT
BRANCH   8   5
ATOM      5  N   UNL     1      -1.371   2.220  24.049  0.00  0.00    -0.292 NA
ATOM      6  N   UNL     1       1.251   1.185  23.587  0.00  0.00    -0.327 N 
ATOM     12  C   UNL     1      -1.072   1.477  22.818  0.00  0.00    +0.104 C 
ATOM     13  C   UNL     1      -0.187   2.977  24.474  0.00  0.00    +0.104 C 
ATOM     15  C   UNL     1       0.079   0.493  23.036  0.00  0.00    +0.120 C 
ATOM     16  C   UNL     1       0.995   2.043  24.747  0.00  0.00    +0.120 C 
BRANCH   6  18
ATOM     18  C   UNL     1       2.504   0.580  23.435  0.00  0.00    +0.030 A 
ATOM     20  C   UNL     1       3.597   1.337  23.011  0.00  0.00    +0.023 A 
ATOM     21  C   UNL     1       2.661  -0.778  23.709  0.00  0.00    +0.023 A 
ATOM     23  C   UNL     1       4.847   0.734  22.862  0.00  0.00    +0.002 A 
ATOM     24  C   UNL     1       3.909  -1.380  23.561  0.00  0.00    +0.002 A 
ATOM     25  C   UNL     1       5.003  -0.624  23.138  0.00  0.00    +0.000 A 
ENDBRANCH   6  18
ENDBRANCH   8   5
BRANCH  10   3
ATOM      3  O   UNL     1      -3.199   2.866  26.161  0.00  0.00    -0.388 OA
ATOM     31  H   UNL     1      -4.150   2.686  26.240  0.00  0.00    +0.210 HD
ENDBRANCH  10   3
BRANCH   9  14
ATOM     14  C   UNL     1      -4.053   1.033  23.627  0.00  0.00    +0.114 C 
BRANCH  14   7
ATOM      7  N   UNL     1      -5.031   0.967  24.703  0.00  0.00    -0.310 NA
ATOM     32  H   UNL     1      -5.921   0.639  24.330  0.00  0.00    +0.122 HD
BRANCH   7  19
ATOM     19  C   UNL     1      -4.583   0.069  25.760  0.00  0.00    +0.116 C 
BRANCH  19  22
ATOM      1 CL   UNL     1       0.154  -2.092  25.548  0.00  0.00    -0.084 Cl
ATOM     22  C   UNL     1      -3.684  -1.016  25.229  0.00  0.00    -0.032 A 
ATOM     26  C   UNL     1      -2.339  -1.047  25.592  0.00  0.00    +0.025 A 
ATOM     27  C   UNL     1      -4.199  -1.988  24.370  0.00  0.00    +0.005 A 
ATOM     28  C   UNL     1      -1.507  -2.052  25.099  0.00  0.00    +0.041 A 
ATOM     29  C   UNL     1      -3.367  -2.993  23.878  0.00  0.00    +0.002 A 
ATOM     30  C   UNL     1      -2.020  -3.025  24.242  0.00  0.00    +0.020 A 
ENDBRANCH  19  22
ENDBRANCH   7  19
ENDBRANCH  14   7
ENDBRANCH   9  14
BRANCH  11  17
ATOM     17  C   UNL     1      -5.407   4.563  25.681  0.00  0.00    +0.190 C 
BRANCH  17   4
ATOM      4  O   UNL     1      -6.191   3.396  25.866  0.00  0.00    -0.392 OA
ATOM     33  H   UNL     1      -6.152   3.171  26.812  0.00  0.00    +0.210 HD
ENDBRANCH  17   4
ENDBRANCH  11  17
TORSDOF 9
ENDMDL
MODEL 2
REMARK VINA RESULT:       1.6      1.310      1.994
REMARK  Name = 28961418
REMARK  9 active torsions:
REMARK  status: ('A' for Active; 'I' for Inactive)
REMARK    1  A    between atoms: O_3  and  C_10
REMARK    2  A    between atoms: O_4  and  C_17
REMARK    3  A    between atoms: N_5  and  C_8
REMARK    4  A    between atoms: N_6  and  C_18
REMARK    5  A    between atoms: N_7  and  C_14
REMARK    6  A    between atoms: N_7  and  C_19
REMARK    7  A    between atoms: C_9  and  C_14
REMARK    8  A    between atoms: C_11  and  C_17
REMARK    9  A    between atoms: C_19  and  C_22
REMARK                            x       y       z     vdW  Elec       q    Type
REMARK                         _______ _______ _______ _____ _____    ______ ____
ROOT
ATOM      2  O   UNL     1      -5.161   4.001  24.850  0.00  0.00    -0.366 OA
ATOM      8  C   UNL     1      -2.895   4.002  25.578  0.00  0.00    +0.118 C 
ATOM      9  C   UNL     1      -3.819   4.251  24.379  0.00  0.00    +0.152 C 
ATOM     10  C   UNL     1      -3.691   3.021  26.427  0.00  0.00    +0.165 C 
ATOM     11  C   UNL     1      -5.104   3.553  26.218  0.00  0.00    +0.174 C 
ENDROOT
BRANCH   8   5
ATOM      5  N   UNL     1      -1.537   3.591  25.268  0.00  0.00    -0.292 NA
ATOM      6  N   UNL     1       0.486   1.986  24.049  0.00  0.00    -0.327 N 
ATOM     12  C   UNL     1      -1.295   2.220  25.735  0.00  0.00    +0.104 C 
ATOM     13  C   UNL     1      -1.290   3.676  23.823  0.00  0.00    +0.104 C 
ATOM     15  C   UNL     1       0.150   1.795  25.465  0.00  0.00    +0.120 C 
ATOM     16  C   UNL     1       0.155   3.299  23.489  0.00  0.00    +0.120 C 
BRANCH   6  18
ATOM     18  C   UNL     1       1.562   1.259  23.525  0.00  0.00    +0.030 A 
ATOM     20  C   UNL     1       1.390  -0.076  23.160  0.00  0.00    +0.023 A 
ATOM     21  C   UNL     1       2.805   1.870  23.366  0.00  0.00    +0.023 A 
ATOM     23  C   UNL     1       2.462  -0.799  22.635  0.00  0.00    +0.002 A 
ATOM     24  C   UNL     1       3.876   1.148  22.841  0.00  0.00    +0.002 A 
ATOM     25  C   UNL     1       3.704  -0.187  22.475  0.00  0.00    +0.000 A 
ENDBRANCH   6  18
ENDBRANCH   8   5
BRANCH  10   3
ATOM      3  O   UNL     1      -3.583   1.694  25.928  0.00  0.00    -0.388 OA
ATOM     31  H   UNL     1      -2.923   1.229  26.468  0.00  0.00    +0.210 HD
ENDBRANCH  10   3
BRANCH   9  14
ATOM     14  C   UNL     1      -3.599   3.371  23.153  0.00  0.00    +0.114 C 
BRANCH  14   7
ATOM      7  N   UNL     1      -4.040   2.007  23.405  0.00  0.00    -0.310 NA
ATOM     32  H   UNL     1      -4.995   1.893  23.063  0.00  0.00    +0.122 HD
BRANCH   7  19
ATOM     19  C   UNL     1      -3.168   1.046  22.743  0.00  0.00    +0.116 C 
BRANCH  19  22
ATOM      1 CL   UNL     1      -0.234  -2.235  25.534  0.00  0.00    -0.084 Cl
ATOM     22  C   UNL     1      -3.055  -0.237  23.522  0.00  0.00    -0.032 A 
ATOM     26  C   UNL     1      -1.839  -0.599  24.100  0.00  0.00    +0.025 A 
ATOM     27  C   UNL     1      -4.169  -1.065  23.664  0.00  0.00    +0.005 A 
ATOM     28  C   UNL     1      -1.735  -1.788  24.820  0.00  0.00    +0.041 A 
ATOM     29  C   UNL     1      -4.066  -2.254  24.386  0.00  0.00    +0.002 A 
ATOM     30  C   UNL     1      -2.849  -2.616  24.964  0.00  0.00    +0.020 A 
ENDBRANCH  19  22
ENDBRANCH   7  19
ENDBRANCH  14   7
ENDBRANCH   9  14
BRANCH  11  17
ATOM     17  C   UNL     1      -6.221   2.556  26.466  0.00  0.00    +0.190 C 
BRANCH  17   4
ATOM      4  O   UNL     1      -6.558   1.930  25.239  0.00  0.00    -0.392 OA
ATOM     33  H   UNL     1      -5.840   2.122  24.612  0.00  0.00    +0.210 HD
ENDBRANCH  17   4
ENDBRANCH  11  17
TORSDOF 9
ENDMDL
MODEL 3
REMARK VINA RESULT:       2.0      1.327      1.884
REMARK  Name = 28961418
REMARK  9 active torsions:
REMARK  status: ('A' for Active; 'I' for Inactive)
REMARK    1  A    between atoms: O_3  and  C_10
REMARK    2  A    between atoms: O_4  and  C_17
REMARK    3  A    between atoms: N_5  and  C_8
REMARK    4  A    between atoms: N_6  and  C_18
REMARK    5  A    between atoms: N_7  and  C_14
REMARK    6  A    between atoms: N_7  and  C_19
REMARK    7  A    between atoms: C_9  and  C_14
REMARK    8  A    between atoms: C_11  and  C_17
REMARK    9  A    between atoms: C_19  and  C_22
REMARK                            x       y       z     vdW  Elec       q    Type
REMARK                         _______ _______ _______ _____ _____    ______ ____
ROOT
ATOM      2  O   UNL     1      -5.047   2.608  24.267  0.00  0.00    -0.366 OA
ATOM      8  C   UNL     1      -2.739   2.437  23.711  0.00  0.00    +0.118 C 
ATOM      9  C   UNL     1      -4.024   1.636  23.960  0.00  0.00    +0.152 C 
ATOM     10  C   UNL     1      -2.965   3.708  24.517  0.00  0.00    +0.165 C 
ATOM     11  C   UNL     1      -4.457   3.922  24.289  0.00  0.00    +0.174 C 
ENDROOT
BRANCH   8   5
ATOM      5  N   UNL     1      -1.490   1.748  23.980  0.00  0.00    -0.292 NA
ATOM      6  N   UNL     1       1.221   0.983  23.504  0.00  0.00    -0.327 N 
ATOM     12  C   UNL     1      -1.159   0.833  22.880  0.00  0.00    +0.104 C 
ATOM     13  C   UNL     1      -0.400   2.713  24.171  0.00  0.00    +0.104 C 
ATOM     15  C   UNL     1       0.127   0.059  23.178  0.00  0.00    +0.120 C 
ATOM     16  C   UNL     1       0.912   2.002  24.511  0.00  0.00    +0.120 C 
BRANCH   6  18
ATOM     18  C   UNL     1       2.535   0.522  23.362  0.00  0.00    +0.030 A 
ATOM     20  C   UNL     1       2.851  -0.797  23.690  0.00  0.00    +0.023 A 
ATOM     21  C   UNL     1       3.528   1.380  22.892  0.00  0.00    +0.023 A 
ATOM     23  C   UNL     1       4.160  -1.257  23.546  0.00  0.00    +0.002 A 
ATOM     24  C   UNL     1       4.836   0.921  22.748  0.00  0.00    +0.002 A 
ATOM     25  C   UNL     1       5.153  -0.398  23.075  0.00  0.00    +0.000 A 
ENDBRANCH   6  18
ENDBRANCH   8   5
BRANCH  10   3
ATOM      3  O   UNL     1      -2.700   3.503  25.898  0.00  0.00    -0.388 OA
ATOM     31  H   UNL     1      -1.861   3.016  25.968  0.00  0.00    +0.210 HD
ENDBRANCH  10   3
BRANCH   9  14
ATOM     14  C   UNL     1      -3.992   0.635  25.110  0.00  0.00    +0.114 C 
BRANCH  14   7
ATOM      7  N   UNL     1      -2.797   0.813  25.923  0.00  0.00    -0.310 NA
ATOM     32  H   UNL     1      -3.007   1.439  26.700  0.00  0.00    +0.122 HD
BRANCH   7  19
ATOM     19  C   UNL     1      -2.323  -0.464  26.440  0.00  0.00    +0.116 C 
BRANCH  19  22
ATOM      1 CL   UNL     1      -5.254  -3.422  23.307  0.00  0.00    -0.084 Cl
ATOM     22  C   UNL     1      -2.407  -1.554  25.405  0.00  0.00    -0.032 A 
ATOM     26  C   UNL     1      -3.646  -1.937  24.895  0.00  0.00    +0.025 A 
ATOM     27  C   UNL     1      -1.243  -2.181  24.957  0.00  0.00    +0.005 A 
ATOM     28  C   UNL     1      -3.724  -2.948  23.937  0.00  0.00    +0.041 A 
ATOM     29  C   UNL     1      -1.321  -3.190  23.998  0.00  0.00    +0.002 A 
ATOM     30  C   UNL     1      -2.561  -3.574  23.488  0.00  0.00    +0.020 A 
ENDBRANCH  19  22
ENDBRANCH   7  19
ENDBRANCH  14   7
ENDBRANCH   9  14
BRANCH  11  17
ATOM     17  C   UNL     1      -5.162   4.770  25.332  0.00  0.00    +0.190 C 
BRANCH  17   4
ATOM      4  O   UNL     1      -6.282   4.053  25.826  0.00  0.00    -0.392 OA
ATOM     33  H   UNL     1      -6.229   3.153  25.463  0.00  0.00    +0.210 HD
ENDBRANCH  17   4
ENDBRANCH  11  17
TORSDOF 9
ENDMDL
MODEL 4
REMARK VINA RESULT:       2.8      2.337      4.470
REMARK  Name = 28961418
REMARK  9 active torsions:
REMARK  status: ('A' for Active; 'I' for Inactive)
REMARK    1  A    between atoms: O_3  and  C_10
REMARK    2  A    between atoms: O_4  and  C_17
REMARK    3  A    between atoms: N_5  and  C_8
REMARK    4  A    between atoms: N_6  and  C_18
REMARK    5  A    between atoms: N_7  and  C_14
REMARK    6  A    between atoms: N_7  and  C_19
REMARK    7  A    between atoms: C_9  and  C_14
REMARK    8  A    between atoms: C_11  and  C_17
REMARK    9  A    between atoms: C_19  and  C_22
REMARK                            x       y       z     vdW  Elec       q    Type
REMARK                         _______ _______ _______ _____ _____    ______ ____
ROOT
ATOM      2  O   UNL     1      -4.035  -0.382  25.891  0.00  0.00    -0.366 OA
ATOM      8  C   UNL     1      -2.578  -1.309  24.252  0.00  0.00    +0.118 C 
ATOM      9  C   UNL     1      -2.774  -1.074  25.756  0.00  0.00    +0.152 C 
ATOM     10  C   UNL     1      -3.389  -0.187  23.621  0.00  0.00    +0.165 C 
ATOM     11  C   UNL     1      -4.572  -0.123  24.580  0.00  0.00    +0.174 C 
ENDROOT
BRANCH   8   5
ATOM      5  N   UNL     1      -1.205  -1.414  23.792  0.00  0.00    -0.292 NA
ATOM      6  N   UNL     1       1.558  -0.702  23.648  0.00  0.00    -0.327 N 
ATOM     12  C   UNL     1      -0.791  -0.176  23.120  0.00  0.00    +0.104 C 
ATOM     13  C   UNL     1      -0.304  -1.695  24.918  0.00  0.00    +0.104 C 
ATOM     15  C   UNL     1       0.636  -0.294  22.581  0.00  0.00    +0.120 C 
ATOM     16  C   UNL     1       1.140  -1.863  24.439  0.00  0.00    +0.120 C 
BRANCH   6  18
ATOM     18  C   UNL     1       2.921  -0.432  23.479  0.00  0.00    +0.030 A 
ATOM     20  C   UNL     1       3.326   0.765  22.888  0.00  0.00    +0.023 A 
ATOM     21  C   UNL     1       3.873  -1.357  23.903  0.00  0.00    +0.023 A 
ATOM     23  C   UNL     1       4.685   1.036  22.722  0.00  0.00    +0.002 A 
ATOM     24  C   UNL     1       5.231  -1.087  23.737  0.00  0.00    +0.002 A 
ATOM     25  C   UNL     1       5.637   0.110  23.147  0.00  0.00    +0.000 A 
ENDBRANCH   6  18
ENDBRANCH   8   5
BRANCH  10   3
ATOM      3  O   UNL     1      -2.675   1.042  23.634  0.00  0.00    -0.388 OA
ATOM     31  H   UNL     1      -2.441   1.237  24.557  0.00  0.00    +0.210 HD
ENDBRANCH  10   3
BRANCH   9  14
ATOM     14  C   UNL     1      -1.717  -0.229  26.459  0.00  0.00    +0.114 C 
BRANCH  14   7
ATOM      7  N   UNL     1      -1.093   0.703  25.530  0.00  0.00    -0.310 NA
ATOM     32  H   UNL     1      -1.782   1.003  24.841  0.00  0.00    +0.122 HD
BRANCH   7  19
ATOM     19  C   UNL     1      -0.567   1.865  26.233  0.00  0.00    +0.116 C 
BRANCH  19  22
ATOM      1 CL   UNL     1      -4.950   4.609  25.588  0.00  0.00    -0.084 Cl
ATOM     22  C   UNL     1      -1.237   3.139  25.789  0.00  0.00    -0.032 A 
ATOM     26  C   UNL     1      -2.621   3.268  25.884  0.00  0.00    +0.025 A 
ATOM     27  C   UNL     1      -0.470   4.188  25.281  0.00  0.00    +0.005 A 
ATOM     28  C   UNL     1      -3.241   4.448  25.471  0.00  0.00    +0.041 A 
ATOM     29  C   UNL     1      -1.089   5.368  24.870  0.00  0.00    +0.002 A 
ATOM     30  C   UNL     1      -2.475   5.498  24.965  0.00  0.00    +0.020 A 
ENDBRANCH  19  22
ENDBRANCH   7  19
ENDBRANCH  14   7
ENDBRANCH   9  14
BRANCH  11  17
ATOM     17  C   UNL     1      -5.327   1.194  24.599  0.00  0.00    +0.190 C 
BRANCH  17   4
ATOM      4  O   UNL     1      -5.719   1.478  25.932  0.00  0.00    -0.392 OA
ATOM     33  H   UNL     1      -6.485   2.076  25.884  0.00  0.00    +0.210 HD
ENDBRANCH  17   4
ENDBRANCH  11  17
TORSDOF 9
ENDMDL
MODEL 5
REMARK VINA RESULT:       3.0      1.977      2.785
REMARK  Name = 28961418
REMARK  9 active torsions:
REMARK  status: ('A' for Active; 'I' for Inactive)
REMARK    1  A    between atoms: O_3  and  C_10
REMARK    2  A    between atoms: O_4  and  C_17
REMARK    3  A    between atoms: N_5  and  C_8
REMARK    4  A    between atoms: N_6  and  C_18
REMARK    5  A    between atoms: N_7  and  C_14
REMARK    6  A    between atoms: N_7  and  C_19
REMARK    7  A    between atoms: C_9  and  C_14
REMARK    8  A    between atoms: C_11  and  C_17
REMARK    9  A    between atoms: C_19  and  C_22
REMARK                            x       y       z     vdW  Elec       q    Type
REMARK                         _______ _______ _______ _____ _____    ______ ____
ROOT
ATOM      2  O   UNL     1      -3.198   2.182  25.345  0.00  0.00    -0.366 OA
ATOM      8  C   UNL     1      -1.732   1.835  23.502  0.00  0.00    +0.118 C 
ATOM      9  C   UNL     1      -2.183   1.277  24.858  0.00  0.00    +0.152 C 
ATOM     10  C   UNL     1      -2.038   3.320  23.623  0.00  0.00    +0.165 C 
ATOM     11  C   UNL     1      -3.338   3.275  24.417  0.00  0.00    +0.174 C 
ENDROOT
BRANCH   8   5
ATOM      5  N   UNL     1      -0.376   1.514  23.093  0.00  0.00    -0.292 NA
ATOM      6  N   UNL     1       2.241   0.408  23.386  0.00  0.00    -0.327 N 
ATOM     12  C   UNL     1       0.596   2.136  24.002  0.00  0.00    +0.104 C 
ATOM     13  C   UNL     1      -0.175   0.059  23.070  0.00  0.00    +0.104 C 
ATOM     15  C   UNL     1       2.030   1.852  23.550  0.00  0.00    +0.120 C 
ATOM     16  C   UNL     1       1.234  -0.295  22.588  0.00  0.00    +0.120 C 
BRANCH   6  18
ATOM     18  C   UNL     1       3.556  -0.072  23.423  0.00  0.00    +0.030 A 
ATOM     20  C   UNL     1       3.804  -1.401  23.766  0.00  0.00    +0.023 A 
ATOM     21  C   UNL     1       4.618   0.778  23.116  0.00  0.00    +0.023 A 
ATOM     23  C   UNL     1       5.114  -1.880  23.800  0.00  0.00    +0.002 A 
ATOM     24  C   UNL     1       5.927   0.299  23.149  0.00  0.00    +0.002 A 
ATOM     25  C   UNL     1       6.175  -1.030  23.491  0.00  0.00    +0.000 A 
ENDBRANCH   6  18
ENDBRANCH   8   5
BRANCH  10   3
ATOM      3  O   UNL     1      -1.032   4.001  24.361  0.00  0.00    -0.388 OA
ATOM     31  H   UNL     1      -0.173   3.774  23.966  0.00  0.00    +0.210 HD
ENDBRANCH  10   3
BRANCH   9  14
ATOM     14  C   UNL     1      -1.115   1.171  25.942  0.00  0.00    +0.114 C 
BRANCH  14   7
ATOM      7  N   UNL     1      -0.560  -0.174  25.996  0.00  0.00    -0.310 NA
ATOM     32  H   UNL     1       0.279  -0.170  26.576  0.00  0.00    +0.122 HD
BRANCH   7  19
ATOM     19  C   UNL     1      -1.527  -1.115  26.545  0.00  0.00    +0.116 C 
BRANCH  19  22
ATOM      1 CL   UNL     1      -6.079   0.087  24.310  0.00  0.00    -0.084 Cl
ATOM     22  C   UNL     1      -2.604  -1.456  25.549  0.00  0.00    -0.032 A 
ATOM     26  C   UNL     1      -3.713  -0.624  25.408  0.00  0.00    +0.025 A 
ATOM     27  C   UNL     1      -2.491  -2.608  24.770  0.00  0.00    +0.005 A 
ATOM     28  C   UNL     1      -4.710  -0.941  24.486  0.00  0.00    +0.041 A 
ATOM     29  C   UNL     1      -3.488  -2.925  23.847  0.00  0.00    +0.002 A 
ATOM     30  C   UNL     1      -4.598  -2.091  23.705  0.00  0.00    +0.020 A 
ENDBRANCH  19  22
ENDBRANCH   7  19
ENDBRANCH  14   7
ENDBRANCH   9  14
BRANCH  11  17
ATOM     17  C   UNL     1      -3.682   4.540  25.182  0.00  0.00    +0.190 C 
BRANCH  17   4
ATOM      4  O   UNL     1      -3.119   4.459  26.481  0.00  0.00    -0.392 OA
ATOM     33  H   UNL     1      -2.152   4.477  26.376  0.00  0.00    +0.210 HD
ENDBRANCH  17   4
ENDBRANCH  11  17
TORSDOF 9
ENDMDL
