MODEL 1
REMARK VINA RESULT:      -2.2      0.000      0.000
REMARK  Name = 71693050
REMARK  9 active torsions:
REMARK  status: ('A' for Active; 'I' for Inactive)
REMARK    1  A    between atoms: N_3  and  C_13
REMARK    2  A    between atoms: C_6  and  C_10
REMARK    3  A    between atoms: C_7  and  C_13
REMARK    4  A    between atoms: C_9  and  C_14
REMARK    5  A    between atoms: C_10  and  C_15
REMARK    6  A    between atoms: C_10  and  C_16
REMARK    7  A    between atoms: C_11  and  C_18
REMARK    8  A    between atoms: C_14  and  C_22
REMARK    9  A    between atoms: C_17  and  C_21
REMARK                            x       y       z     vdW  Elec       q    Type
REMARK                         _______ _______ _______ _____ _____    ______ ____
ROOT
ATOM      6  C   UNL     1      -2.304   2.369  25.041  0.00  0.00    +0.000 C 
ATOM      7  C   UNL     1      -3.604   2.753  24.290  0.00  0.00    +0.032 C 
ATOM      8  C   UNL     1      -1.072   2.708  24.189  0.00  0.00    +0.012 C 
ATOM      9  C   UNL     1      -1.084   1.981  22.831  0.00  0.00    +0.022 C 
ATOM     11  C   UNL     1      -2.432   2.089  22.147  0.00  0.00    -0.073 C 
ATOM     12  C   UNL     1      -3.544   2.449  22.811  0.00  0.00    -0.022 C 
ATOM     18  C   UNL     1      -2.463   1.819  20.668  0.00  0.00    +0.039 C 
ENDROOT
BRANCH   6  10
ATOM     10  C   UNL     1      -2.205   3.070  26.400  0.00  0.00    -0.013 C 
ATOM     15  C   UNL     1      -2.748   4.492  26.305  0.00  0.00    +0.007 C 
ATOM     16  C   UNL     1      -0.760   3.074  26.891  0.00  0.00    +0.007 C 
ENDBRANCH   6  10
BRANCH   7  13
ATOM     13  C   UNL     1      -4.825   2.058  24.905  0.00  0.00    +0.112 C 
BRANCH  13   3
ATOM      2  O   UNL     1      -4.276  -0.450  23.551  0.00  0.00    -0.276 OA
ATOM      3  N   UNL     1      -4.453   0.814  25.501  0.00  0.00    -0.315 N 
ATOM     21  C   UNL     1      -4.207  -0.349  24.773  0.00  0.00    +0.216 C 
ATOM     32  H   UNL     1      -4.261   0.813  26.498  0.00  0.00    +0.149 HD
BRANCH  21  17
ATOM     17  C   UNL     1      -3.810  -1.506  25.643  0.00  0.00    +0.075 C 
ATOM     19  C   UNL     1      -3.430  -2.723  24.797  0.00  0.00    +0.013 C 
ATOM     20  C   UNL     1      -2.697  -1.084  26.606  0.00  0.00    +0.013 C 
ATOM     23  C   UNL     1      -2.048  -2.610  24.153  0.00  0.00    +0.001 C 
ATOM     24  C   UNL     1      -1.331  -0.975  25.930  0.00  0.00    +0.001 C 
ATOM     25  C   UNL     1      -0.975  -2.248  25.173  0.00  0.00    +0.000 C 
ENDBRANCH  21  17
ENDBRANCH  13   3
ENDBRANCH   7  13
BRANCH   9  14
ATOM     14  C   UNL     1      -0.665   0.514  22.986  0.00  0.00    +0.082 C 
BRANCH  14  22
ATOM      1  F   UNL     1       6.180  -1.696  23.938  0.00  0.00    -0.205 F 
ATOM      4  N   UNL     1       1.410  -0.797  23.471  0.00  0.00    -0.342 N 
ATOM      5  N   UNL     1       1.721   1.312  22.841  0.00  0.00    -0.232 NA
ATOM     22  C   UNL     1       0.828   0.379  23.089  0.00  0.00    +0.109 A 
ATOM     26  C   UNL     1       2.769  -0.612  23.469  0.00  0.00    +0.069 A 
ATOM     27  C   UNL     1       2.937   0.713  23.073  0.00  0.00    +0.089 A 
ATOM     28  C   UNL     1       3.833  -1.462  23.771  0.00  0.00    +0.066 A 
ATOM     29  C   UNL     1       4.236   1.235  22.968  0.00  0.00    +0.032 A 
ATOM     30  C   UNL     1       5.119  -0.925  23.661  0.00  0.00    +0.125 A 
ATOM     31  C   UNL     1       5.320   0.399  23.266  0.00  0.00    +0.040 A 
ATOM     33  H   UNL     1       0.927  -1.653  23.712  0.00  0.00    +0.167 HD
ENDBRANCH  14  22
ENDBRANCH   9  14
TORSDOF 6
ENDMDL
MODEL 2
REMARK VINA RESULT:      -1.7      1.835      2.947
REMARK  Name = 71693050
REMARK  9 active torsions:
REMARK  status: ('A' for Active; 'I' for Inactive)
REMARK    1  A    between atoms: N_3  and  C_13
REMARK    2  A    between atoms: C_6  and  C_10
REMARK    3  A    between atoms: C_7  and  C_13
REMARK    4  A    between atoms: C_9  and  C_14
REMARK    5  A    between atoms: C_10  and  C_15
REMARK    6  A    between atoms: C_10  and  C_16
REMARK    7  A    between atoms: C_11  and  C_18
REMARK    8  A    between atoms: C_14  and  C_22
REMARK    9  A    between atoms: C_17  and  C_21
REMARK                            x       y       z     vdW  Elec       q    Type
REMARK                         _______ _______ _______ _____ _____    ______ ____
ROOT
ATOM      6  C   UNL     1      -3.986   3.074  25.705  0.00  0.00    +0.000 C 
ATOM      7  C   UNL     1      -3.991   3.416  24.193  0.00  0.00    +0.032 C 
ATOM      8  C   UNL     1      -3.071   4.042  26.471  0.00  0.00    +0.012 C 
ATOM      9  C   UNL     1      -1.620   4.004  25.956  0.00  0.00    +0.022 C 
ATOM     11  C   UNL     1      -1.557   4.067  24.443  0.00  0.00    -0.073 C 
ATOM     12  C   UNL     1      -2.630   3.815  23.673  0.00  0.00    -0.022 C 
ATOM     18  C   UNL     1      -0.243   4.473  23.837  0.00  0.00    +0.039 C 
ENDROOT
BRANCH   6  10
ATOM     10  C   UNL     1      -5.397   3.110  26.301  0.00  0.00    -0.013 C 
ATOM     15  C   UNL     1      -6.080   1.758  26.130  0.00  0.00    +0.007 C 
ATOM     16  C   UNL     1      -6.219   4.218  25.650  0.00  0.00    +0.007 C 
ENDBRANCH   6  10
BRANCH   7  13
ATOM     13  C   UNL     1      -4.534   2.247  23.363  0.00  0.00    +0.112 C 
BRANCH  13   3
ATOM      2  O   UNL     1      -3.328  -0.308  22.697  0.00  0.00    -0.276 OA
ATOM      3  N   UNL     1      -4.563   1.046  24.137  0.00  0.00    -0.315 N 
ATOM     21  C   UNL     1      -3.955  -0.144  23.741  0.00  0.00    +0.216 C 
ATOM     32  H   UNL     1      -4.961   1.101  25.069  0.00  0.00    +0.149 HD
BRANCH  21  17
ATOM     17  C   UNL     1      -4.115  -1.243  24.751  0.00  0.00    +0.075 C 
ATOM     19  C   UNL     1      -3.653  -2.585  24.179  0.00  0.00    +0.013 C 
ATOM     20  C   UNL     1      -3.397  -0.874  26.050  0.00  0.00    +0.013 C 
ATOM     23  C   UNL     1      -2.132  -2.731  24.122  0.00  0.00    +0.001 C 
ATOM     24  C   UNL     1      -1.879  -1.024  25.959  0.00  0.00    +0.001 C 
ATOM     25  C   UNL     1      -1.480  -2.409  25.462  0.00  0.00    +0.000 C 
ENDBRANCH  21  17
ENDBRANCH  13   3
ENDBRANCH   7  13
BRANCH   9  14
ATOM     14  C   UNL     1      -0.879   2.770  26.484  0.00  0.00    +0.082 C 
BRANCH  14  22
ATOM      1  F   UNL     1       3.608  -0.038  21.522  0.00  0.00    -0.205 F 
ATOM      4  N   UNL     1       1.085   2.206  25.041  0.00  0.00    -0.342 N 
ATOM      5  N   UNL     1      -0.790   1.093  24.607  0.00  0.00    -0.232 NA
ATOM     22  C   UNL     1      -0.227   2.003  25.369  0.00  0.00    +0.109 A 
ATOM     26  C   UNL     1       1.388   1.369  23.996  0.00  0.00    +0.069 A 
ATOM     27  C   UNL     1       0.201   0.686  23.744  0.00  0.00    +0.089 A 
ATOM     28  C   UNL     1       2.562   1.159  23.274  0.00  0.00    +0.066 A 
ATOM     29  C   UNL     1       0.166  -0.267  22.713  0.00  0.00    +0.032 A 
ATOM     30  C   UNL     1       2.509   0.207  22.250  0.00  0.00    +0.125 A 
ATOM     31  C   UNL     1       1.334  -0.496  21.974  0.00  0.00    +0.040 A 
ATOM     33  H   UNL     1       1.720   2.855  25.485  0.00  0.00    +0.167 HD
ENDBRANCH  14  22
ENDBRANCH   9  14
TORSDOF 6
ENDMDL
MODEL 3
REMARK VINA RESULT:      -1.5      1.632      4.359
REMARK  Name = 71693050
REMARK  9 active torsions:
REMARK  status: ('A' for Active; 'I' for Inactive)
REMARK    1  A    between atoms: N_3  and  C_13
REMARK    2  A    between atoms: C_6  and  C_10
REMARK    3  A    between atoms: C_7  and  C_13
REMARK    4  A    between atoms: C_9  and  C_14
REMARK    5  A    between atoms: C_10  and  C_15
REMARK    6  A    between atoms: C_10  and  C_16
REMARK    7  A    between atoms: C_11  and  C_18
REMARK    8  A    between atoms: C_14  and  C_22
REMARK    9  A    between atoms: C_17  and  C_21
REMARK                            x       y       z     vdW  Elec       q    Type
REMARK                         _______ _______ _______ _____ _____    ______ ____
ROOT
ATOM      6  C   UNL     1      -3.177  -1.453  24.368  0.00  0.00    +0.000 C 
ATOM      7  C   UNL     1      -3.710  -0.305  25.262  0.00  0.00    +0.032 C 
ATOM      8  C   UNL     1      -1.777  -1.885  24.828  0.00  0.00    +0.012 C 
ATOM      9  C   UNL     1      -0.766  -0.724  24.788  0.00  0.00    +0.022 C 
ATOM     11  C   UNL     1      -1.327   0.535  25.418  0.00  0.00    -0.073 C 
ATOM     12  C   UNL     1      -2.644   0.698  25.635  0.00  0.00    -0.022 C 
ATOM     18  C   UNL     1      -0.334   1.583  25.836  0.00  0.00    +0.039 C 
ENDROOT
BRANCH   6  10
ATOM     10  C   UNL     1      -4.120  -2.661  24.370  0.00  0.00    -0.013 C 
ATOM     15  C   UNL     1      -3.385  -3.908  24.847  0.00  0.00    +0.007 C 
ATOM     16  C   UNL     1      -4.708  -2.878  22.979  0.00  0.00    +0.007 C 
ENDBRANCH   6  10
BRANCH   7  13
ATOM     13  C   UNL     1      -4.883   0.420  24.591  0.00  0.00    +0.112 C 
BRANCH  13   3
ATOM      2  O   UNL     1      -5.913   2.376  26.472  0.00  0.00    -0.276 OA
ATOM      3  N   UNL     1      -4.666   1.832  24.580  0.00  0.00    -0.315 N 
ATOM     21  C   UNL     1      -5.201   2.704  25.527  0.00  0.00    +0.216 C 
ATOM     32  H   UNL     1      -4.002   2.197  23.904  0.00  0.00    +0.149 HD
BRANCH  21  17
ATOM     17  C   UNL     1      -4.796   4.131  25.297  0.00  0.00    +0.075 C 
ATOM     19  C   UNL     1      -3.942   4.653  26.454  0.00  0.00    +0.013 C 
ATOM     20  C   UNL     1      -4.103   4.270  23.940  0.00  0.00    +0.013 C 
ATOM     23  C   UNL     1      -2.502   4.141  26.427  0.00  0.00    +0.001 C 
ATOM     24  C   UNL     1      -2.668   3.745  23.944  0.00  0.00    +0.001 C 
ATOM     25  C   UNL     1      -1.846   4.363  25.069  0.00  0.00    +0.000 C 
ENDBRANCH  21  17
ENDBRANCH  13   3
ENDBRANCH   7  13
BRANCH   9  14
ATOM     14  C   UNL     1      -0.291  -0.455  23.355  0.00  0.00    +0.082 C 
BRANCH  14  22
ATOM      1  F   UNL     1       6.936  -0.946  23.749  0.00  0.00    -0.205 F 
ATOM      4  N   UNL     1       2.067  -1.199  23.735  0.00  0.00    -0.342 N 
ATOM      5  N   UNL     1       1.819   0.828  22.856  0.00  0.00    -0.232 NA
ATOM     22  C   UNL     1       1.194  -0.240  23.300  0.00  0.00    +0.109 A 
ATOM     26  C   UNL     1       3.339  -0.717  23.560  0.00  0.00    +0.069 A 
ATOM     27  C   UNL     1       3.157   0.549  23.010  0.00  0.00    +0.089 A 
ATOM     28  C   UNL     1       4.594  -1.264  23.826  0.00  0.00    +0.066 A 
ATOM     29  C   UNL     1       4.284   1.330  22.703  0.00  0.00    +0.032 A 
ATOM     30  C   UNL     1       5.705  -0.472  23.515  0.00  0.00    +0.125 A 
ATOM     31  C   UNL     1       5.555   0.801  22.962  0.00  0.00    +0.040 A 
ATOM     33  H   UNL     1       1.821  -2.102  24.119  0.00  0.00    +0.167 HD
ENDBRANCH  14  22
ENDBRANCH   9  14
TORSDOF 6
ENDMDL
MODEL 4
REMARK VINA RESULT:      -0.1      3.198      7.231
REMARK  Name = 71693050
REMARK  9 active torsions:
REMARK  status: ('A' for Active; 'I' for Inactive)
REMARK    1  A    between atoms: N_3  and  C_13
REMARK    2  A    between atoms: C_6  and  C_10
REMARK    3  A    between atoms: C_7  and  C_13
REMARK    4  A    between atoms: C_9  and  C_14
REMARK    5  A    between atoms: C_10  and  C_15
REMARK    6  A    between atoms: C_10  and  C_16
REMARK    7  A    between atoms: C_11  and  C_18
REMARK    8  A    between atoms: C_14  and  C_22
REMARK    9  A    between atoms: C_17  and  C_21
REMARK                            x       y       z     vdW  Elec       q    Type
REMARK                         _______ _______ _______ _____ _____    ______ ____
ROOT
ATOM      6  C   UNL     1      -1.563   0.542  25.274  0.00  0.00    +0.000 C 
ATOM      7  C   UNL     1      -0.351  -0.094  24.547  0.00  0.00    +0.032 C 
ATOM      8  C   UNL     1      -2.266  -0.500  26.157  0.00  0.00    +0.012 C 
ATOM      9  C   UNL     1      -2.763  -1.711  25.346  0.00  0.00    +0.022 C 
ATOM     11  C   UNL     1      -1.698  -2.231  24.401  0.00  0.00    -0.073 C 
ATOM     12  C   UNL     1      -0.621  -1.500  24.066  0.00  0.00    -0.022 C 
ATOM     18  C   UNL     1      -1.878  -3.632  23.885  0.00  0.00    +0.039 C 
ENDROOT
BRANCH   6  10
ATOM     10  C   UNL     1      -1.148   1.748  26.123  0.00  0.00    -0.013 C 
ATOM     15  C   UNL     1      -1.824   3.016  25.613  0.00  0.00    +0.007 C 
ATOM     16  C   UNL     1       0.370   1.904  26.117  0.00  0.00    +0.007 C 
ENDBRANCH   6  10
BRANCH   7  13
ATOM     13  C   UNL     1       0.102   0.772  23.365  0.00  0.00    +0.112 C 
BRANCH  13   3
ATOM      2  O   UNL     1       2.712   2.043  23.420  0.00  0.00    -0.276 OA
ATOM      3  N   UNL     1       1.322   0.275  22.811  0.00  0.00    -0.315 N 
ATOM     21  C   UNL     1       2.537   0.953  22.881  0.00  0.00    +0.216 C 
ATOM     32  H   UNL     1       1.313  -0.670  22.437  0.00  0.00    +0.149 HD
BRANCH  21  17
ATOM     17  C   UNL     1       3.663   0.196  22.240  0.00  0.00    +0.075 C 
ATOM     19  C   UNL     1       5.012   0.845  22.558  0.00  0.00    +0.013 C 
ATOM     20  C   UNL     1       3.606  -1.279  22.647  0.00  0.00    +0.013 C 
ATOM     23  C   UNL     1       5.504   0.563  23.978  0.00  0.00    +0.001 C 
ATOM     24  C   UNL     1       4.098  -1.526  24.072  0.00  0.00    +0.001 C 
ATOM     25  C   UNL     1       5.481  -0.927  24.301  0.00  0.00    +0.000 C 
ENDBRANCH  21  17
ENDBRANCH  13   3
ENDBRANCH   7  13
BRANCH   9  14
ATOM     14  C   UNL     1      -4.053  -1.376  24.587  0.00  0.00    +0.082 C 
BRANCH  14  22
ATOM      1  F   UNL     1      -6.252   5.430  25.803  0.00  0.00    -0.205 F 
ATOM      4  N   UNL     1      -5.136   0.694  25.482  0.00  0.00    -0.342 N 
ATOM      5  N   UNL     1      -3.804   0.978  23.724  0.00  0.00    -0.232 NA
ATOM     22  C   UNL     1      -4.308   0.104  24.568  0.00  0.00    +0.109 A 
ATOM     26  C   UNL     1      -5.168   2.039  25.211  0.00  0.00    +0.069 A 
ATOM     27  C   UNL     1      -4.329   2.190  24.110  0.00  0.00    +0.089 A 
ATOM     28  C   UNL     1      -5.837   3.102  25.816  0.00  0.00    +0.066 A 
ATOM     29  C   UNL     1      -4.137   3.471  23.567  0.00  0.00    +0.032 A 
ATOM     30  C   UNL     1      -5.635   4.370  25.262  0.00  0.00    +0.125 A 
ATOM     31  C   UNL     1      -4.799   4.554  24.159  0.00  0.00    +0.040 A 
ATOM     33  H   UNL     1      -5.636   0.226  26.226  0.00  0.00    +0.167 HD
ENDBRANCH  14  22
ENDBRANCH   9  14
TORSDOF 6
ENDMDL
MODEL 5
REMARK VINA RESULT:       0.1      1.992      6.109
REMARK  Name = 71693050
REMARK  9 active torsions:
REMARK  status: ('A' for Active; 'I' for Inactive)
REMARK    1  A    between atoms: N_3  and  C_13
REMARK    2  A    between atoms: C_6  and  C_10
REMARK    3  A    between atoms: C_7  and  C_13
REMARK    4  A    between atoms: C_9  and  C_14
REMARK    5  A    between atoms: C_10  and  C_15
REMARK    6  A    between atoms: C_10  and  C_16
REMARK    7  A    between atoms: C_11  and  C_18
REMARK    8  A    between atoms: C_14  and  C_22
REMARK    9  A    between atoms: C_17  and  C_21
REMARK                            x       y       z     vdW  Elec       q    Type
REMARK                         _______ _______ _______ _____ _____    ______ ____
ROOT
ATOM      6  C   UNL     1      -2.304   2.361  23.664  0.00  0.00    +0.000 C 
ATOM      7  C   UNL     1      -1.121   3.012  24.425  0.00  0.00    +0.032 C 
ATOM      8  C   UNL     1      -3.469   3.353  23.534  0.00  0.00    +0.012 C 
ATOM      9  C   UNL     1      -3.978   3.838  24.905  0.00  0.00    +0.022 C 
ATOM     11  C   UNL     1      -2.838   4.247  25.816  0.00  0.00    -0.073 C 
ATOM     12  C   UNL     1      -1.567   3.881  25.577  0.00  0.00    -0.022 C 
ATOM     18  C   UNL     1      -3.187   5.128  26.983  0.00  0.00    +0.039 C 
ENDROOT
BRANCH   6  10
ATOM     10  C   UNL     1      -1.884   1.868  22.275  0.00  0.00    -0.013 C 
ATOM     15  C   UNL     1      -2.805   2.445  21.205  0.00  0.00    +0.007 C 
ATOM     16  C   UNL     1      -1.891   0.343  22.229  0.00  0.00    +0.007 C 
ENDBRANCH   6  10
BRANCH   7  13
ATOM     13  C   UNL     1      -0.139   1.950  24.934  0.00  0.00    +0.112 C 
BRANCH  13   3
ATOM      2  O   UNL     1       0.810  -0.668  24.113  0.00  0.00    -0.276 OA
ATOM      3  N   UNL     1       0.848   1.656  23.943  0.00  0.00    -0.315 N 
ATOM     21  C   UNL     1       1.247   0.364  23.609  0.00  0.00    +0.216 C 
ATOM     32  H   UNL     1       1.196   2.431  23.387  0.00  0.00    +0.149 HD
BRANCH  21  17
ATOM     17  C   UNL     1       2.280   0.337  22.520  0.00  0.00    +0.075 C 
ATOM     19  C   UNL     1       3.331   1.428  22.734  0.00  0.00    +0.013 C 
ATOM     20  C   UNL     1       2.892  -1.061  22.409  0.00  0.00    +0.013 C 
ATOM     23  C   UNL     1       4.342   1.093  23.831  0.00  0.00    +0.001 C 
ATOM     24  C   UNL     1       3.893  -1.367  23.522  0.00  0.00    +0.001 C 
ATOM     25  C   UNL     1       4.961  -0.285  23.631  0.00  0.00    +0.000 C 
ENDBRANCH  21  17
ENDBRANCH  13   3
ENDBRANCH   7  13
BRANCH   9  14
ATOM     14  C   UNL     1      -4.859   2.777  25.573  0.00  0.00    +0.082 C 
BRANCH  14  22
ATOM      1  F   UNL     1      -1.291  -3.515  25.006  0.00  0.00    -0.205 F 
ATOM      4  N   UNL     1      -3.215   0.901  25.766  0.00  0.00    -0.342 N 
ATOM      5  N   UNL     1      -4.989   0.509  24.484  0.00  0.00    -0.232 NA
ATOM     22  C   UNL     1      -4.385   1.388  25.252  0.00  0.00    +0.109 A 
ATOM     26  C   UNL     1      -3.054  -0.379  25.298  0.00  0.00    +0.069 A 
ATOM     27  C   UNL     1      -4.174  -0.600  24.501  0.00  0.00    +0.089 A 
ATOM     28  C   UNL     1      -2.056  -1.332  25.499  0.00  0.00    +0.066 A 
ATOM     29  C   UNL     1      -4.322  -1.839  23.857  0.00  0.00    +0.032 A 
ATOM     30  C   UNL     1      -2.219  -2.560  24.850  0.00  0.00    +0.125 A 
ATOM     31  C   UNL     1      -3.331  -2.812  24.044  0.00  0.00    +0.040 A 
ATOM     33  H   UNL     1      -2.581   1.393  26.380  0.00  0.00    +0.167 HD
ENDBRANCH  14  22
ENDBRANCH   9  14
TORSDOF 6
ENDMDL
MODEL 6
REMARK VINA RESULT:       1.7      3.223      6.484
REMARK  Name = 71693050
REMARK  9 active torsions:
REMARK  status: ('A' for Active; 'I' for Inactive)
REMARK    1  A    between atoms: N_3  and  C_13
REMARK    2  A    between atoms: C_6  and  C_10
REMARK    3  A    between atoms: C_7  and  C_13
REMARK    4  A    between atoms: C_9  and  C_14
REMARK    5  A    between atoms: C_10  and  C_15
REMARK    6  A    between atoms: C_10  and  C_16
REMARK    7  A    between atoms: C_11  and  C_18
REMARK    8  A    between atoms: C_14  and  C_22
REMARK    9  A    between atoms: C_17  and  C_21
REMARK                            x       y       z     vdW  Elec       q    Type
REMARK                         _______ _______ _______ _____ _____    ______ ____
ROOT
ATOM      6  C   UNL     1       1.156   0.925  23.105  0.00  0.00    +0.000 C 
ATOM      7  C   UNL     1       0.529  -0.177  23.997  0.00  0.00    +0.032 C 
ATOM      8  C   UNL     1       1.694   2.074  23.970  0.00  0.00    +0.012 C 
ATOM      9  C   UNL     1       0.594   2.715  24.838  0.00  0.00    +0.022 C 
ATOM     11  C   UNL     1      -0.246   1.671  25.545  0.00  0.00    -0.073 C 
ATOM     12  C   UNL     1      -0.251   0.382  25.164  0.00  0.00    -0.022 C 
ATOM     18  C   UNL     1      -1.044   2.135  26.731  0.00  0.00    +0.039 C 
ENDROOT
BRANCH   6  10
ATOM     10  C   UNL     1       2.278   0.370  22.222  0.00  0.00    -0.013 C 
ATOM     15  C   UNL     1       1.717  -0.626  21.213  0.00  0.00    +0.007 C 
ATOM     16  C   UNL     1       3.358  -0.281  23.082  0.00  0.00    +0.007 C 
ENDBRANCH   6  10
BRANCH   7  13
ATOM     13  C   UNL     1      -0.373  -1.107  23.177  0.00  0.00    +0.112 C 
BRANCH  13   3
ATOM      2  O   UNL     1      -0.449  -3.098  25.287  0.00  0.00    -0.276 OA
ATOM      3  N   UNL     1      -1.508  -1.517  23.942  0.00  0.00    -0.315 N 
ATOM     21  C   UNL     1      -1.457  -2.486  24.942  0.00  0.00    +0.216 C 
ATOM     32  H   UNL     1      -2.370  -0.996  23.813  0.00  0.00    +0.149 HD
BRANCH  21  17
ATOM     17  C   UNL     1      -2.785  -2.708  25.606  0.00  0.00    +0.075 C 
ATOM     19  C   UNL     1      -3.243  -1.452  26.350  0.00  0.00    +0.013 C 
ATOM     20  C   UNL     1      -3.811  -3.195  24.580  0.00  0.00    +0.013 C 
ATOM     23  C   UNL     1      -3.780  -0.358  25.426  0.00  0.00    +0.001 C 
ATOM     24  C   UNL     1      -4.323  -2.080  23.669  0.00  0.00    +0.001 C 
ATOM     25  C   UNL     1      -4.841  -0.892  24.471  0.00  0.00    +0.000 C 
ENDBRANCH  21  17
ENDBRANCH  13   3
ENDBRANCH   7  13
BRANCH   9  14
ATOM     14  C   UNL     1      -0.287   3.656  24.006  0.00  0.00    +0.082 C 
BRANCH  14  22
ATOM      1  F   UNL     1      -7.284   1.801  24.486  0.00  0.00    -0.205 F 
ATOM      4  N   UNL     1      -2.545   2.628  23.688  0.00  0.00    -0.342 N 
ATOM      5  N   UNL     1      -2.389   4.147  25.304  0.00  0.00    -0.232 NA
ATOM     22  C   UNL     1      -1.738   3.503  24.361  0.00  0.00    +0.109 A 
ATOM     26  C   UNL     1      -3.801   2.713  24.234  0.00  0.00    +0.069 A 
ATOM     27  C   UNL     1      -3.677   3.667  25.241  0.00  0.00    +0.089 A 
ATOM     28  C   UNL     1      -4.997   2.056  23.943  0.00  0.00    +0.066 A 
ATOM     29  C   UNL     1      -4.803   3.999  26.011  0.00  0.00    +0.032 A 
ATOM     30  C   UNL     1      -6.108   2.399  24.720  0.00  0.00    +0.125 A 
ATOM     31  C   UNL     1      -6.016   3.352  25.737  0.00  0.00    +0.040 A 
ATOM     33  H   UNL     1      -2.269   2.026  22.924  0.00  0.00    +0.167 HD
ENDBRANCH  14  22
ENDBRANCH   9  14
TORSDOF 6
ENDMDL
