MODEL 1
REMARK VINA RESULT:       1.1      0.000      0.000
REMARK  Name = 11883371
REMARK  9 active torsions:
REMARK  status: ('A' for Active; 'I' for Inactive)
REMARK    1  A    between atoms: O_4  and  C_14
REMARK    2  A    between atoms: O_4  and  C_18
REMARK    3  A    between atoms: O_7  and  C_26
REMARK    4  A    between atoms: O_7  and  C_29
REMARK    5  A    between atoms: O_8  and  C_27
REMARK    6  A    between atoms: O_8  and  C_30
REMARK    7  A    between atoms: N_9  and  C_13
REMARK    8  A    between atoms: N_10  and  C_21
REMARK    9  A    between atoms: C_17  and  C_19
REMARK                            x       y       z     vdW  Elec       q    Type
REMARK                         _______ _______ _______ _____ _____    ______ ____
ROOT
ATOM      2  O   UNL     1      -1.984  -0.415  24.693  0.00  0.00    -0.368 OA
ATOM      3  O   UNL     1      -2.072  -3.428  25.261  0.00  0.00    -0.368 OA
ATOM     11  C   UNL     1      -1.138  -2.623  24.511  0.00  0.00    +0.173 C 
ATOM     12  C   UNL     1      -1.946  -1.550  23.810  0.00  0.00    +0.192 C 
ATOM     13  C   UNL     1      -0.246  -1.849  25.453  0.00  0.00    +0.130 C 
ATOM     14  C   UNL     1      -3.303  -2.199  23.675  0.00  0.00    +0.235 C 
ATOM     15  C   UNL     1      -1.116  -0.655  25.811  0.00  0.00    +0.185 C 
ATOM     16  C   UNL     1      -3.406  -2.994  24.957  0.00  0.00    +0.207 C 
ENDROOT
BRANCH  13   9
ATOM      5  O   UNL     1       0.047   0.419  23.803  0.00  0.00    -0.270 OA
ATOM      9  N   UNL     1       0.971  -1.434  24.799  0.00  0.00    -0.303 N 
ATOM     17  C   UNL     1       1.033  -0.295  23.997  0.00  0.00    +0.251 C 
ATOM     31  H   UNL     1       1.787  -2.026  24.910  0.00  0.00    +0.149 HD
BRANCH  17  19
ATOM      1  S   UNL     1       3.632  -1.101  23.631  0.00  0.00    -0.092 S 
ATOM     19  C   UNL     1       2.351   0.017  23.428  0.00  0.00    +0.074 A 
ATOM     20  C   UNL     1       2.745   1.129  22.715  0.00  0.00    +0.021 A 
ATOM     22  C   UNL     1       4.115   1.063  22.332  0.00  0.00    +0.008 A 
ATOM     23  C   UNL     1       4.717  -0.098  22.765  0.00  0.00    +0.046 A 
ENDBRANCH  17  19
ENDBRANCH  13   9
BRANCH  14   4
ATOM      4  O   UNL     1      -4.358  -1.275  23.538  0.00  0.00    -0.442 OA
BRANCH   4  18
ATOM      6  O   UNL     1      -4.815  -0.427  25.612  0.00  0.00    -0.226 OA
ATOM     10  N   UNL     1      -3.979   0.921  23.890  0.00  0.00    -0.251 N 
ATOM     18  C   UNL     1      -4.420  -0.255  24.465  0.00  0.00    +0.405 C 
ATOM     32  H   UNL     1      -3.689   0.862  22.917  0.00  0.00    +0.158 HD
BRANCH  10  21
ATOM     21  C   UNL     1      -3.880   2.198  24.487  0.00  0.00    +0.043 A 
ATOM     24  C   UNL     1      -5.025   2.834  24.970  0.00  0.00    +0.069 A 
ATOM     25  C   UNL     1      -2.638   2.823  24.594  0.00  0.00    +0.069 A 
ATOM     26  C   UNL     1      -2.540   4.084  25.185  0.00  0.00    +0.125 A 
ATOM     27  C   UNL     1      -4.927   4.094  25.560  0.00  0.00    +0.125 A 
ATOM     28  C   UNL     1      -3.684   4.718  25.667  0.00  0.00    +0.091 A 
BRANCH  26   7
ATOM      7  O   UNL     1      -1.328   4.694  25.288  0.00  0.00    -0.495 OA
ATOM     29  C   UNL     1      -0.231   4.079  24.616  0.00  0.00    +0.277 C 
ENDBRANCH  26   7
BRANCH  27   8
ATOM      8  O   UNL     1      -6.043   4.714  26.030  0.00  0.00    -0.495 OA
ATOM     30  C   UNL     1      -6.607   5.743  25.218  0.00  0.00    +0.277 C 
ENDBRANCH  27   8
ENDBRANCH  10  21
ENDBRANCH   4  18
ENDBRANCH  14   4
TORSDOF 7
ENDMDL
MODEL 2
REMARK VINA RESULT:       1.1      0.050      2.283
REMARK  Name = 11883371
REMARK  9 active torsions:
REMARK  status: ('A' for Active; 'I' for Inactive)
REMARK    1  A    between atoms: O_4  and  C_14
REMARK    2  A    between atoms: O_4  and  C_18
REMARK    3  A    between atoms: O_7  and  C_26
REMARK    4  A    between atoms: O_7  and  C_29
REMARK    5  A    between atoms: O_8  and  C_27
REMARK    6  A    between atoms: O_8  and  C_30
REMARK    7  A    between atoms: N_9  and  C_13
REMARK    8  A    between atoms: N_10  and  C_21
REMARK    9  A    between atoms: C_17  and  C_19
REMARK                            x       y       z     vdW  Elec       q    Type
REMARK                         _______ _______ _______ _____ _____    ______ ____
ROOT
ATOM      2  O   UNL     1      -1.974  -0.373  24.633  0.00  0.00    -0.368 OA
ATOM      3  O   UNL     1      -2.077  -3.368  25.286  0.00  0.00    -0.368 OA
ATOM     11  C   UNL     1      -1.137  -2.589  24.517  0.00  0.00    +0.173 C 
ATOM     12  C   UNL     1      -1.938  -1.532  23.783  0.00  0.00    +0.192 C 
ATOM     13  C   UNL     1      -0.245  -1.792  25.440  0.00  0.00    +0.130 C 
ATOM     14  C   UNL     1      -3.297  -2.180  23.662  0.00  0.00    +0.235 C 
ATOM     15  C   UNL     1      -1.111  -0.585  25.761  0.00  0.00    +0.185 C 
ATOM     16  C   UNL     1      -3.408  -2.937  24.966  0.00  0.00    +0.207 C 
ENDROOT
BRANCH  13   9
ATOM      5  O   UNL     1       0.103   0.509  23.848  0.00  0.00    -0.270 OA
ATOM      9  N   UNL     1       0.976  -1.401  24.779  0.00  0.00    -0.303 N 
ATOM     17  C   UNL     1       1.066  -0.243  24.007  0.00  0.00    +0.251 C 
ATOM     31  H   UNL     1       1.773  -2.023  24.861  0.00  0.00    +0.149 HD
BRANCH  17  19
ATOM      1  S   UNL     1       3.643  -1.107  23.619  0.00  0.00    -0.092 S 
ATOM     19  C   UNL     1       2.386   0.039  23.426  0.00  0.00    +0.074 A 
ATOM     20  C   UNL     1       2.798   1.141  22.710  0.00  0.00    +0.021 A 
ATOM     22  C   UNL     1       4.162   1.044  22.314  0.00  0.00    +0.008 A 
ATOM     23  C   UNL     1       4.743  -0.129  22.743  0.00  0.00    +0.046 A 
ENDBRANCH  17  19
ENDBRANCH  13   9
BRANCH  14   4
ATOM      4  O   UNL     1      -4.348  -1.255  23.495  0.00  0.00    -0.442 OA
BRANCH   4  18
ATOM      6  O   UNL     1      -4.887  -0.409  25.549  0.00  0.00    -0.226 OA
ATOM     10  N   UNL     1      -3.957   0.934  23.873  0.00  0.00    -0.251 N 
ATOM     18  C   UNL     1      -4.439  -0.238  24.423  0.00  0.00    +0.405 C 
ATOM     32  H   UNL     1      -3.624   0.875  22.913  0.00  0.00    +0.158 HD
BRANCH  10  21
ATOM     21  C   UNL     1      -3.869   2.208  24.479  0.00  0.00    +0.043 A 
ATOM     24  C   UNL     1      -2.631   2.840  24.598  0.00  0.00    +0.069 A 
ATOM     25  C   UNL     1      -5.020   2.834  24.957  0.00  0.00    +0.069 A 
ATOM     26  C   UNL     1      -4.933   4.092  25.554  0.00  0.00    +0.125 A 
ATOM     27  C   UNL     1      -2.544   4.098  25.195  0.00  0.00    +0.125 A 
ATOM     28  C   UNL     1      -3.696   4.724  25.673  0.00  0.00    +0.091 A 
BRANCH  26   7
ATOM      7  O   UNL     1      -6.056   4.703  26.022  0.00  0.00    -0.495 OA
ATOM     29  C   UNL     1      -6.615   5.738  25.216  0.00  0.00    +0.277 C 
ENDBRANCH  26   7
BRANCH  27   8
ATOM      8  O   UNL     1      -1.336   4.714  25.311  0.00  0.00    -0.495 OA
ATOM     30  C   UNL     1      -0.235   4.120  24.626  0.00  0.00    +0.277 C 
ENDBRANCH  27   8
ENDBRANCH  10  21
ENDBRANCH   4  18
ENDBRANCH  14   4
TORSDOF 7
ENDMDL
MODEL 3
REMARK VINA RESULT:       1.7      1.948      4.848
REMARK  Name = 11883371
REMARK  9 active torsions:
REMARK  status: ('A' for Active; 'I' for Inactive)
REMARK    1  A    between atoms: O_4  and  C_14
REMARK    2  A    between atoms: O_4  and  C_18
REMARK    3  A    between atoms: O_7  and  C_26
REMARK    4  A    between atoms: O_7  and  C_29
REMARK    5  A    between atoms: O_8  and  C_27
REMARK    6  A    between atoms: O_8  and  C_30
REMARK    7  A    between atoms: N_9  and  C_13
REMARK    8  A    between atoms: N_10  and  C_21
REMARK    9  A    between atoms: C_17  and  C_19
REMARK                            x       y       z     vdW  Elec       q    Type
REMARK                         _______ _______ _______ _____ _____    ______ ____
ROOT
ATOM      2  O   UNL     1      -0.397   2.424  25.579  0.00  0.00    -0.368 OA
ATOM      3  O   UNL     1      -0.977   3.135  22.653  0.00  0.00    -0.368 OA
ATOM     11  C   UNL     1       0.260   2.862  23.342  0.00  0.00    +0.173 C 
ATOM     12  C   UNL     1       0.131   3.458  24.730  0.00  0.00    +0.192 C 
ATOM     13  C   UNL     1       0.397   1.379  23.596  0.00  0.00    +0.130 C 
ATOM     14  C   UNL     1      -0.868   4.570  24.515  0.00  0.00    +0.235 C 
ATOM     15  C   UNL     1      -0.441   1.189  24.850  0.00  0.00    +0.185 C 
ATOM     16  C   UNL     1      -1.797   3.970  23.483  0.00  0.00    +0.207 C 
ENDROOT
BRANCH  13   9
ATOM      5  O   UNL     1       2.012  -0.132  21.846  0.00  0.00    -0.270 OA
ATOM      9  N   UNL     1       1.773   1.011  23.825  0.00  0.00    -0.303 N 
ATOM     17  C   UNL     1       2.505   0.260  22.905  0.00  0.00    +0.251 C 
ATOM     31  H   UNL     1       2.191   1.287  24.707  0.00  0.00    +0.149 HD
BRANCH  17  19
ATOM      1  S   UNL     1       4.342  -1.564  23.822  0.00  0.00    -0.092 S 
ATOM     19  C   UNL     1       3.905  -0.005  23.265  0.00  0.00    +0.074 A 
ATOM     20  C   UNL     1       4.985   0.849  23.222  0.00  0.00    +0.021 A 
ATOM     22  C   UNL     1       6.186   0.217  23.653  0.00  0.00    +0.008 A 
ATOM     23  C   UNL     1       5.979  -1.098  24.009  0.00  0.00    +0.046 A 
ENDBRANCH  17  19
ENDBRANCH  13   9
BRANCH  14   4
ATOM      4  O   UNL     1      -1.551   4.947  25.689  0.00  0.00    -0.442 OA
BRANCH   4  18
ATOM      6  O   UNL     1      -3.214   4.321  27.129  0.00  0.00    -0.226 OA
ATOM     10  N   UNL     1      -2.854   3.200  25.106  0.00  0.00    -0.251 N 
ATOM     18  C   UNL     1      -2.613   4.155  26.075  0.00  0.00    +0.405 C 
ATOM     32  H   UNL     1      -2.243   3.222  24.293  0.00  0.00    +0.158 HD
BRANCH  10  21
ATOM     21  C   UNL     1      -3.846   2.193  25.104  0.00  0.00    +0.043 A 
ATOM     24  C   UNL     1      -3.628   1.000  24.415  0.00  0.00    +0.069 A 
ATOM     25  C   UNL     1      -5.044   2.393  25.791  0.00  0.00    +0.069 A 
ATOM     26  C   UNL     1      -6.022   1.399  25.789  0.00  0.00    +0.125 A 
ATOM     27  C   UNL     1      -4.607   0.006  24.413  0.00  0.00    +0.125 A 
ATOM     28  C   UNL     1      -5.804   0.206  25.101  0.00  0.00    +0.091 A 
BRANCH  26   7
ATOM      7  O   UNL     1      -7.192   1.594  26.459  0.00  0.00    -0.495 OA
ATOM     29  C   UNL     1      -7.223   1.216  27.834  0.00  0.00    +0.277 C 
ENDBRANCH  26   7
BRANCH  27   8
ATOM      8  O   UNL     1      -4.394  -1.158  23.741  0.00  0.00    -0.495 OA
ATOM     30  C   UNL     1      -3.586  -2.142  24.385  0.00  0.00    +0.277 C 
ENDBRANCH  27   8
ENDBRANCH  10  21
ENDBRANCH   4  18
ENDBRANCH  14   4
TORSDOF 7
ENDMDL
MODEL 4
REMARK VINA RESULT:       1.7      1.948      4.455
REMARK  Name = 11883371
REMARK  9 active torsions:
REMARK  status: ('A' for Active; 'I' for Inactive)
REMARK    1  A    between atoms: O_4  and  C_14
REMARK    2  A    between atoms: O_4  and  C_18
REMARK    3  A    between atoms: O_7  and  C_26
REMARK    4  A    between atoms: O_7  and  C_29
REMARK    5  A    between atoms: O_8  and  C_27
REMARK    6  A    between atoms: O_8  and  C_30
REMARK    7  A    between atoms: N_9  and  C_13
REMARK    8  A    between atoms: N_10  and  C_21
REMARK    9  A    between atoms: C_17  and  C_19
REMARK                            x       y       z     vdW  Elec       q    Type
REMARK                         _______ _______ _______ _____ _____    ______ ____
ROOT
ATOM      2  O   UNL     1      -0.385   2.395  25.594  0.00  0.00    -0.368 OA
ATOM      3  O   UNL     1      -0.969   3.105  22.669  0.00  0.00    -0.368 OA
ATOM     11  C   UNL     1       0.269   2.830  23.356  0.00  0.00    +0.173 C 
ATOM     12  C   UNL     1       0.143   3.427  24.744  0.00  0.00    +0.192 C 
ATOM     13  C   UNL     1       0.404   1.347  23.611  0.00  0.00    +0.130 C 
ATOM     14  C   UNL     1      -0.855   4.540  24.530  0.00  0.00    +0.235 C 
ATOM     15  C   UNL     1      -0.432   1.159  24.866  0.00  0.00    +0.185 C 
ATOM     16  C   UNL     1      -1.786   3.941  23.500  0.00  0.00    +0.207 C 
ENDROOT
BRANCH  13   9
ATOM      5  O   UNL     1       2.043  -0.087  21.819  0.00  0.00    -0.270 OA
ATOM      9  N   UNL     1       1.780   0.978  23.837  0.00  0.00    -0.303 N 
ATOM     17  C   UNL     1       2.524   0.267  22.896  0.00  0.00    +0.251 C 
ATOM     31  H   UNL     1       2.189   1.222  24.733  0.00  0.00    +0.149 HD
BRANCH  17  19
ATOM      1  S   UNL     1       4.342  -1.551  23.863  0.00  0.00    -0.092 S 
ATOM     19  C   UNL     1       3.922  -0.005  23.258  0.00  0.00    +0.074 A 
ATOM     20  C   UNL     1       5.013   0.833  23.183  0.00  0.00    +0.021 A 
ATOM     22  C   UNL     1       6.208   0.199  23.629  0.00  0.00    +0.008 A 
ATOM     23  C   UNL     1       5.986  -1.101  24.027  0.00  0.00    +0.046 A 
ENDBRANCH  17  19
ENDBRANCH  13   9
BRANCH  14   4
ATOM      4  O   UNL     1      -1.537   4.919  25.705  0.00  0.00    -0.442 OA
BRANCH   4  18
ATOM      6  O   UNL     1      -3.190   4.289  27.153  0.00  0.00    -0.226 OA
ATOM     10  N   UNL     1      -2.851   3.182  25.119  0.00  0.00    -0.251 N 
ATOM     18  C   UNL     1      -2.598   4.128  26.093  0.00  0.00    +0.405 C 
ATOM     32  H   UNL     1      -2.246   3.209  24.301  0.00  0.00    +0.158 HD
BRANCH  10  21
ATOM     21  C   UNL     1      -3.848   2.180  25.116  0.00  0.00    +0.043 A 
ATOM     24  C   UNL     1      -5.045   2.383  25.803  0.00  0.00    +0.069 A 
ATOM     25  C   UNL     1      -3.635   0.986  24.425  0.00  0.00    +0.069 A 
ATOM     26  C   UNL     1      -4.619  -0.002  24.422  0.00  0.00    +0.125 A 
ATOM     27  C   UNL     1      -6.029   1.395  25.799  0.00  0.00    +0.125 A 
ATOM     28  C   UNL     1      -5.815   0.202  25.109  0.00  0.00    +0.091 A 
BRANCH  26   7
ATOM      7  O   UNL     1      -4.411  -1.167  23.749  0.00  0.00    -0.495 OA
ATOM     29  C   UNL     1      -3.604  -2.152  24.392  0.00  0.00    +0.277 C 
ENDBRANCH  26   7
BRANCH  27   8
ATOM      8  O   UNL     1      -7.196   1.594  26.470  0.00  0.00    -0.495 OA
ATOM     30  C   UNL     1      -7.226   1.224  27.847  0.00  0.00    +0.277 C 
ENDBRANCH  27   8
ENDBRANCH  10  21
ENDBRANCH   4  18
ENDBRANCH  14   4
TORSDOF 7
ENDMDL
MODEL 5
REMARK VINA RESULT:       2.4      1.867      5.721
REMARK  Name = 11883371
REMARK  9 active torsions:
REMARK  status: ('A' for Active; 'I' for Inactive)
REMARK    1  A    between atoms: O_4  and  C_14
REMARK    2  A    between atoms: O_4  and  C_18
REMARK    3  A    between atoms: O_7  and  C_26
REMARK    4  A    between atoms: O_7  and  C_29
REMARK    5  A    between atoms: O_8  and  C_27
REMARK    6  A    between atoms: O_8  and  C_30
REMARK    7  A    between atoms: N_9  and  C_13
REMARK    8  A    between atoms: N_10  and  C_21
REMARK    9  A    between atoms: C_17  and  C_19
REMARK                            x       y       z     vdW  Elec       q    Type
REMARK                         _______ _______ _______ _____ _____    ______ ____
ROOT
ATOM      2  O   UNL     1      -3.122   3.165  23.829  0.00  0.00    -0.368 OA
ATOM      3  O   UNL     1      -1.929   5.052  25.931  0.00  0.00    -0.368 OA
ATOM     11  C   UNL     1      -1.398   3.871  25.295  0.00  0.00    +0.173 C 
ATOM     12  C   UNL     1      -2.553   2.906  25.123  0.00  0.00    +0.192 C 
ATOM     13  C   UNL     1      -0.977   4.188  23.879  0.00  0.00    +0.130 C 
ATOM     14  C   UNL     1      -3.488   3.315  26.237  0.00  0.00    +0.235 C 
ATOM     15  C   UNL     1      -2.294   4.103  23.126  0.00  0.00    +0.185 C 
ATOM     16  C   UNL     1      -3.302   4.815  26.275  0.00  0.00    +0.207 C 
ENDROOT
BRANCH  13   9
ATOM      5  O   UNL     1       0.410   2.295  25.443  0.00  0.00    -0.270 OA
ATOM      9  N   UNL     1      -0.027   3.221  23.386  0.00  0.00    -0.303 N 
ATOM     17  C   UNL     1       0.618   2.315  24.228  0.00  0.00    +0.251 C 
ATOM     31  H   UNL     1       0.193   3.243  22.396  0.00  0.00    +0.149 HD
BRANCH  17  19
ATOM      1  S   UNL     1       0.918  -0.124  23.002  0.00  0.00    -0.092 S 
ATOM     19  C   UNL     1       1.532   1.370  23.573  0.00  0.00    +0.074 A 
ATOM     20  C   UNL     1       2.882   1.499  23.330  0.00  0.00    +0.021 A 
ATOM     22  C   UNL     1       3.419   0.359  22.667  0.00  0.00    +0.008 A 
ATOM     23  C   UNL     1       2.459  -0.600  22.428  0.00  0.00    +0.046 A 
ENDBRANCH  17  19
ENDBRANCH  13   9
BRANCH  14   4
ATOM      4  O   UNL     1      -4.830   2.952  26.007  0.00  0.00    -0.442 OA
BRANCH   4  18
ATOM      6  O   UNL     1      -6.162   1.324  25.110  0.00  0.00    -0.226 OA
ATOM     10  N   UNL     1      -3.873   0.984  25.461  0.00  0.00    -0.251 N 
ATOM     18  C   UNL     1      -5.057   1.696  25.483  0.00  0.00    +0.405 C 
ATOM     32  H   UNL     1      -3.052   1.469  25.816  0.00  0.00    +0.158 HD
BRANCH  10  21
ATOM     21  C   UNL     1      -3.660  -0.336  25.005  0.00  0.00    +0.043 A 
ATOM     24  C   UNL     1      -2.430  -0.959  25.219  0.00  0.00    +0.069 A 
ATOM     25  C   UNL     1      -4.680  -1.018  24.340  0.00  0.00    +0.069 A 
ATOM     26  C   UNL     1      -4.469  -2.322  23.891  0.00  0.00    +0.125 A 
ATOM     27  C   UNL     1      -2.220  -2.263  24.769  0.00  0.00    +0.125 A 
ATOM     28  C   UNL     1      -3.240  -2.944  24.105  0.00  0.00    +0.091 A 
BRANCH  26   7
ATOM      7  O   UNL     1      -5.464  -2.986  23.241  0.00  0.00    -0.495 OA
ATOM     29  C   UNL     1      -5.071  -3.971  22.287  0.00  0.00    +0.277 C 
ENDBRANCH  26   7
BRANCH  27   8
ATOM      8  O   UNL     1      -1.020  -2.869  24.978  0.00  0.00    -0.495 OA
ATOM     30  C   UNL     1      -0.007  -2.101  25.625  0.00  0.00    +0.277 C 
ENDBRANCH  27   8
ENDBRANCH  10  21
ENDBRANCH   4  18
ENDBRANCH  14   4
TORSDOF 7
ENDMDL
MODEL 6
REMARK VINA RESULT:       2.4      1.866      5.380
REMARK  Name = 11883371
REMARK  9 active torsions:
REMARK  status: ('A' for Active; 'I' for Inactive)
REMARK    1  A    between atoms: O_4  and  C_14
REMARK    2  A    between atoms: O_4  and  C_18
REMARK    3  A    between atoms: O_7  and  C_26
REMARK    4  A    between atoms: O_7  and  C_29
REMARK    5  A    between atoms: O_8  and  C_27
REMARK    6  A    between atoms: O_8  and  C_30
REMARK    7  A    between atoms: N_9  and  C_13
REMARK    8  A    between atoms: N_10  and  C_21
REMARK    9  A    between atoms: C_17  and  C_19
REMARK                            x       y       z     vdW  Elec       q    Type
REMARK                         _______ _______ _______ _____ _____    ______ ____
ROOT
ATOM      2  O   UNL     1      -3.142   3.151  23.824  0.00  0.00    -0.368 OA
ATOM      3  O   UNL     1      -1.950   5.053  25.914  0.00  0.00    -0.368 OA
ATOM     11  C   UNL     1      -1.417   3.869  25.284  0.00  0.00    +0.173 C 
ATOM     12  C   UNL     1      -2.571   2.901  25.119  0.00  0.00    +0.192 C 
ATOM     13  C   UNL     1      -0.998   4.179  23.866  0.00  0.00    +0.130 C 
ATOM     14  C   UNL     1      -3.505   3.315  26.232  0.00  0.00    +0.235 C 
ATOM     15  C   UNL     1      -2.316   4.086  23.114  0.00  0.00    +0.185 C 
ATOM     16  C   UNL     1      -3.322   4.816  26.260  0.00  0.00    +0.207 C 
ENDROOT
BRANCH  13   9
ATOM      5  O   UNL     1       0.423   2.323  25.444  0.00  0.00    -0.270 OA
ATOM      9  N   UNL     1      -0.047   3.210  23.378  0.00  0.00    -0.303 N 
ATOM     17  C   UNL     1       0.615   2.324  24.227  0.00  0.00    +0.251 C 
ATOM     31  H   UNL     1       0.160   3.217  22.385  0.00  0.00    +0.149 HD
BRANCH  17  19
ATOM      1  S   UNL     1       0.912  -0.120  23.010  0.00  0.00    -0.092 S 
ATOM     19  C   UNL     1       1.528   1.374  23.576  0.00  0.00    +0.074 A 
ATOM     20  C   UNL     1       2.878   1.500  23.335  0.00  0.00    +0.021 A 
ATOM     22  C   UNL     1       3.414   0.356  22.678  0.00  0.00    +0.008 A 
ATOM     23  C   UNL     1       2.452  -0.602  22.440  0.00  0.00    +0.046 A 
ENDBRANCH  17  19
ENDBRANCH  13   9
BRANCH  14   4
ATOM      4  O   UNL     1      -4.848   2.948  26.005  0.00  0.00    -0.442 OA
BRANCH   4  18
ATOM      6  O   UNL     1      -6.178   1.314  25.119  0.00  0.00    -0.226 OA
ATOM     10  N   UNL     1      -3.886   0.983  25.458  0.00  0.00    -0.251 N 
ATOM     18  C   UNL     1      -5.072   1.691  25.485  0.00  0.00    +0.405 C 
ATOM     32  H   UNL     1      -3.065   1.471  25.808  0.00  0.00    +0.158 HD
BRANCH  10  21
ATOM     21  C   UNL     1      -3.670  -0.338  25.003  0.00  0.00    +0.043 A 
ATOM     24  C   UNL     1      -4.685  -1.020  24.332  0.00  0.00    +0.069 A 
ATOM     25  C   UNL     1      -2.441  -0.960  25.225  0.00  0.00    +0.069 A 
ATOM     26  C   UNL     1      -2.228  -2.263  24.775  0.00  0.00    +0.125 A 
ATOM     27  C   UNL     1      -4.472  -2.322  23.882  0.00  0.00    +0.125 A 
ATOM     28  C   UNL     1      -3.243  -2.944  24.104  0.00  0.00    +0.091 A 
BRANCH  26   7
ATOM      7  O   UNL     1      -1.029  -2.870  24.992  0.00  0.00    -0.495 OA
ATOM     29  C   UNL     1      -0.013  -2.094  25.624  0.00  0.00    +0.277 C 
ENDBRANCH  26   7
BRANCH  27   8
ATOM      8  O   UNL     1      -5.463  -2.987  23.227  0.00  0.00    -0.495 OA
ATOM     30  C   UNL     1      -5.065  -3.984  22.287  0.00  0.00    +0.277 C 
ENDBRANCH  27   8
ENDBRANCH  10  21
ENDBRANCH   4  18
ENDBRANCH  14   4
TORSDOF 7
ENDMDL
MODEL 7
REMARK VINA RESULT:       2.6      2.851      6.335
REMARK  Name = 11883371
REMARK  9 active torsions:
REMARK  status: ('A' for Active; 'I' for Inactive)
REMARK    1  A    between atoms: O_4  and  C_14
REMARK    2  A    between atoms: O_4  and  C_18
REMARK    3  A    between atoms: O_7  and  C_26
REMARK    4  A    between atoms: O_7  and  C_29
REMARK    5  A    between atoms: O_8  and  C_27
REMARK    6  A    between atoms: O_8  and  C_30
REMARK    7  A    between atoms: N_9  and  C_13
REMARK    8  A    between atoms: N_10  and  C_21
REMARK    9  A    between atoms: C_17  and  C_19
REMARK                            x       y       z     vdW  Elec       q    Type
REMARK                         _______ _______ _______ _____ _____    ______ ____
ROOT
ATOM      2  O   UNL     1      -2.729   2.368  24.898  0.00  0.00    -0.368 OA
ATOM      3  O   UNL     1      -3.050   5.371  24.368  0.00  0.00    -0.368 OA
ATOM     11  C   UNL     1      -2.556   4.650  25.516  0.00  0.00    +0.173 C 
ATOM     12  C   UNL     1      -3.399   3.397  25.645  0.00  0.00    +0.192 C 
ATOM     13  C   UNL     1      -1.166   4.126  25.241  0.00  0.00    +0.130 C 
ATOM     14  C   UNL     1      -4.696   3.809  24.991  0.00  0.00    +0.235 C 
ATOM     15  C   UNL     1      -1.451   2.853  24.461  0.00  0.00    +0.185 C 
ATOM     16  C   UNL     1      -4.220   4.704  23.870  0.00  0.00    +0.207 C 
ENDROOT
BRANCH  13   9
ATOM      5  O   UNL     1       0.633   1.994  25.653  0.00  0.00    -0.270 OA
ATOM      9  N   UNL     1      -0.462   3.842  26.468  0.00  0.00    -0.303 N 
ATOM     17  C   UNL     1       0.415   2.764  26.590  0.00  0.00    +0.251 C 
ATOM     31  H   UNL     1      -0.654   4.437  27.267  0.00  0.00    +0.149 HD
BRANCH  17  19
ATOM      1  S   UNL     1       2.722   3.097  28.041  0.00  0.00    -0.092 S 
ATOM     19  C   UNL     1       1.083   2.626  27.891  0.00  0.00    +0.074 A 
ATOM     20  C   UNL     1       0.572   2.150  29.079  0.00  0.00    +0.021 A 
ATOM     22  C   UNL     1       1.538   2.172  30.125  0.00  0.00    +0.008 A 
ATOM     23  C   UNL     1       2.752   2.664  29.697  0.00  0.00    +0.046 A 
ENDBRANCH  17  19
ENDBRANCH  13   9
BRANCH  14   4
ATOM      4  O   UNL     1      -5.456   2.721  24.514  0.00  0.00    -0.442 OA
BRANCH   4  18
ATOM      6  O   UNL     1      -5.603   0.989  26.000  0.00  0.00    -0.226 OA
ATOM     10  N   UNL     1      -4.183   0.897  24.142  0.00  0.00    -0.251 N 
ATOM     18  C   UNL     1      -5.116   1.469  24.983  0.00  0.00    +0.405 C 
ATOM     32  H   UNL     1      -3.899   1.457  23.340  0.00  0.00    +0.158 HD
BRANCH  10  21
ATOM     21  C   UNL     1      -3.571  -0.372  24.254  0.00  0.00    +0.043 A 
ATOM     24  C   UNL     1      -2.230  -0.470  24.625  0.00  0.00    +0.069 A 
ATOM     25  C   UNL     1      -4.308  -1.527  23.994  0.00  0.00    +0.069 A 
ATOM     26  C   UNL     1      -3.705  -2.780  24.106  0.00  0.00    +0.125 A 
ATOM     27  C   UNL     1      -1.626  -1.723  24.737  0.00  0.00    +0.125 A 
ATOM     28  C   UNL     1      -2.364  -2.877  24.477  0.00  0.00    +0.091 A 
BRANCH  26   7
ATOM      7  O   UNL     1      -4.424  -3.907  23.851  0.00  0.00    -0.495 OA
ATOM     29  C   UNL     1      -5.502  -3.793  22.924  0.00  0.00    +0.277 C 
ENDBRANCH  26   7
BRANCH  27   8
ATOM      8  O   UNL     1      -0.318  -1.818  25.098  0.00  0.00    -0.495 OA
ATOM     30  C   UNL     1       0.628  -1.093  24.314  0.00  0.00    +0.277 C 
ENDBRANCH  27   8
ENDBRANCH  10  21
ENDBRANCH   4  18
ENDBRANCH  14   4
TORSDOF 7
ENDMDL
MODEL 8
REMARK VINA RESULT:       2.6      2.851      6.001
REMARK  Name = 11883371
REMARK  9 active torsions:
REMARK  status: ('A' for Active; 'I' for Inactive)
REMARK    1  A    between atoms: O_4  and  C_14
REMARK    2  A    between atoms: O_4  and  C_18
REMARK    3  A    between atoms: O_7  and  C_26
REMARK    4  A    between atoms: O_7  and  C_29
REMARK    5  A    between atoms: O_8  and  C_27
REMARK    6  A    between atoms: O_8  and  C_30
REMARK    7  A    between atoms: N_9  and  C_13
REMARK    8  A    between atoms: N_10  and  C_21
REMARK    9  A    between atoms: C_17  and  C_19
REMARK                            x       y       z     vdW  Elec       q    Type
REMARK                         _______ _______ _______ _____ _____    ______ ____
ROOT
ATOM      2  O   UNL     1      -2.747   2.364  24.911  0.00  0.00    -0.368 OA
ATOM      3  O   UNL     1      -3.061   5.366  24.373  0.00  0.00    -0.368 OA
ATOM     11  C   UNL     1      -2.567   4.648  25.522  0.00  0.00    +0.173 C 
ATOM     12  C   UNL     1      -3.413   3.397  25.656  0.00  0.00    +0.192 C 
ATOM     13  C   UNL     1      -1.179   4.119  25.247  0.00  0.00    +0.130 C 
ATOM     14  C   UNL     1      -4.710   3.810  25.003  0.00  0.00    +0.235 C 
ATOM     15  C   UNL     1      -1.468   2.845  24.470  0.00  0.00    +0.185 C 
ATOM     16  C   UNL     1      -4.233   4.701  23.879  0.00  0.00    +0.207 C 
ENDROOT
BRANCH  13   9
ATOM      5  O   UNL     1       0.640   2.002  25.652  0.00  0.00    -0.270 OA
ATOM      9  N   UNL     1      -0.474   3.837  26.473  0.00  0.00    -0.303 N 
ATOM     17  C   UNL     1       0.413   2.766  26.592  0.00  0.00    +0.251 C 
ATOM     31  H   UNL     1      -0.673   4.426  27.275  0.00  0.00    +0.149 HD
BRANCH  17  19
ATOM      1  S   UNL     1       2.718   3.107  28.046  0.00  0.00    -0.092 S 
ATOM     19  C   UNL     1       1.081   2.629  27.894  0.00  0.00    +0.074 A 
ATOM     20  C   UNL     1       0.572   2.149  29.080  0.00  0.00    +0.021 A 
ATOM     22  C   UNL     1       1.537   2.173  30.127  0.00  0.00    +0.008 A 
ATOM     23  C   UNL     1       2.749   2.672  29.701  0.00  0.00    +0.046 A 
ENDBRANCH  17  19
ENDBRANCH  13   9
BRANCH  14   4
ATOM      4  O   UNL     1      -5.473   2.723  24.531  0.00  0.00    -0.442 OA
BRANCH   4  18
ATOM      6  O   UNL     1      -5.616   0.987  26.012  0.00  0.00    -0.226 OA
ATOM     10  N   UNL     1      -4.197   0.902  24.153  0.00  0.00    -0.251 N 
ATOM     18  C   UNL     1      -5.131   1.471  24.997  0.00  0.00    +0.405 C 
ATOM     32  H   UNL     1      -3.915   1.464  23.353  0.00  0.00    +0.158 HD
BRANCH  10  21
ATOM     21  C   UNL     1      -3.583  -0.366  24.262  0.00  0.00    +0.043 A 
ATOM     24  C   UNL     1      -4.317  -1.522  23.998  0.00  0.00    +0.069 A 
ATOM     25  C   UNL     1      -2.241  -0.462  24.632  0.00  0.00    +0.069 A 
ATOM     26  C   UNL     1      -1.635  -1.713  24.739  0.00  0.00    +0.125 A 
ATOM     27  C   UNL     1      -3.711  -2.774  24.104  0.00  0.00    +0.125 A 
ATOM     28  C   UNL     1      -2.369  -2.869  24.475  0.00  0.00    +0.091 A 
BRANCH  26   7
ATOM      7  O   UNL     1      -0.326  -1.807  25.101  0.00  0.00    -0.495 OA
ATOM     29  C   UNL     1       0.620  -1.090  24.310  0.00  0.00    +0.277 C 
ENDBRANCH  26   7
BRANCH  27   8
ATOM      8  O   UNL     1      -4.427  -3.902  23.847  0.00  0.00    -0.495 OA
ATOM     30  C   UNL     1      -5.506  -3.789  22.920  0.00  0.00    +0.277 C 
ENDBRANCH  27   8
ENDBRANCH  10  21
ENDBRANCH   4  18
ENDBRANCH  14   4
TORSDOF 7
ENDMDL
MODEL 9
REMARK VINA RESULT:       2.8      2.223      7.140
REMARK  Name = 11883371
REMARK  9 active torsions:
REMARK  status: ('A' for Active; 'I' for Inactive)
REMARK    1  A    between atoms: O_4  and  C_14
REMARK    2  A    between atoms: O_4  and  C_18
REMARK    3  A    between atoms: O_7  and  C_26
REMARK    4  A    between atoms: O_7  and  C_29
REMARK    5  A    between atoms: O_8  and  C_27
REMARK    6  A    between atoms: O_8  and  C_30
REMARK    7  A    between atoms: N_9  and  C_13
REMARK    8  A    between atoms: N_10  and  C_21
REMARK    9  A    between atoms: C_17  and  C_19
REMARK                            x       y       z     vdW  Elec       q    Type
REMARK                         _______ _______ _______ _____ _____    ______ ____
ROOT
ATOM      2  O   UNL     1      -2.584   2.781  25.785  0.00  0.00    -0.368 OA
ATOM      3  O   UNL     1      -4.653   4.557  24.382  0.00  0.00    -0.368 OA
ATOM     11  C   UNL     1      -4.234   3.199  24.134  0.00  0.00    +0.173 C 
ATOM     12  C   UNL     1      -2.743   3.142  24.402  0.00  0.00    +0.192 C 
ATOM     13  C   UNL     1      -4.825   2.275  25.173  0.00  0.00    +0.130 C 
ATOM     14  C   UNL     1      -2.312   4.566  24.143  0.00  0.00    +0.235 C 
ATOM     15  C   UNL     1      -3.865   2.447  26.339  0.00  0.00    +0.185 C 
ATOM     16  C   UNL     1      -3.493   5.357  24.656  0.00  0.00    +0.207 C 
ENDROOT
BRANCH  13   9
ATOM      5  O   UNL     1      -2.893   0.305  25.756  0.00  0.00    -0.270 OA
ATOM      9  N   UNL     1      -4.847   0.910  24.709  0.00  0.00    -0.303 N 
ATOM     17  C   UNL     1      -3.849  -0.006  25.044  0.00  0.00    +0.251 C 
ATOM     31  H   UNL     1      -5.601   0.638  24.087  0.00  0.00    +0.149 HD
BRANCH  17  19
ATOM      1  S   UNL     1      -3.305  -2.680  25.351  0.00  0.00    -0.092 S 
ATOM     19  C   UNL     1      -4.029  -1.368  24.522  0.00  0.00    +0.074 A 
ATOM     20  C   UNL     1      -4.726  -1.782  23.408  0.00  0.00    +0.021 A 
ATOM     22  C   UNL     1      -4.665  -3.194  23.233  0.00  0.00    +0.008 A 
ATOM     23  C   UNL     1      -3.924  -3.807  24.220  0.00  0.00    +0.046 A 
ENDBRANCH  17  19
ENDBRANCH  13   9
BRANCH  14   4
ATOM      4  O   UNL     1      -1.113   4.919  24.796  0.00  0.00    -0.442 OA
BRANCH   4  18
ATOM      6  O   UNL     1       0.550   3.867  25.962  0.00  0.00    -0.226 OA
ATOM     10  N   UNL     1      -0.242   3.029  23.925  0.00  0.00    -0.251 N 
ATOM     18  C   UNL     1      -0.186   3.915  24.984  0.00  0.00    +0.405 C 
ATOM     32  H   UNL     1      -0.925   3.240  23.201  0.00  0.00    +0.158 HD
BRANCH  10  21
ATOM     21  C   UNL     1       0.533   1.865  23.721  0.00  0.00    +0.043 A 
ATOM     24  C   UNL     1       1.841   1.971  23.249  0.00  0.00    +0.069 A 
ATOM     25  C   UNL     1      -0.011   0.609  23.993  0.00  0.00    +0.069 A 
ATOM     26  C   UNL     1       0.755  -0.540  23.793  0.00  0.00    +0.125 A 
ATOM     27  C   UNL     1       2.607   0.822  23.049  0.00  0.00    +0.125 A 
ATOM     28  C   UNL     1       2.063  -0.433  23.321  0.00  0.00    +0.091 A 
BRANCH  26   7
ATOM      7  O   UNL     1       0.224  -1.765  24.057  0.00  0.00    -0.495 OA
ATOM     29  C   UNL     1      -0.239  -1.999  25.386  0.00  0.00    +0.277 C 
ENDBRANCH  26   7
BRANCH  27   8
ATOM      8  O   UNL     1       3.883   0.925  22.588  0.00  0.00    -0.495 OA
ATOM     30  C   UNL     1       4.902   0.273  23.345  0.00  0.00    +0.277 C 
ENDBRANCH  27   8
ENDBRANCH  10  21
ENDBRANCH   4  18
ENDBRANCH  14   4
TORSDOF 7
ENDMDL
MODEL 10
REMARK VINA RESULT:       2.8      2.226      6.864
REMARK  Name = 11883371
REMARK  9 active torsions:
REMARK  status: ('A' for Active; 'I' for Inactive)
REMARK    1  A    between atoms: O_4  and  C_14
REMARK    2  A    between atoms: O_4  and  C_18
REMARK    3  A    between atoms: O_7  and  C_26
REMARK    4  A    between atoms: O_7  and  C_29
REMARK    5  A    between atoms: O_8  and  C_27
REMARK    6  A    between atoms: O_8  and  C_30
REMARK    7  A    between atoms: N_9  and  C_13
REMARK    8  A    between atoms: N_10  and  C_21
REMARK    9  A    between atoms: C_17  and  C_19
REMARK                            x       y       z     vdW  Elec       q    Type
REMARK                         _______ _______ _______ _____ _____    ______ ____
ROOT
ATOM      2  O   UNL     1      -2.547   2.776  25.787  0.00  0.00    -0.368 OA
ATOM      3  O   UNL     1      -4.630   4.566  24.423  0.00  0.00    -0.368 OA
ATOM     11  C   UNL     1      -4.217   3.209  24.160  0.00  0.00    +0.173 C 
ATOM     12  C   UNL     1      -2.724   3.148  24.409  0.00  0.00    +0.192 C 
ATOM     13  C   UNL     1      -4.797   2.279  25.200  0.00  0.00    +0.130 C 
ATOM     14  C   UNL     1      -2.292   4.572  24.154  0.00  0.00    +0.235 C 
ATOM     15  C   UNL     1      -3.822   2.441  26.355  0.00  0.00    +0.185 C 
ATOM     16  C   UNL     1      -3.466   5.362  24.688  0.00  0.00    +0.207 C 
ENDROOT
BRANCH  13   9
ATOM      5  O   UNL     1      -2.871   0.296  25.761  0.00  0.00    -0.270 OA
ATOM      9  N   UNL     1      -4.827   0.917  24.726  0.00  0.00    -0.303 N 
ATOM     17  C   UNL     1      -3.832  -0.005  25.051  0.00  0.00    +0.251 C 
ATOM     31  H   UNL     1      -5.586   0.653  24.107  0.00  0.00    +0.149 HD
BRANCH  17  19
ATOM      1  S   UNL     1      -3.304  -2.685  25.341  0.00  0.00    -0.092 S 
ATOM     19  C   UNL     1      -4.020  -1.363  24.521  0.00  0.00    +0.074 A 
ATOM     20  C   UNL     1      -4.721  -1.767  23.405  0.00  0.00    +0.021 A 
ATOM     22  C   UNL     1      -4.669  -3.178  23.221  0.00  0.00    +0.008 A 
ATOM     23  C   UNL     1      -3.931  -3.800  24.204  0.00  0.00    +0.046 A 
ENDBRANCH  17  19
ENDBRANCH  13   9
BRANCH  14   4
ATOM      4  O   UNL     1      -1.085   4.918  24.795  0.00  0.00    -0.442 OA
BRANCH   4  18
ATOM      6  O   UNL     1       0.575   3.856  25.955  0.00  0.00    -0.226 OA
ATOM     10  N   UNL     1      -0.233   3.020  23.923  0.00  0.00    -0.251 N 
ATOM     18  C   UNL     1      -0.165   3.907  24.980  0.00  0.00    +0.405 C 
ATOM     32  H   UNL     1      -0.918   3.234  23.202  0.00  0.00    +0.158 HD
BRANCH  10  21
ATOM     21  C   UNL     1       0.532   1.849  23.719  0.00  0.00    +0.043 A 
ATOM     24  C   UNL     1      -0.022   0.598  23.989  0.00  0.00    +0.069 A 
ATOM     25  C   UNL     1       1.841   1.945  23.245  0.00  0.00    +0.069 A 
ATOM     26  C   UNL     1       2.595   0.789  23.042  0.00  0.00    +0.125 A 
ATOM     27  C   UNL     1       0.732  -0.558  23.786  0.00  0.00    +0.125 A 
ATOM     28  C   UNL     1       2.041  -0.462  23.313  0.00  0.00    +0.091 A 
BRANCH  26   7
ATOM      7  O   UNL     1       3.872   0.882  22.581  0.00  0.00    -0.495 OA
ATOM     29  C   UNL     1       4.901   0.340  23.408  0.00  0.00    +0.277 C 
ENDBRANCH  26   7
BRANCH  27   8
ATOM      8  O   UNL     1       0.192  -1.778  24.050  0.00  0.00    -0.495 OA
ATOM     30  C   UNL     1      -0.197  -2.039  25.398  0.00  0.00    +0.277 C 
ENDBRANCH  27   8
ENDBRANCH  10  21
ENDBRANCH   4  18
ENDBRANCH  14   4
TORSDOF 7
ENDMDL
