MODEL 1
REMARK VINA RESULT:      -2.3      0.000      0.000
REMARK  Name = 51137850
REMARK  7 active torsions:
REMARK  status: ('A' for Active; 'I' for Inactive)
REMARK    1  A    between atoms: O_3  and  C_20
REMARK    2  A    between atoms: O_3  and  C_27
REMARK    3  A    between atoms: O_4  and  C_22
REMARK    4  A    between atoms: O_4  and  C_28
REMARK    5  A    between atoms: C_9  and  C_13
REMARK    6  A    between atoms: C_14  and  C_15
REMARK    7  A    between atoms: C_16  and  C_19
REMARK                            x       y       z     vdW  Elec       q    Type
REMARK                         _______ _______ _______ _____ _____    ______ ____
ROOT
ATOM      2  O   UNL     1      -3.446  -8.541  10.351  0.00  0.00    -0.270 OA
ATOM      5  N   UNL     1      -5.311  -9.893  10.049  0.00  0.00    -0.297 N 
ATOM      9  C   UNL     1      -7.452 -10.736   9.443  0.00  0.00    +0.095 C 
ATOM     10  C   UNL     1      -6.614 -10.498   8.177  0.00  0.00    +0.033 C 
ATOM     11  C   UNL     1      -6.374 -10.773  10.535  0.00  0.00    +0.121 C 
ATOM     12  C   UNL     1      -5.502  -9.567   8.644  0.00  0.00    +0.109 C 
ATOM     14  C   UNL     1      -4.277  -9.336  10.786  0.00  0.00    +0.247 C 
ENDROOT
BRANCH  14  15
ATOM     15  C   UNL     1      -4.174  -9.713  12.204  0.00  0.00    +0.041 A 
ATOM     17  C   UNL     1      -5.328  -9.843  12.978  0.00  0.00    +0.062 A 
ATOM     18  C   UNL     1      -2.922  -9.941  12.776  0.00  0.00    +0.017 A 
ATOM     20  C   UNL     1      -5.229 -10.200  14.322  0.00  0.00    +0.162 A 
ATOM     21  C   UNL     1      -2.823 -10.298  14.120  0.00  0.00    +0.050 A 
ATOM     22  C   UNL     1      -3.977 -10.428  14.895  0.00  0.00    +0.162 A 
BRANCH  20   3
ATOM      3  O   UNL     1      -6.364 -10.325  15.067  0.00  0.00    -0.491 OA
ATOM     27  C   UNL     1      -7.600 -10.036  14.418  0.00  0.00    +0.277 C 
ENDBRANCH  20   3
BRANCH  22   4
ATOM      4  O   UNL     1      -3.868 -10.780  16.205  0.00  0.00    -0.491 OA
ATOM     28  C   UNL     1      -2.563 -10.743  16.779  0.00  0.00    +0.277 C 
ENDBRANCH  22   4
ENDBRANCH  14  15
BRANCH   9  13
ATOM      1  O   UNL     1      -8.250  -8.430   9.171  0.00  0.00    -0.420 OA
ATOM      6  N   UNL     1      -9.751  -9.808  10.096  0.00  0.00    -0.112 NA
ATOM      7  N   UNL     1     -10.324  -8.554  10.001  0.00  0.00    -0.107 NA
ATOM     13  C   UNL     1      -8.541  -9.689   9.600  0.00  0.00    +0.222 A 
ATOM     16  C   UNL     1      -9.413  -7.782   9.455  0.00  0.00    +0.248 A 
BRANCH  16  19
ATOM      8  N   UNL     1      -9.535  -3.672   8.467  0.00  0.00    -0.263 NA
ATOM     19  C   UNL     1      -9.453  -6.388   9.121  0.00  0.00    +0.041 A 
ATOM     23  C   UNL     1      -8.313  -5.751   8.646  0.00  0.00    +0.033 A 
ATOM     24  C   UNL     1     -10.635  -5.670   9.270  0.00  0.00    +0.033 A 
ATOM     25  C   UNL     1      -8.406  -4.403   8.336  0.00  0.00    +0.111 A 
ATOM     26  C   UNL     1     -10.623  -4.326   8.932  0.00  0.00    +0.111 A 
ENDBRANCH  16  19
ENDBRANCH   9  13
TORSDOF 5
ENDMDL
MODEL 2
REMARK VINA RESULT:       1.1      2.771      3.689
REMARK  Name = 51137850
REMARK  7 active torsions:
REMARK  status: ('A' for Active; 'I' for Inactive)
REMARK    1  A    between atoms: O_3  and  C_20
REMARK    2  A    between atoms: O_3  and  C_27
REMARK    3  A    between atoms: O_4  and  C_22
REMARK    4  A    between atoms: O_4  and  C_28
REMARK    5  A    between atoms: C_9  and  C_13
REMARK    6  A    between atoms: C_14  and  C_15
REMARK    7  A    between atoms: C_16  and  C_19
REMARK                            x       y       z     vdW  Elec       q    Type
REMARK                         _______ _______ _______ _____ _____    ______ ____
ROOT
ATOM      2  O   UNL     1      -2.401  -7.817   9.999  0.00  0.00    -0.270 OA
ATOM      5  N   UNL     1      -3.962  -9.528   9.834  0.00  0.00    -0.297 N 
ATOM      9  C   UNL     1      -5.961 -10.780   9.514  0.00  0.00    +0.095 C 
ATOM     10  C   UNL     1      -5.495 -10.198   8.169  0.00  0.00    +0.033 C 
ATOM     11  C   UNL     1      -4.683 -10.689  10.359  0.00  0.00    +0.121 C 
ATOM     12  C   UNL     1      -4.526  -9.092   8.566  0.00  0.00    +0.109 C 
ATOM     14  C   UNL     1      -2.930  -8.833  10.444  0.00  0.00    +0.247 C 
ENDROOT
BRANCH  14  15
ATOM     15  C   UNL     1      -2.436  -9.342  11.733  0.00  0.00    +0.041 A 
ATOM     17  C   UNL     1      -3.339  -9.787  12.700  0.00  0.00    +0.062 A 
ATOM     18  C   UNL     1      -1.065  -9.381  11.990  0.00  0.00    +0.017 A 
ATOM     20  C   UNL     1      -2.871 -10.269  13.922  0.00  0.00    +0.162 A 
ATOM     21  C   UNL     1      -0.597  -9.863  13.212  0.00  0.00    +0.050 A 
ATOM     22  C   UNL     1      -1.500 -10.308  14.179  0.00  0.00    +0.162 A 
BRANCH  20   3
ATOM      3  O   UNL     1      -3.763 -10.702  14.857  0.00  0.00    -0.491 OA
ATOM     27  C   UNL     1      -5.120 -10.298  14.693  0.00  0.00    +0.277 C 
ENDBRANCH  20   3
BRANCH  22   4
ATOM      4  O   UNL     1      -1.031 -10.778  15.367  0.00  0.00    -0.491 OA
ATOM     28  C   UNL     1      -0.069  -9.975  16.047  0.00  0.00    +0.277 C 
ENDBRANCH  22   4
ENDBRANCH  14  15
BRANCH   9  13
ATOM      1  O   UNL     1      -7.392 -10.104  11.391  0.00  0.00    -0.420 OA
ATOM      6  N   UNL     1      -8.089  -9.355   9.401  0.00  0.00    -0.112 NA
ATOM      7  N   UNL     1      -8.977  -8.907  10.360  0.00  0.00    -0.107 NA
ATOM     13  C   UNL     1      -7.181 -10.050  10.047  0.00  0.00    +0.222 A 
ATOM     16  C   UNL     1      -8.531  -9.367  11.507  0.00  0.00    +0.248 A 
BRANCH  16  19
ATOM      8  N   UNL     1     -10.060  -8.919  15.424  0.00  0.00    -0.263 NA
ATOM     19  C   UNL     1      -9.049  -9.216  12.835  0.00  0.00    +0.041 A 
ATOM     23  C   UNL     1      -8.345  -9.722  13.921  0.00  0.00    +0.033 A 
ATOM     24  C   UNL     1     -10.258  -8.561  13.041  0.00  0.00    +0.033 A 
ATOM     25  C   UNL     1      -8.888  -9.550  15.184  0.00  0.00    +0.111 A 
ATOM     26  C   UNL     1     -10.716  -8.440  14.343  0.00  0.00    +0.111 A 
ENDBRANCH  16  19
ENDBRANCH   9  13
TORSDOF 5
ENDMDL
