MODEL 1
REMARK VINA RESULT:       1.9      0.000      0.000
REMARK  Name = 11913048
REMARK  7 active torsions:
REMARK  status: ('A' for Active; 'I' for Inactive)
REMARK    1  A    between atoms: O_3  and  C_14
REMARK    2  A    between atoms: O_3  and  C_18
REMARK    3  A    between atoms: N_7  and  C_13
REMARK    4  A    between atoms: N_10  and  C_21
REMARK    5  A    between atoms: C_19  and  C_23
REMARK    6  A    between atoms: C_29  and  C_32
REMARK    7  A    between atoms: C_32  and  C_33
REMARK                            x       y       z     vdW  Elec       q    Type
REMARK                         _______ _______ _______ _____ _____    ______ ____
ROOT
ATOM      1  O   UNL     1      -2.983  -1.281  23.507  0.00  0.00    -0.368 OA
ATOM      2  O   UNL     1      -1.201  -0.794  25.957  0.00  0.00    -0.368 OA
ATOM     11  C   UNL     1      -2.397  -0.131  25.497  0.00  0.00    +0.173 C 
ATOM     12  C   UNL     1      -2.323  -0.096  23.983  0.00  0.00    +0.192 C 
ATOM     13  C   UNL     1      -3.607  -0.987  25.785  0.00  0.00    +0.130 C 
ATOM     14  C   UNL     1      -0.836  -0.142  23.726  0.00  0.00    +0.235 C 
ATOM     15  C   UNL     1      -3.608  -1.953  24.612  0.00  0.00    +0.185 C 
ATOM     16  C   UNL     1      -0.350  -1.052  24.831  0.00  0.00    +0.207 C 
ENDROOT
BRANCH  13   7
ATOM      7  N   UNL     1      -4.808  -0.180  25.771  0.00  0.00    -0.306 N 
ATOM      8  N   UNL     1      -3.607   1.799  25.386  0.00  0.00    -0.211 NA
ATOM      9  N   UNL     1      -6.009   1.827  25.582  0.00  0.00    -0.223 NA
ATOM     17  C   UNL     1      -4.807   1.190  25.574  0.00  0.00    +0.216 A 
ATOM     19  C   UNL     1      -3.644   3.134  25.197  0.00  0.00    +0.111 A 
ATOM     20  C   UNL     1      -5.972   3.161  25.386  0.00  0.00    +0.116 A 
ATOM     22  C   UNL     1      -4.808   3.875  25.186  0.00  0.00    +0.051 A 
ATOM     34  H   UNL     1      -5.712  -0.630  25.858  0.00  0.00    +0.149 HD
BRANCH  19  23
ATOM      5  O   UNL     1      -1.456   3.003  24.317  0.00  0.00    -0.461 OA
ATOM     23  C   UNL     1      -2.358   3.751  25.001  0.00  0.00    +0.153 A 
ATOM     26  C   UNL     1      -1.817   4.961  25.359  0.00  0.00    +0.051 A 
ATOM     30  C   UNL     1      -0.493   4.959  24.863  0.00  0.00    +0.042 A 
ATOM     31  C   UNL     1      -0.321   3.747  24.238  0.00  0.00    +0.196 A 
ENDBRANCH  19  23
ENDBRANCH  13   7
BRANCH  14   3
ATOM      3  O   UNL     1      -0.502  -0.633  22.448  0.00  0.00    -0.442 OA
BRANCH   3  18
ATOM      4  O   UNL     1       1.181  -0.578  20.901  0.00  0.00    -0.226 OA
ATOM     10  N   UNL     1       1.614  -0.413  23.195  0.00  0.00    -0.251 N 
ATOM     18  C   UNL     1       0.822  -0.543  22.071  0.00  0.00    +0.405 C 
ATOM     35  H   UNL     1       1.128  -0.403  24.089  0.00  0.00    +0.158 HD
BRANCH  10  21
ATOM     21  C   UNL     1       3.022  -0.291  23.260  0.00  0.00    +0.036 A 
ATOM     24  C   UNL     1       3.622   0.880  22.825  0.00  0.00    +0.024 A 
ATOM     25  C   UNL     1       3.772  -1.345  23.755  0.00  0.00    +0.024 A 
ATOM     27  C   UNL     1       5.010   1.000  22.889  0.00  0.00    +0.013 A 
ATOM     28  C   UNL     1       5.160  -1.225  23.819  0.00  0.00    +0.013 A 
ATOM     29  C   UNL     1       5.779  -0.053  23.385  0.00  0.00    +0.017 A 
BRANCH  29  32
ATOM      6  O   UNL     1       7.773   0.961  24.136  0.00  0.00    -0.292 OA
ATOM     32  C   UNL     1       7.227   0.072  23.453  0.00  0.00    +0.160 C 
ATOM     33  C   UNL     1       8.119  -0.894  22.680  0.00  0.00    +0.091 C 
ENDBRANCH  29  32
ENDBRANCH  10  21
ENDBRANCH   3  18
ENDBRANCH  14   3
TORSDOF 6
ENDMDL
MODEL 2
REMARK VINA RESULT:       3.0      1.150      1.526
REMARK  Name = 11913048
REMARK  7 active torsions:
REMARK  status: ('A' for Active; 'I' for Inactive)
REMARK    1  A    between atoms: O_3  and  C_14
REMARK    2  A    between atoms: O_3  and  C_18
REMARK    3  A    between atoms: N_7  and  C_13
REMARK    4  A    between atoms: N_10  and  C_21
REMARK    5  A    between atoms: C_19  and  C_23
REMARK    6  A    between atoms: C_29  and  C_32
REMARK    7  A    between atoms: C_32  and  C_33
REMARK                            x       y       z     vdW  Elec       q    Type
REMARK                         _______ _______ _______ _____ _____    ______ ____
ROOT
ATOM      1  O   UNL     1      -2.983  -0.247  23.254  0.00  0.00    -0.368 OA
ATOM      2  O   UNL     1      -2.144  -1.420  25.962  0.00  0.00    -0.368 OA
ATOM     11  C   UNL     1      -3.058  -0.357  25.622  0.00  0.00    +0.173 C 
ATOM     12  C   UNL     1      -2.457   0.375  24.438  0.00  0.00    +0.192 C 
ATOM     13  C   UNL     1      -4.345  -0.933  25.080  0.00  0.00    +0.130 C 
ATOM     14  C   UNL     1      -0.980   0.107  24.602  0.00  0.00    +0.235 C 
ATOM     15  C   UNL     1      -3.996  -1.194  23.625  0.00  0.00    +0.185 C 
ATOM     16  C   UNL     1      -0.971  -1.304  25.144  0.00  0.00    +0.207 C 
ENDROOT
BRANCH  13   7
ATOM      7  N   UNL     1      -5.410   0.041  25.174  0.00  0.00    -0.306 N 
ATOM      8  N   UNL     1      -3.907   1.839  25.290  0.00  0.00    -0.211 NA
ATOM      9  N   UNL     1      -6.287   2.209  25.357  0.00  0.00    -0.223 NA
ATOM     17  C   UNL     1      -5.194   1.404  25.277  0.00  0.00    +0.216 A 
ATOM     19  C   UNL     1      -3.734   3.173  25.390  0.00  0.00    +0.111 A 
ATOM     20  C   UNL     1      -6.041   3.532  25.454  0.00  0.00    +0.116 A 
ATOM     22  C   UNL     1      -4.773   4.077  25.476  0.00  0.00    +0.051 A 
ATOM     34  H   UNL     1      -6.374  -0.267  25.113  0.00  0.00    +0.149 HD
BRANCH  19  23
ATOM      5  O   UNL     1      -2.110   4.757  24.734  0.00  0.00    -0.461 OA
ATOM     23  C   UNL     1      -2.360   3.603  25.402  0.00  0.00    +0.153 A 
ATOM     26  C   UNL     1      -1.208   3.098  25.952  0.00  0.00    +0.051 A 
ATOM     30  C   UNL     1      -0.178   4.002  25.599  0.00  0.00    +0.042 A 
ATOM     31  C   UNL     1      -0.777   4.993  24.858  0.00  0.00    +0.196 A 
ENDBRANCH  19  23
ENDBRANCH  13   7
BRANCH  14   3
ATOM      3  O   UNL     1      -0.251   0.221  23.402  0.00  0.00    -0.442 OA
BRANCH   3  18
ATOM      4  O   UNL     1       1.354   1.789  23.841  0.00  0.00    -0.226 OA
ATOM     10  N   UNL     1       1.909  -0.386  23.174  0.00  0.00    -0.251 N 
ATOM     18  C   UNL     1       1.056   0.650  23.503  0.00  0.00    +0.405 C 
ATOM     35  H   UNL     1       1.468  -1.266  22.917  0.00  0.00    +0.158 HD
BRANCH  10  21
ATOM     21  C   UNL     1       3.322  -0.374  23.147  0.00  0.00    +0.036 A 
ATOM     24  C   UNL     1       4.022  -1.347  23.843  0.00  0.00    +0.024 A 
ATOM     25  C   UNL     1       3.980   0.609  22.426  0.00  0.00    +0.024 A 
ATOM     27  C   UNL     1       5.416  -1.336  23.817  0.00  0.00    +0.013 A 
ATOM     28  C   UNL     1       5.374   0.621  22.400  0.00  0.00    +0.013 A 
ATOM     29  C   UNL     1       6.092  -0.352  23.096  0.00  0.00    +0.017 A 
BRANCH  29  32
ATOM      6  O   UNL     1       8.189  -1.089  22.304  0.00  0.00    -0.292 OA
ATOM     32  C   UNL     1       7.547  -0.340  23.067  0.00  0.00    +0.160 C 
ATOM     33  C   UNL     1       8.326   0.600  23.981  0.00  0.00    +0.091 C 
ENDBRANCH  29  32
ENDBRANCH  10  21
ENDBRANCH   3  18
ENDBRANCH  14   3
TORSDOF 6
ENDMDL
MODEL 3
REMARK VINA RESULT:       3.2      1.470      3.577
REMARK  Name = 11913048
REMARK  7 active torsions:
REMARK  status: ('A' for Active; 'I' for Inactive)
REMARK    1  A    between atoms: O_3  and  C_14
REMARK    2  A    between atoms: O_3  and  C_18
REMARK    3  A    between atoms: N_7  and  C_13
REMARK    4  A    between atoms: N_10  and  C_21
REMARK    5  A    between atoms: C_19  and  C_23
REMARK    6  A    between atoms: C_29  and  C_32
REMARK    7  A    between atoms: C_32  and  C_33
REMARK                            x       y       z     vdW  Elec       q    Type
REMARK                         _______ _______ _______ _____ _____    ______ ____
ROOT
ATOM      1  O   UNL     1      -1.634   1.623  25.454  0.00  0.00    -0.368 OA
ATOM      2  O   UNL     1      -0.152   3.893  24.016  0.00  0.00    -0.368 OA
ATOM     11  C   UNL     1      -1.558   3.658  24.238  0.00  0.00    +0.173 C 
ATOM     12  C   UNL     1      -1.776   2.162  24.129  0.00  0.00    +0.192 C 
ATOM     13  C   UNL     1      -1.916   3.976  25.671  0.00  0.00    +0.130 C 
ATOM     14  C   UNL     1      -0.644   1.731  23.226  0.00  0.00    +0.235 C 
ATOM     15  C   UNL     1      -1.518   2.701  26.395  0.00  0.00    +0.185 C 
ATOM     16  C   UNL     1       0.475   2.653  23.656  0.00  0.00    +0.207 C 
ENDROOT
BRANCH  13   7
ATOM      7  N   UNL     1      -3.340   4.199  25.795  0.00  0.00    -0.306 N 
ATOM      8  N   UNL     1      -3.844   1.949  25.359  0.00  0.00    -0.211 NA
ATOM      9  N   UNL     1      -5.595   3.549  25.788  0.00  0.00    -0.223 NA
ATOM     17  C   UNL     1      -4.288   3.202  25.642  0.00  0.00    +0.216 A 
ATOM     19  C   UNL     1      -4.795   1.002  25.219  0.00  0.00    +0.111 A 
ATOM     20  C   UNL     1      -6.492   2.553  25.634  0.00  0.00    +0.116 A 
ATOM     22  C   UNL     1      -6.147   1.248  25.346  0.00  0.00    +0.051 A 
ATOM     34  H   UNL     1      -3.680   5.118  26.057  0.00  0.00    +0.149 HD
BRANCH  19  23
ATOM      5  O   UNL     1      -3.633  -0.926  25.933  0.00  0.00    -0.461 OA
ATOM     23  C   UNL     1      -4.295  -0.314  24.919  0.00  0.00    +0.153 A 
ATOM     26  C   UNL     1      -4.335  -1.118  23.807  0.00  0.00    +0.051 A 
ATOM     30  C   UNL     1      -3.652  -2.306  24.159  0.00  0.00    +0.042 A 
ATOM     31  C   UNL     1      -3.243  -2.140  25.461  0.00  0.00    +0.196 A 
ENDBRANCH  19  23
ENDBRANCH  13   7
BRANCH  14   3
ATOM      3  O   UNL     1      -0.298   0.373  23.367  0.00  0.00    -0.442 OA
BRANCH   3  18
ATOM      4  O   UNL     1       0.953  -0.578  21.706  0.00  0.00    -0.226 OA
ATOM     10  N   UNL     1       1.938   0.284  23.647  0.00  0.00    -0.251 N 
ATOM     18  C   UNL     1       0.893  -0.030  22.800  0.00  0.00    +0.405 C 
ATOM     35  H   UNL     1       1.687   0.742  24.520  0.00  0.00    +0.158 HD
BRANCH  10  21
ATOM     21  C   UNL     1       3.318   0.047  23.452  0.00  0.00    +0.036 A 
ATOM     24  C   UNL     1       3.868  -1.152  23.877  0.00  0.00    +0.024 A 
ATOM     25  C   UNL     1       4.094   1.018  22.840  0.00  0.00    +0.024 A 
ATOM     27  C   UNL     1       5.229  -1.385  23.684  0.00  0.00    +0.013 A 
ATOM     28  C   UNL     1       5.455   0.785  22.648  0.00  0.00    +0.013 A 
ATOM     29  C   UNL     1       6.023  -0.417  23.071  0.00  0.00    +0.017 A 
BRANCH  29  32
ATOM      6  O   UNL     1       7.848  -1.535  22.077  0.00  0.00    -0.292 OA
ATOM     32  C   UNL     1       7.443  -0.660  22.869  0.00  0.00    +0.160 C 
ATOM     33  C   UNL     1       8.479   0.159  23.630  0.00  0.00    +0.091 C 
ENDBRANCH  29  32
ENDBRANCH  10  21
ENDBRANCH   3  18
ENDBRANCH  14   3
TORSDOF 6
ENDMDL
MODEL 4
REMARK VINA RESULT:       4.1      1.802      2.897
REMARK  Name = 11913048
REMARK  7 active torsions:
REMARK  status: ('A' for Active; 'I' for Inactive)
REMARK    1  A    between atoms: O_3  and  C_14
REMARK    2  A    between atoms: O_3  and  C_18
REMARK    3  A    between atoms: N_7  and  C_13
REMARK    4  A    between atoms: N_10  and  C_21
REMARK    5  A    between atoms: C_19  and  C_23
REMARK    6  A    between atoms: C_29  and  C_32
REMARK    7  A    between atoms: C_32  and  C_33
REMARK                            x       y       z     vdW  Elec       q    Type
REMARK                         _______ _______ _______ _____ _____    ______ ____
ROOT
ATOM      1  O   UNL     1      -3.007  -0.158  25.097  0.00  0.00    -0.368 OA
ATOM      2  O   UNL     1      -4.737  -2.020  23.377  0.00  0.00    -0.368 OA
ATOM     11  C   UNL     1      -5.087  -1.048  24.384  0.00  0.00    +0.173 C 
ATOM     12  C   UNL     1      -4.015  -1.119  25.454  0.00  0.00    +0.192 C 
ATOM     13  C   UNL     1      -4.953   0.349  23.824  0.00  0.00    +0.130 C 
ATOM     14  C   UNL     1      -3.510  -2.535  25.318  0.00  0.00    +0.235 C 
ATOM     15  C   UNL     1      -3.467   0.619  23.981  0.00  0.00    +0.185 C 
ATOM     16  C   UNL     1      -3.593  -2.762  23.825  0.00  0.00    +0.207 C 
ENDROOT
BRANCH  13   7
ATOM      7  N   UNL     1      -5.720   1.284  24.619  0.00  0.00    -0.306 N 
ATOM      8  N   UNL     1      -3.921   2.779  24.797  0.00  0.00    -0.211 NA
ATOM      9  N   UNL     1      -6.042   3.267  25.830  0.00  0.00    -0.223 NA
ATOM     17  C   UNL     1      -5.212   2.479  25.096  0.00  0.00    +0.216 A 
ATOM     19  C   UNL     1      -3.459   3.952  25.277  0.00  0.00    +0.111 A 
ATOM     20  C   UNL     1      -5.516   4.425  26.279  0.00  0.00    +0.116 A 
ATOM     22  C   UNL     1      -4.218   4.825  26.031  0.00  0.00    +0.051 A 
ATOM     34  H   UNL     1      -6.699   1.095  24.805  0.00  0.00    +0.149 HD
BRANCH  19  23
ATOM      5  O   UNL     1      -1.391   3.207  24.414  0.00  0.00    -0.461 OA
ATOM     23  C   UNL     1      -2.089   4.243  24.945  0.00  0.00    +0.153 A 
ATOM     26  C   UNL     1      -1.301   5.362  25.044  0.00  0.00    +0.051 A 
ATOM     30  C   UNL     1      -0.031   4.993  24.541  0.00  0.00    +0.042 A 
ATOM     31  C   UNL     1      -0.137   3.673  24.172  0.00  0.00    +0.196 A 
ENDBRANCH  19  23
ENDBRANCH  13   7
BRANCH  14   3
ATOM      3  O   UNL     1      -2.202  -2.716  25.811  0.00  0.00    -0.442 OA
BRANCH   3  18
ATOM      4  O   UNL     1      -0.973  -3.415  24.013  0.00  0.00    -0.226 OA
ATOM     10  N   UNL     1      -0.450  -1.448  25.171  0.00  0.00    -0.251 N 
ATOM     18  C   UNL     1      -1.171  -2.596  24.903  0.00  0.00    +0.405 C 
ATOM     35  H   UNL     1      -0.771  -0.890  25.959  0.00  0.00    +0.158 HD
BRANCH  10  21
ATOM     21  C   UNL     1       0.682  -0.951  24.486  0.00  0.00    +0.036 A 
ATOM     24  C   UNL     1       1.824  -1.732  24.404  0.00  0.00    +0.024 A 
ATOM     25  C   UNL     1       0.628   0.308  23.910  0.00  0.00    +0.024 A 
ATOM     27  C   UNL     1       2.940  -1.240  23.728  0.00  0.00    +0.013 A 
ATOM     28  C   UNL     1       1.744   0.800  23.234  0.00  0.00    +0.013 A 
ATOM     29  C   UNL     1       2.900   0.025  23.143  0.00  0.00    +0.017 A 
BRANCH  29  32
ATOM      6  O   UNL     1       3.964   1.060  21.309  0.00  0.00    -0.292 OA
ATOM     32  C   UNL     1       4.064   0.538  22.437  0.00  0.00    +0.160 C 
ATOM     33  C   UNL     1       5.449   0.446  23.069  0.00  0.00    +0.091 C 
ENDBRANCH  29  32
ENDBRANCH  10  21
ENDBRANCH   3  18
ENDBRANCH  14   3
TORSDOF 6
ENDMDL
