MODEL 1
REMARK VINA RESULT:      -0.5      0.000      0.000
REMARK  Name = 26744910
REMARK  7 active torsions:
REMARK  status: ('A' for Active; 'I' for Inactive)
REMARK    1  A    between atoms: O_2  and  C_23
REMARK    2  A    between atoms: O_2  and  C_30
REMARK    3  A    between atoms: N_3  and  C_13
REMARK    4  A    between atoms: C_8  and  C_14
REMARK    5  A    between atoms: C_13  and  C_15
REMARK    6  A    between atoms: C_17  and  C_20
REMARK    7  A    between atoms: C_20  and  C_24
REMARK                            x       y       z     vdW  Elec       q    Type
REMARK                         _______ _______ _______ _____ _____    ______ ____
ROOT
ATOM      3  N   UNL     1       1.842   1.033  23.595  0.00  0.00    -0.281 NA
ATOM      4  N   UNL     1       5.535   0.514  23.195  0.00  0.00    -0.347 N 
ATOM      5  N   UNL     1       5.109  -1.575  23.868  0.00  0.00    -0.240 NA
ATOM      8  C   UNL     1       1.509  -0.412  23.344  0.00  0.00    +0.152 C 
ATOM      9  C   UNL     1       2.581  -1.388  23.947  0.00  0.00    +0.086 C 
ATOM     10  C   UNL     1       3.152   1.423  22.996  0.00  0.00    +0.140 C 
ATOM     11  C   UNL     1       4.181   0.408  23.294  0.00  0.00    +0.053 A 
ATOM     12  C   UNL     1       3.945  -0.880  23.700  0.00  0.00    +0.065 A 
ATOM     16  C   UNL     1       6.051  -0.708  23.552  0.00  0.00    +0.197 A 
ATOM     31  H   UNL     1       6.062   1.329  22.910  0.00  0.00    +0.167 HD
ENDROOT
BRANCH   8  14
ATOM      1  O   UNL     1       0.137  -1.617  24.983  0.00  0.00    -0.336 OA
ATOM      6  N   UNL     1      -1.049  -0.548  23.413  0.00  0.00    -0.194 NA
ATOM      7  N   UNL     1      -1.209  -1.870  25.274  0.00  0.00    -0.061 NA
ATOM     14  C   UNL     1       0.143  -0.833  23.874  0.00  0.00    +0.245 A 
ATOM     17  C   UNL     1      -1.846  -1.207  24.304  0.00  0.00    +0.176 A 
BRANCH  17  20
ATOM     20  C   UNL     1      -3.310  -1.190  24.206  0.00  0.00    +0.114 C 
BRANCH  20  24
ATOM     24  C   UNL     1      -3.944   0.191  24.345  0.00  0.00    -0.040 A 
ATOM     25  C   UNL     1      -4.932   0.411  25.305  0.00  0.00    +0.004 A 
ATOM     26  C   UNL     1      -3.536   1.232  23.512  0.00  0.00    +0.004 A 
ATOM     27  C   UNL     1      -5.512   1.674  25.432  0.00  0.00    +0.000 A 
ATOM     28  C   UNL     1      -4.117   2.494  23.639  0.00  0.00    +0.000 A 
ATOM     29  C   UNL     1      -5.104   2.715  24.599  0.00  0.00    +0.000 A 
ENDBRANCH  20  24
ENDBRANCH  17  20
ENDBRANCH   8  14
BRANCH   3  13
ATOM     13  C   UNL     1       0.812   1.942  23.074  0.00  0.00    +0.120 C 
BRANCH  13  15
ATOM     15  C   UNL     1      -0.044   2.510  24.175  0.00  0.00    -0.033 A 
ATOM     18  C   UNL     1      -0.743   3.700  23.971  0.00  0.00    +0.008 A 
ATOM     19  C   UNL     1      -0.139   1.845  25.397  0.00  0.00    +0.008 A 
ATOM     21  C   UNL     1      -1.537   4.225  24.991  0.00  0.00    +0.046 A 
ATOM     22  C   UNL     1      -0.932   2.370  26.417  0.00  0.00    +0.046 A 
ATOM     23  C   UNL     1      -1.632   3.560  26.214  0.00  0.00    +0.120 A 
BRANCH  23   2
ATOM      2  O   UNL     1      -2.406   4.072  27.209  0.00  0.00    -0.495 OA
ATOM     30  C   UNL     1      -3.690   4.575  26.839  0.00  0.00    +0.277 C 
ENDBRANCH  23   2
ENDBRANCH  13  15
ENDBRANCH   3  13
TORSDOF 6
ENDMDL
MODEL 2
REMARK VINA RESULT:       0.9      2.202      4.794
REMARK  Name = 26744910
REMARK  7 active torsions:
REMARK  status: ('A' for Active; 'I' for Inactive)
REMARK    1  A    between atoms: O_2  and  C_23
REMARK    2  A    between atoms: O_2  and  C_30
REMARK    3  A    between atoms: N_3  and  C_13
REMARK    4  A    between atoms: C_8  and  C_14
REMARK    5  A    between atoms: C_13  and  C_15
REMARK    6  A    between atoms: C_17  and  C_20
REMARK    7  A    between atoms: C_20  and  C_24
REMARK                            x       y       z     vdW  Elec       q    Type
REMARK                         _______ _______ _______ _____ _____    ______ ____
ROOT
ATOM      3  N   UNL     1      -0.073   0.435  24.509  0.00  0.00    -0.281 NA
ATOM      4  N   UNL     1       3.022  -0.843  22.821  0.00  0.00    -0.347 N 
ATOM      5  N   UNL     1       3.416   1.309  22.363  0.00  0.00    -0.240 NA
ATOM      8  C   UNL     1       0.527   1.780  24.815  0.00  0.00    +0.152 C 
ATOM      9  C   UNL     1       1.476   2.286  23.673  0.00  0.00    +0.086 C 
ATOM     10  C   UNL     1       0.966  -0.619  24.328  0.00  0.00    +0.140 C 
ATOM     11  C   UNL     1       2.057  -0.128  23.463  0.00  0.00    +0.053 A 
ATOM     12  C   UNL     1       2.324   1.185  23.174  0.00  0.00    +0.065 A 
ATOM     16  C   UNL     1       3.818   0.068  22.171  0.00  0.00    +0.197 A 
ATOM     31  H   UNL     1       3.137  -1.849  22.823  0.00  0.00    +0.167 HD
ENDROOT
BRANCH   8  14
ATOM      1  O   UNL     1      -0.122   4.147  24.820  0.00  0.00    -0.336 OA
ATOM      6  N   UNL     1      -1.728   2.762  25.539  0.00  0.00    -0.194 NA
ATOM      7  N   UNL     1      -1.218   4.956  25.141  0.00  0.00    -0.061 NA
ATOM     14  C   UNL     1      -0.505   2.870  25.084  0.00  0.00    +0.245 A 
ATOM     17  C   UNL     1      -2.125   4.067  25.557  0.00  0.00    +0.176 A 
BRANCH  17  20
ATOM     20  C   UNL     1      -3.462   4.472  26.006  0.00  0.00    +0.114 C 
BRANCH  20  24
ATOM     24  C   UNL     1      -4.572   3.474  25.690  0.00  0.00    -0.040 A 
ATOM     25  C   UNL     1      -4.800   3.080  24.372  0.00  0.00    +0.004 A 
ATOM     26  C   UNL     1      -5.358   2.956  26.719  0.00  0.00    +0.004 A 
ATOM     27  C   UNL     1      -5.815   2.167  24.082  0.00  0.00    +0.000 A 
ATOM     28  C   UNL     1      -6.373   2.044  26.430  0.00  0.00    +0.000 A 
ATOM     29  C   UNL     1      -6.601   1.650  25.112  0.00  0.00    +0.000 A 
ENDBRANCH  20  24
ENDBRANCH  17  20
ENDBRANCH   8  14
BRANCH   3  13
ATOM     13  C   UNL     1      -1.002  -0.014  25.556  0.00  0.00    +0.120 C 
BRANCH  13  15
ATOM     15  C   UNL     1      -2.150  -0.805  24.986  0.00  0.00    -0.033 A 
ATOM     18  C   UNL     1      -2.126  -2.199  25.031  0.00  0.00    +0.008 A 
ATOM     19  C   UNL     1      -3.237  -0.143  24.416  0.00  0.00    +0.008 A 
ATOM     21  C   UNL     1      -3.191  -2.931  24.504  0.00  0.00    +0.046 A 
ATOM     22  C   UNL     1      -4.300  -0.875  23.889  0.00  0.00    +0.046 A 
ATOM     23  C   UNL     1      -4.277  -2.269  23.933  0.00  0.00    +0.120 A 
BRANCH  23   2
ATOM      2  O   UNL     1      -5.316  -2.983  23.419  0.00  0.00    -0.495 OA
ATOM     30  C   UNL     1      -4.997  -3.999  22.469  0.00  0.00    +0.277 C 
ENDBRANCH  23   2
ENDBRANCH  13  15
ENDBRANCH   3  13
TORSDOF 6
ENDMDL
MODEL 3
REMARK VINA RESULT:       1.6      2.440      6.935
REMARK  Name = 26744910
REMARK  7 active torsions:
REMARK  status: ('A' for Active; 'I' for Inactive)
REMARK    1  A    between atoms: O_2  and  C_23
REMARK    2  A    between atoms: O_2  and  C_30
REMARK    3  A    between atoms: N_3  and  C_13
REMARK    4  A    between atoms: C_8  and  C_14
REMARK    5  A    between atoms: C_13  and  C_15
REMARK    6  A    between atoms: C_17  and  C_20
REMARK    7  A    between atoms: C_20  and  C_24
REMARK                            x       y       z     vdW  Elec       q    Type
REMARK                         _______ _______ _______ _____ _____    ______ ____
ROOT
ATOM      3  N   UNL     1      -2.355   2.735  24.388  0.00  0.00    -0.281 NA
ATOM      4  N   UNL     1      -5.978   3.099  25.285  0.00  0.00    -0.347 N 
ATOM      5  N   UNL     1      -6.082   0.897  24.915  0.00  0.00    -0.240 NA
ATOM      8  C   UNL     1      -2.285   1.299  24.830  0.00  0.00    +0.152 C 
ATOM      9  C   UNL     1      -3.606   0.511  24.518  0.00  0.00    +0.086 C 
ATOM     10  C   UNL     1      -3.459   3.481  25.061  0.00  0.00    +0.140 C 
ATOM     11  C   UNL     1      -4.703   2.686  25.051  0.00  0.00    +0.053 A 
ATOM     12  C   UNL     1      -4.790   1.335  24.834  0.00  0.00    +0.065 A 
ATOM     16  C   UNL     1      -6.775   1.984  25.192  0.00  0.00    +0.197 A 
ATOM     31  H   UNL     1      -6.285   4.041  25.492  0.00  0.00    +0.167 HD
ENDROOT
BRANCH   8  14
ATOM      1  O   UNL     1      -0.861  -0.698  24.761  0.00  0.00    -0.336 OA
ATOM      6  N   UNL     1      -0.321   0.857  23.242  0.00  0.00    -0.194 NA
ATOM      7  N   UNL     1       0.232  -1.210  24.052  0.00  0.00    -0.061 NA
ATOM     14  C   UNL     1      -1.123   0.522  24.222  0.00  0.00    +0.245 A 
ATOM     17  C   UNL     1       0.492  -0.236  23.174  0.00  0.00    +0.176 A 
BRANCH  17  20
ATOM     20  C   UNL     1       1.585  -0.338  22.201  0.00  0.00    +0.114 C 
BRANCH  20  24
ATOM     24  C   UNL     1       2.986  -0.252  22.801  0.00  0.00    -0.040 A 
ATOM     25  C   UNL     1       3.529  -1.353  23.464  0.00  0.00    +0.004 A 
ATOM     26  C   UNL     1       3.723   0.926  22.686  0.00  0.00    +0.004 A 
ATOM     27  C   UNL     1       4.810  -1.274  24.013  0.00  0.00    +0.000 A 
ATOM     28  C   UNL     1       5.002   1.005  23.235  0.00  0.00    +0.000 A 
ATOM     29  C   UNL     1       5.546  -0.096  23.898  0.00  0.00    +0.000 A 
ENDBRANCH  20  24
ENDBRANCH  17  20
ENDBRANCH   8  14
BRANCH   3  13
ATOM     13  C   UNL     1      -1.100   3.457  24.634  0.00  0.00    +0.120 C 
BRANCH  13  15
ATOM     15  C   UNL     1      -0.545   3.170  26.004  0.00  0.00    -0.033 A 
ATOM     18  C   UNL     1       0.783   2.767  26.148  0.00  0.00    +0.008 A 
ATOM     19  C   UNL     1      -1.359   3.307  27.128  0.00  0.00    +0.008 A 
ATOM     21  C   UNL     1       1.296   2.502  27.418  0.00  0.00    +0.046 A 
ATOM     22  C   UNL     1      -0.846   3.041  28.397  0.00  0.00    +0.046 A 
ATOM     23  C   UNL     1       0.482   2.638  28.542  0.00  0.00    +0.120 A 
BRANCH  23   2
ATOM      2  O   UNL     1       0.982   2.379  29.781  0.00  0.00    -0.495 OA
ATOM     30  C   UNL     1       2.359   2.010  29.860  0.00  0.00    +0.277 C 
ENDBRANCH  23   2
ENDBRANCH  13  15
ENDBRANCH   3  13
TORSDOF 6
ENDMDL
MODEL 4
REMARK VINA RESULT:       2.1      2.113      6.679
REMARK  Name = 26744910
REMARK  7 active torsions:
REMARK  status: ('A' for Active; 'I' for Inactive)
REMARK    1  A    between atoms: O_2  and  C_23
REMARK    2  A    between atoms: O_2  and  C_30
REMARK    3  A    between atoms: N_3  and  C_13
REMARK    4  A    between atoms: C_8  and  C_14
REMARK    5  A    between atoms: C_13  and  C_15
REMARK    6  A    between atoms: C_17  and  C_20
REMARK    7  A    between atoms: C_20  and  C_24
REMARK                            x       y       z     vdW  Elec       q    Type
REMARK                         _______ _______ _______ _____ _____    ______ ____
ROOT
ATOM      3  N   UNL     1      -2.425   0.198  22.995  0.00  0.00    -0.281 NA
ATOM      4  N   UNL     1      -4.535  -2.695  24.111  0.00  0.00    -0.347 N 
ATOM      5  N   UNL     1      -2.661  -3.422  25.089  0.00  0.00    -0.240 NA
ATOM      8  C   UNL     1      -1.479   0.088  24.159  0.00  0.00    +0.152 C 
ATOM      9  C   UNL     1      -1.216  -1.401  24.579  0.00  0.00    +0.086 C 
ATOM     10  C   UNL     1      -3.760  -0.398  23.294  0.00  0.00    +0.140 C 
ATOM     11  C   UNL     1      -3.606  -1.713  23.947  0.00  0.00    +0.053 A 
ATOM     12  C   UNL     1      -2.471  -2.177  24.559  0.00  0.00    +0.065 A 
ATOM     16  C   UNL     1      -3.917  -3.706  24.806  0.00  0.00    +0.197 A 
ATOM     31  H   UNL     1      -5.494  -2.685  23.791  0.00  0.00    +0.167 HD
ENDROOT
BRANCH   8  14
ATOM      1  O   UNL     1       0.107   1.909  24.598  0.00  0.00    -0.336 OA
ATOM      6  N   UNL     1       0.860   0.375  23.150  0.00  0.00    -0.194 NA
ATOM      7  N   UNL     1       1.390   2.325  24.223  0.00  0.00    -0.061 NA
ATOM     14  C   UNL     1      -0.128   0.754  23.922  0.00  0.00    +0.245 A 
ATOM     17  C   UNL     1       1.768   1.370  23.368  0.00  0.00    +0.176 A 
BRANCH  17  20
ATOM     20  C   UNL     1       3.077   1.393  22.705  0.00  0.00    +0.114 C 
BRANCH  20  24
ATOM     24  C   UNL     1       4.079   0.371  23.234  0.00  0.00    -0.040 A 
ATOM     25  C   UNL     1       5.384   0.764  23.533  0.00  0.00    +0.004 A 
ATOM     26  C   UNL     1       3.691  -0.955  23.419  0.00  0.00    +0.004 A 
ATOM     27  C   UNL     1       6.300  -0.170  24.017  0.00  0.00    +0.000 A 
ATOM     28  C   UNL     1       4.607  -1.889  23.902  0.00  0.00    +0.000 A 
ATOM     29  C   UNL     1       5.912  -1.496  24.201  0.00  0.00    +0.000 A 
ENDBRANCH  20  24
ENDBRANCH  17  20
ENDBRANCH   8  14
BRANCH   3  13
ATOM     13  C   UNL     1      -2.630   1.590  22.572  0.00  0.00    +0.120 C 
BRANCH  13  15
ATOM     15  C   UNL     1      -3.499   2.349  23.539  0.00  0.00    -0.033 A 
ATOM     18  C   UNL     1      -3.110   3.613  23.982  0.00  0.00    +0.008 A 
ATOM     19  C   UNL     1      -4.694   1.789  23.990  0.00  0.00    +0.008 A 
ATOM     21  C   UNL     1      -3.916   4.317  24.878  0.00  0.00    +0.046 A 
ATOM     22  C   UNL     1      -5.499   2.492  24.885  0.00  0.00    +0.046 A 
ATOM     23  C   UNL     1      -5.110   3.756  25.329  0.00  0.00    +0.120 A 
BRANCH  23   2
ATOM      2  O   UNL     1      -5.897   4.442  26.203  0.00  0.00    -0.495 OA
ATOM     30  C   UNL     1      -6.561   5.603  25.704  0.00  0.00    +0.277 C 
ENDBRANCH  23   2
ENDBRANCH  13  15
ENDBRANCH   3  13
TORSDOF 6
ENDMDL
MODEL 5
REMARK VINA RESULT:       2.1      2.110      6.663
REMARK  Name = 26744910
REMARK  7 active torsions:
REMARK  status: ('A' for Active; 'I' for Inactive)
REMARK    1  A    between atoms: O_2  and  C_23
REMARK    2  A    between atoms: O_2  and  C_30
REMARK    3  A    between atoms: N_3  and  C_13
REMARK    4  A    between atoms: C_8  and  C_14
REMARK    5  A    between atoms: C_13  and  C_15
REMARK    6  A    between atoms: C_17  and  C_20
REMARK    7  A    between atoms: C_20  and  C_24
REMARK                            x       y       z     vdW  Elec       q    Type
REMARK                         _______ _______ _______ _____ _____    ______ ____
ROOT
ATOM      3  N   UNL     1      -2.431   0.200  22.986  0.00  0.00    -0.281 NA
ATOM      4  N   UNL     1      -4.544  -2.693  24.096  0.00  0.00    -0.347 N 
ATOM      5  N   UNL     1      -2.676  -3.416  25.087  0.00  0.00    -0.240 NA
ATOM      8  C   UNL     1      -1.492   0.094  24.156  0.00  0.00    +0.152 C 
ATOM      9  C   UNL     1      -1.230  -1.394  24.582  0.00  0.00    +0.086 C 
ATOM     10  C   UNL     1      -3.767  -0.397  23.277  0.00  0.00    +0.140 C 
ATOM     11  C   UNL     1      -3.616  -1.710  23.935  0.00  0.00    +0.053 A 
ATOM     12  C   UNL     1      -2.485  -2.172  24.556  0.00  0.00    +0.065 A 
ATOM     16  C   UNL     1      -3.930  -3.701  24.797  0.00  0.00    +0.197 A 
ATOM     31  H   UNL     1      -5.502  -2.685  23.769  0.00  0.00    +0.167 HD
ENDROOT
BRANCH   8  14
ATOM      1  O   UNL     1       0.099   1.903  24.621  0.00  0.00    -0.336 OA
ATOM      6  N   UNL     1       0.844   0.392  23.145  0.00  0.00    -0.194 NA
ATOM      7  N   UNL     1       1.382   2.323  24.248  0.00  0.00    -0.061 NA
ATOM     14  C   UNL     1      -0.140   0.760  23.926  0.00  0.00    +0.245 A 
ATOM     17  C   UNL     1       1.755   1.381  23.376  0.00  0.00    +0.176 A 
BRANCH  17  20
ATOM     20  C   UNL     1       3.062   1.413  22.710  0.00  0.00    +0.114 C 
BRANCH  20  24
ATOM     24  C   UNL     1       4.069   0.390  23.229  0.00  0.00    -0.040 A 
ATOM     25  C   UNL     1       3.678  -0.935  23.426  0.00  0.00    +0.004 A 
ATOM     26  C   UNL     1       5.379   0.779  23.506  0.00  0.00    +0.004 A 
ATOM     27  C   UNL     1       4.598  -1.871  23.901  0.00  0.00    +0.000 A 
ATOM     28  C   UNL     1       6.298  -0.156  23.981  0.00  0.00    +0.000 A 
ATOM     29  C   UNL     1       5.908  -1.481  24.178  0.00  0.00    +0.000 A 
ENDBRANCH  20  24
ENDBRANCH  17  20
ENDBRANCH   8  14
BRANCH   3  13
ATOM     13  C   UNL     1      -2.635   1.590  22.557  0.00  0.00    +0.120 C 
BRANCH  13  15
ATOM     15  C   UNL     1      -3.489   2.358  23.531  0.00  0.00    -0.033 A 
ATOM     18  C   UNL     1      -4.691   1.813  23.985  0.00  0.00    +0.008 A 
ATOM     19  C   UNL     1      -3.079   3.613  23.979  0.00  0.00    +0.008 A 
ATOM     21  C   UNL     1      -5.482   2.525  24.887  0.00  0.00    +0.046 A 
ATOM     22  C   UNL     1      -3.869   4.324  24.880  0.00  0.00    +0.046 A 
ATOM     23  C   UNL     1      -5.071   3.780  25.335  0.00  0.00    +0.120 A 
BRANCH  23   2
ATOM      2  O   UNL     1      -5.842   4.475  26.216  0.00  0.00    -0.495 OA
ATOM     30  C   UNL     1      -6.571   5.589  25.701  0.00  0.00    +0.277 C 
ENDBRANCH  23   2
ENDBRANCH  13  15
ENDBRANCH   3  13
TORSDOF 6
ENDMDL
MODEL 6
REMARK VINA RESULT:       2.6      2.557      7.741
REMARK  Name = 26744910
REMARK  7 active torsions:
REMARK  status: ('A' for Active; 'I' for Inactive)
REMARK    1  A    between atoms: O_2  and  C_23
REMARK    2  A    between atoms: O_2  and  C_30
REMARK    3  A    between atoms: N_3  and  C_13
REMARK    4  A    between atoms: C_8  and  C_14
REMARK    5  A    between atoms: C_13  and  C_15
REMARK    6  A    between atoms: C_17  and  C_20
REMARK    7  A    between atoms: C_20  and  C_24
REMARK                            x       y       z     vdW  Elec       q    Type
REMARK                         _______ _______ _______ _____ _____    ______ ____
ROOT
ATOM      3  N   UNL     1      -2.151   1.648  25.774  0.00  0.00    -0.281 NA
ATOM      4  N   UNL     1      -5.240   3.774  25.774  0.00  0.00    -0.347 N 
ATOM      5  N   UNL     1      -4.339   4.726  23.963  0.00  0.00    -0.240 NA
ATOM      8  C   UNL     1      -1.945   1.769  24.290  0.00  0.00    +0.152 C 
ATOM      9  C   UNL     1      -2.334   3.189  23.745  0.00  0.00    +0.086 C 
ATOM     10  C   UNL     1      -3.572   1.875  26.168  0.00  0.00    +0.140 C 
ATOM     11  C   UNL     1      -4.116   3.064  25.482  0.00  0.00    +0.053 A 
ATOM     12  C   UNL     1      -3.587   3.660  24.367  0.00  0.00    +0.065 A 
ATOM     16  C   UNL     1      -5.333   4.767  24.830  0.00  0.00    +0.197 A 
ATOM     31  H   UNL     1      -5.887   3.605  26.534  0.00  0.00    +0.167 HD
ENDROOT
BRANCH   8  14
ATOM      1  O   UNL     1       0.451   2.301  24.298  0.00  0.00    -0.336 OA
ATOM      6  N   UNL     1      -0.081   0.514  23.056  0.00  0.00    -0.194 NA
ATOM      7  N   UNL     1       1.654   1.833  23.755  0.00  0.00    -0.061 NA
ATOM     14  C   UNL     1      -0.520   1.469  23.837  0.00  0.00    +0.245 A 
ATOM     17  C   UNL     1       1.258   0.778  23.035  0.00  0.00    +0.176 A 
BRANCH  17  20
ATOM     20  C   UNL     1       2.205  -0.041  22.271  0.00  0.00    +0.114 C 
BRANCH  20  24
ATOM     24  C   UNL     1       3.565  -0.233  22.935  0.00  0.00    -0.040 A 
ATOM     25  C   UNL     1       4.512   0.791  22.895  0.00  0.00    +0.004 A 
ATOM     26  C   UNL     1       3.862  -1.431  23.583  0.00  0.00    +0.004 A 
ATOM     27  C   UNL     1       5.756   0.616  23.502  0.00  0.00    +0.000 A 
ATOM     28  C   UNL     1       5.105  -1.607  24.190  0.00  0.00    +0.000 A 
ATOM     29  C   UNL     1       6.052  -0.583  24.150  0.00  0.00    +0.000 A 
ENDBRANCH  20  24
ENDBRANCH  17  20
ENDBRANCH   8  14
BRANCH   3  13
ATOM     13  C   UNL     1      -1.738   0.336  26.290  0.00  0.00    +0.120 C 
BRANCH  13  15
ATOM     15  C   UNL     1      -2.374  -0.794  25.524  0.00  0.00    -0.033 A 
ATOM     18  C   UNL     1      -1.600  -1.877  25.107  0.00  0.00    +0.008 A 
ATOM     19  C   UNL     1      -3.738  -0.759  25.234  0.00  0.00    +0.008 A 
ATOM     21  C   UNL     1      -2.189  -2.924  24.399  0.00  0.00    +0.046 A 
ATOM     22  C   UNL     1      -4.327  -1.805  24.525  0.00  0.00    +0.046 A 
ATOM     23  C   UNL     1      -3.553  -2.888  24.108  0.00  0.00    +0.120 A 
BRANCH  23   2
ATOM      2  O   UNL     1      -4.129  -3.909  23.417  0.00  0.00    -0.495 OA
ATOM     30  C   UNL     1      -5.422  -3.670  22.862  0.00  0.00    +0.277 C 
ENDBRANCH  23   2
ENDBRANCH  13  15
ENDBRANCH   3  13
TORSDOF 6
ENDMDL
MODEL 7
REMARK VINA RESULT:       3.1      2.500      7.662
REMARK  Name = 26744910
REMARK  7 active torsions:
REMARK  status: ('A' for Active; 'I' for Inactive)
REMARK    1  A    between atoms: O_2  and  C_23
REMARK    2  A    between atoms: O_2  and  C_30
REMARK    3  A    between atoms: N_3  and  C_13
REMARK    4  A    between atoms: C_8  and  C_14
REMARK    5  A    between atoms: C_13  and  C_15
REMARK    6  A    between atoms: C_17  and  C_20
REMARK    7  A    between atoms: C_20  and  C_24
REMARK                            x       y       z     vdW  Elec       q    Type
REMARK                         _______ _______ _______ _____ _____    ______ ____
ROOT
ATOM      3  N   UNL     1      -4.080   1.192  24.775  0.00  0.00    -0.281 NA
ATOM      4  N   UNL     1      -6.420   3.965  25.724  0.00  0.00    -0.347 N 
ATOM      5  N   UNL     1      -4.636   5.286  25.463  0.00  0.00    -0.240 NA
ATOM      8  C   UNL     1      -3.186   2.088  23.962  0.00  0.00    +0.152 C 
ATOM      9  C   UNL     1      -3.040   3.519  24.591  0.00  0.00    +0.086 C 
ATOM     10  C   UNL     1      -5.462   1.739  24.904  0.00  0.00    +0.140 C 
ATOM     11  C   UNL     1      -5.422   3.176  25.240  0.00  0.00    +0.053 A 
ATOM     12  C   UNL     1      -4.344   4.008  25.081  0.00  0.00    +0.065 A 
ATOM     16  C   UNL     1      -5.898   5.230  25.842  0.00  0.00    +0.197 A 
ATOM     31  H   UNL     1      -7.365   3.681  25.950  0.00  0.00    +0.167 HD
ENDROOT
BRANCH   8  14
ATOM      1  O   UNL     1      -0.862   1.808  24.700  0.00  0.00    -0.336 OA
ATOM      6  N   UNL     1      -1.326   0.806  22.752  0.00  0.00    -0.194 NA
ATOM      7  N   UNL     1       0.328   1.199  24.284  0.00  0.00    -0.061 NA
ATOM     14  C   UNL     1      -1.785   1.528  23.743  0.00  0.00    +0.245 A 
ATOM     17  C   UNL     1      -0.026   0.629  23.128  0.00  0.00    +0.176 A 
BRANCH  17  20
ATOM     20  C   UNL     1       0.926  -0.138  22.316  0.00  0.00    +0.114 C 
BRANCH  20  24
ATOM     24  C   UNL     1       2.381  -0.026  22.762  0.00  0.00    -0.040 A 
ATOM     25  C   UNL     1       3.010  -1.114  23.368  0.00  0.00    +0.004 A 
ATOM     26  C   UNL     1       3.083   1.162  22.563  0.00  0.00    +0.004 A 
ATOM     27  C   UNL     1       4.340  -1.013  23.776  0.00  0.00    +0.000 A 
ATOM     28  C   UNL     1       4.413   1.264  22.971  0.00  0.00    +0.000 A 
ATOM     29  C   UNL     1       5.041   0.176  23.577  0.00  0.00    +0.000 A 
ENDBRANCH  20  24
ENDBRANCH  17  20
ENDBRANCH   8  14
BRANCH   3  13
ATOM     13  C   UNL     1      -4.175  -0.162  24.213  0.00  0.00    +0.120 C 
BRANCH  13  15
ATOM     15  C   UNL     1      -3.007  -1.021  24.618  0.00  0.00    -0.033 A 
ATOM     18  C   UNL     1      -2.275  -0.708  25.764  0.00  0.00    +0.008 A 
ATOM     19  C   UNL     1      -2.657  -2.131  23.850  0.00  0.00    +0.008 A 
ATOM     21  C   UNL     1      -1.194  -1.505  26.140  0.00  0.00    +0.046 A 
ATOM     22  C   UNL     1      -1.577  -2.927  24.225  0.00  0.00    +0.046 A 
ATOM     23  C   UNL     1      -0.844  -2.615  25.371  0.00  0.00    +0.120 A 
BRANCH  23   2
ATOM      2  O   UNL     1       0.210  -3.393  25.737  0.00  0.00    -0.495 OA
ATOM     30  C   UNL     1       1.516  -2.902  25.432  0.00  0.00    +0.277 C 
ENDBRANCH  23   2
ENDBRANCH  13  15
ENDBRANCH   3  13
TORSDOF 6
ENDMDL
