MODEL 1
REMARK VINA RESULT:      -7.0      0.000      0.000
REMARK  Name = 56775547
REMARK  10 active torsions:
REMARK  status: ('A' for Active; 'I' for Inactive)
REMARK    1  A    between atoms: O_3  and  C_16
REMARK    2  A    between atoms: O_3  and  C_22
REMARK    3  A    between atoms: O_4  and  C_18
REMARK    4  A    between atoms: O_4  and  C_23
REMARK    5  A    between atoms: N_5  and  C_7
REMARK    6  A    between atoms: N_5  and  C_11
REMARK    7  A    between atoms: C_7  and  C_10
REMARK    8  A    between atoms: C_10  and  C_12
REMARK    9  A    between atoms: C_11  and  C_13
REMARK   10  A    between atoms: C_15  and  C_18
REMARK                            x       y       z     vdW  Elec       q    Type
REMARK                         _______ _______ _______ _____ _____    ______ ____
ROOT
ATOM      1  O   UNL     1      -3.036  -2.887  25.035  0.00  0.00    -0.376 OA
ATOM      7  C   UNL     1      -2.521  -0.838  24.728  0.00  0.00    +0.072 C 
ATOM      8  C   UNL     1      -1.970  -2.205  24.335  0.00  0.00    +0.184 C 
ATOM      9  C   UNL     1      -3.556  -1.628  25.519  0.00  0.00    +0.184 C 
ENDROOT
BRANCH   7   5
ATOM      5  N   UNL     1      -3.173  -0.240  23.560  0.00  0.00    -0.302 NA
ATOM     24  H   UNL     1      -2.936  -0.652  22.661  0.00  0.00    +0.123 HD
BRANCH   5  11
ATOM     11  C   UNL     1      -2.910   1.199  23.548  0.00  0.00    +0.120 C 
BRANCH  11  13
ATOM     13  C   UNL     1      -3.930   1.968  24.322  0.00  0.00    +0.008 A 
ATOM     16  C   UNL     1      -3.676   3.277  24.732  0.00  0.00    +0.124 A 
ATOM     17  C   UNL     1      -5.147   1.363  24.637  0.00  0.00    +0.008 A 
ATOM     19  C   UNL     1      -4.639   3.981  25.453  0.00  0.00    +0.046 A 
ATOM     20  C   UNL     1      -6.110   2.066  25.359  0.00  0.00    +0.001 A 
ATOM     21  C   UNL     1      -5.856   3.376  25.768  0.00  0.00    +0.004 A 
BRANCH  16   3
ATOM      3  O   UNL     1      -2.493   3.883  24.434  0.00  0.00    -0.495 OA
ATOM     22  C   UNL     1      -1.812   4.536  25.504  0.00  0.00    +0.277 C 
ENDBRANCH  16   3
ENDBRANCH  11  13
ENDBRANCH   5  11
ENDBRANCH   7   5
BRANCH   7  10
ATOM     10  C   UNL     1      -1.629   0.123  25.453  0.00  0.00    +0.085 C 
BRANCH  10  12
ATOM      2  O   UNL     1       1.273   1.559  23.850  0.00  0.00    -0.357 OA
ATOM      6  N   UNL     1       0.170   1.633  24.692  0.00  0.00    -0.083 NA
ATOM     12  C   UNL     1      -0.384   0.417  24.643  0.00  0.00    +0.086 A 
ATOM     14  C   UNL     1       0.318  -0.455  23.793  0.00  0.00    +0.073 A 
ATOM     15  C   UNL     1       1.351   0.311  23.320  0.00  0.00    +0.163 A 
BRANCH  15  18
ATOM     18  C   UNL     1       2.465   0.058  22.401  0.00  0.00    +0.236 C 
BRANCH  18   4
ATOM      4  O   UNL     1       3.521   0.994  22.631  0.00  0.00    -0.375 OA
ATOM     23  C   UNL     1       4.685   0.346  23.119  0.00  0.00    +0.194 C 
ENDBRANCH  18   4
ENDBRANCH  15  18
ENDBRANCH  10  12
ENDBRANCH   7  10
TORSDOF 8
ENDMDL
MODEL 2
REMARK VINA RESULT:      -6.6      1.950      2.927
REMARK  Name = 56775547
REMARK  10 active torsions:
REMARK  status: ('A' for Active; 'I' for Inactive)
REMARK    1  A    between atoms: O_3  and  C_16
REMARK    2  A    between atoms: O_3  and  C_22
REMARK    3  A    between atoms: O_4  and  C_18
REMARK    4  A    between atoms: O_4  and  C_23
REMARK    5  A    between atoms: N_5  and  C_7
REMARK    6  A    between atoms: N_5  and  C_11
REMARK    7  A    between atoms: C_7  and  C_10
REMARK    8  A    between atoms: C_10  and  C_12
REMARK    9  A    between atoms: C_11  and  C_13
REMARK   10  A    between atoms: C_15  and  C_18
REMARK                            x       y       z     vdW  Elec       q    Type
REMARK                         _______ _______ _______ _____ _____    ______ ____
ROOT
ATOM      1  O   UNL     1      -3.751  -3.532  24.887  0.00  0.00    -0.376 OA
ATOM      7  C   UNL     1      -2.392  -1.909  24.609  0.00  0.00    +0.072 C 
ATOM      8  C   UNL     1      -2.768  -3.196  23.881  0.00  0.00    +0.184 C 
ATOM      9  C   UNL     1      -3.377  -2.379  25.674  0.00  0.00    +0.184 C 
ENDROOT
BRANCH   7   5
ATOM      5  N   UNL     1      -2.977  -0.774  23.892  0.00  0.00    -0.302 NA
ATOM     24  H   UNL     1      -2.392   0.056  23.823  0.00  0.00    +0.123 HD
BRANCH   5  11
ATOM     11  C   UNL     1      -4.268  -0.439  24.494  0.00  0.00    +0.120 C 
BRANCH  11  13
ATOM     13  C   UNL     1      -4.446   1.033  24.670  0.00  0.00    +0.008 A 
ATOM     16  C   UNL     1      -3.756   1.936  23.862  0.00  0.00    +0.124 A 
ATOM     17  C   UNL     1      -5.314   1.502  25.657  0.00  0.00    +0.008 A 
ATOM     19  C   UNL     1      -3.935   3.308  24.039  0.00  0.00    +0.046 A 
ATOM     20  C   UNL     1      -5.492   2.874  25.835  0.00  0.00    +0.001 A 
ATOM     21  C   UNL     1      -4.802   3.777  25.026  0.00  0.00    +0.004 A 
BRANCH  16   3
ATOM      3  O   UNL     1      -2.905   1.496  22.893  0.00  0.00    -0.495 OA
ATOM     22  C   UNL     1      -2.569   2.418  21.858  0.00  0.00    +0.277 C 
ENDBRANCH  16   3
ENDBRANCH  11  13
ENDBRANCH   5  11
ENDBRANCH   7   5
BRANCH   7  10
ATOM     10  C   UNL     1      -0.961  -1.683  24.992  0.00  0.00    +0.085 C 
BRANCH  10  12
ATOM      2  O   UNL     1       0.204   1.605  24.050  0.00  0.00    -0.357 OA
ATOM      6  N   UNL     1       0.038   0.245  23.817  0.00  0.00    -0.083 NA
ATOM     12  C   UNL     1      -0.604  -0.215  24.895  0.00  0.00    +0.086 A 
ATOM     14  C   UNL     1      -0.866   0.799  25.833  0.00  0.00    +0.073 A 
ATOM     15  C   UNL     1      -0.338   1.923  25.254  0.00  0.00    +0.163 A 
BRANCH  15  18
ATOM     18  C   UNL     1      -0.249   3.330  25.661  0.00  0.00    +0.236 C 
BRANCH  18   4
ATOM      4  O   UNL     1      -0.621   4.184  24.576  0.00  0.00    -0.375 OA
ATOM     23  C   UNL     1      -1.320   5.327  25.040  0.00  0.00    +0.194 C 
ENDBRANCH  18   4
ENDBRANCH  15  18
ENDBRANCH  10  12
ENDBRANCH   7  10
TORSDOF 8
ENDMDL
MODEL 3
REMARK VINA RESULT:      -6.0      1.644      4.227
REMARK  Name = 56775547
REMARK  10 active torsions:
REMARK  status: ('A' for Active; 'I' for Inactive)
REMARK    1  A    between atoms: O_3  and  C_16
REMARK    2  A    between atoms: O_3  and  C_22
REMARK    3  A    between atoms: O_4  and  C_18
REMARK    4  A    between atoms: O_4  and  C_23
REMARK    5  A    between atoms: N_5  and  C_7
REMARK    6  A    between atoms: N_5  and  C_11
REMARK    7  A    between atoms: C_7  and  C_10
REMARK    8  A    between atoms: C_10  and  C_12
REMARK    9  A    between atoms: C_11  and  C_13
REMARK   10  A    between atoms: C_15  and  C_18
REMARK                            x       y       z     vdW  Elec       q    Type
REMARK                         _______ _______ _______ _____ _____    ______ ____
ROOT
ATOM      1  O   UNL     1      -5.194   3.998  25.640  0.00  0.00    -0.376 OA
ATOM      7  C   UNL     1      -3.769   2.708  24.712  0.00  0.00    +0.072 C 
ATOM      8  C   UNL     1      -3.750   3.925  25.631  0.00  0.00    +0.184 C 
ATOM      9  C   UNL     1      -5.280   2.908  24.695  0.00  0.00    +0.184 C 
ENDROOT
BRANCH   7   5
ATOM      5  N   UNL     1      -3.459   1.515  25.503  0.00  0.00    -0.302 NA
ATOM     24  H   UNL     1      -2.534   1.115  25.358  0.00  0.00    +0.123 HD
BRANCH   5  11
ATOM     11  C   UNL     1      -4.493   0.506  25.276  0.00  0.00    +0.120 C 
BRANCH  11  13
ATOM     13  C   UNL     1      -3.922  -0.801  24.833  0.00  0.00    +0.008 A 
ATOM     16  C   UNL     1      -2.693  -1.244  25.320  0.00  0.00    +0.124 A 
ATOM     17  C   UNL     1      -4.631  -1.580  23.918  0.00  0.00    +0.008 A 
ATOM     19  C   UNL     1      -2.174  -2.467  24.895  0.00  0.00    +0.046 A 
ATOM     20  C   UNL     1      -4.112  -2.802  23.492  0.00  0.00    +0.001 A 
ATOM     21  C   UNL     1      -2.883  -3.246  23.981  0.00  0.00    +0.004 A 
BRANCH  16   3
ATOM      3  O   UNL     1      -1.987  -0.496  26.213  0.00  0.00    -0.495 OA
ATOM     22  C   UNL     1      -0.626  -0.864  26.433  0.00  0.00    +0.277 C 
ENDBRANCH  16   3
ENDBRANCH  11  13
ENDBRANCH   5  11
ENDBRANCH   7   5
BRANCH   7  10
ATOM     10  C   UNL     1      -3.014   2.763  23.419  0.00  0.00    +0.085 C 
BRANCH  10  12
ATOM      2  O   UNL     1       0.380   1.813  24.212  0.00  0.00    -0.357 OA
ATOM      6  N   UNL     1      -0.709   2.671  24.297  0.00  0.00    -0.083 NA
ATOM     12  C   UNL     1      -1.662   2.096  23.557  0.00  0.00    +0.086 A 
ATOM     14  C   UNL     1      -1.235   0.885  22.985  0.00  0.00    +0.073 A 
ATOM     15  C   UNL     1       0.055   0.753  23.427  0.00  0.00    +0.163 A 
BRANCH  15  18
ATOM     18  C   UNL     1       1.098  -0.260  23.228  0.00  0.00    +0.236 C 
BRANCH  18   4
ATOM      4  O   UNL     1       1.970   0.129  22.164  0.00  0.00    -0.375 OA
ATOM     23  C   UNL     1       3.258   0.467  22.653  0.00  0.00    +0.194 C 
ENDBRANCH  18   4
ENDBRANCH  15  18
ENDBRANCH  10  12
ENDBRANCH   7  10
TORSDOF 8
ENDMDL
MODEL 4
REMARK VINA RESULT:      -6.0      1.723      3.841
REMARK  Name = 56775547
REMARK  10 active torsions:
REMARK  status: ('A' for Active; 'I' for Inactive)
REMARK    1  A    between atoms: O_3  and  C_16
REMARK    2  A    between atoms: O_3  and  C_22
REMARK    3  A    between atoms: O_4  and  C_18
REMARK    4  A    between atoms: O_4  and  C_23
REMARK    5  A    between atoms: N_5  and  C_7
REMARK    6  A    between atoms: N_5  and  C_11
REMARK    7  A    between atoms: C_7  and  C_10
REMARK    8  A    between atoms: C_10  and  C_12
REMARK    9  A    between atoms: C_11  and  C_13
REMARK   10  A    between atoms: C_15  and  C_18
REMARK                            x       y       z     vdW  Elec       q    Type
REMARK                         _______ _______ _______ _____ _____    ______ ____
ROOT
ATOM      1  O   UNL     1      -1.664   5.603  25.328  0.00  0.00    -0.376 OA
ATOM      7  C   UNL     1      -1.438   3.514  24.952  0.00  0.00    +0.072 C 
ATOM      8  C   UNL     1      -2.492   4.439  25.551  0.00  0.00    +0.184 C 
ATOM      9  C   UNL     1      -0.587   4.773  24.837  0.00  0.00    +0.184 C 
ENDROOT
BRANCH   7   5
ATOM      5  N   UNL     1      -1.871   3.111  23.612  0.00  0.00    -0.302 NA
ATOM     24  H   UNL     1      -1.628   3.749  22.857  0.00  0.00    +0.123 HD
BRANCH   5  11
ATOM     11  C   UNL     1      -3.313   2.864  23.628  0.00  0.00    +0.120 C 
BRANCH  11  13
ATOM     13  C   UNL     1      -3.641   1.439  23.927  0.00  0.00    +0.008 A 
ATOM     16  C   UNL     1      -4.363   1.098  25.071  0.00  0.00    +0.124 A 
ATOM     17  C   UNL     1      -3.215   0.442  23.050  0.00  0.00    +0.008 A 
ATOM     19  C   UNL     1      -4.661  -0.238  25.336  0.00  0.00    +0.046 A 
ATOM     20  C   UNL     1      -3.512  -0.895  23.315  0.00  0.00    +0.001 A 
ATOM     21  C   UNL     1      -4.235  -1.235  24.458  0.00  0.00    +0.004 A 
BRANCH  16   3
ATOM      3  O   UNL     1      -4.786   2.059  25.939  0.00  0.00    -0.495 OA
ATOM     22  C   UNL     1      -6.127   2.521  25.790  0.00  0.00    +0.277 C 
ENDBRANCH  16   3
ENDBRANCH  11  13
ENDBRANCH   5  11
ENDBRANCH   7   5
BRANCH   7  10
ATOM     10  C   UNL     1      -0.931   2.366  25.771  0.00  0.00    +0.085 C 
BRANCH  10  12
ATOM      2  O   UNL     1       0.218  -0.619  24.091  0.00  0.00    -0.357 OA
ATOM      6  N   UNL     1      -0.560   0.039  25.036  0.00  0.00    -0.083 NA
ATOM     12  C   UNL     1      -0.259   1.333  24.891  0.00  0.00    +0.086 A 
ATOM     14  C   UNL     1       0.694   1.549  23.881  0.00  0.00    +0.073 A 
ATOM     15  C   UNL     1       0.961   0.291  23.410  0.00  0.00    +0.163 A 
BRANCH  15  18
ATOM     18  C   UNL     1       1.847  -0.236  22.366  0.00  0.00    +0.236 C 
BRANCH  18   4
ATOM      4  O   UNL     1       3.176  -0.385  22.872  0.00  0.00    -0.375 OA
ATOM     23  C   UNL     1       3.918   0.816  22.728  0.00  0.00    +0.194 C 
ENDBRANCH  18   4
ENDBRANCH  15  18
ENDBRANCH  10  12
ENDBRANCH   7  10
TORSDOF 8
ENDMDL
MODEL 5
REMARK VINA RESULT:      -5.5      1.630      5.018
REMARK  Name = 56775547
REMARK  10 active torsions:
REMARK  status: ('A' for Active; 'I' for Inactive)
REMARK    1  A    between atoms: O_3  and  C_16
REMARK    2  A    between atoms: O_3  and  C_22
REMARK    3  A    between atoms: O_4  and  C_18
REMARK    4  A    between atoms: O_4  and  C_23
REMARK    5  A    between atoms: N_5  and  C_7
REMARK    6  A    between atoms: N_5  and  C_11
REMARK    7  A    between atoms: C_7  and  C_10
REMARK    8  A    between atoms: C_10  and  C_12
REMARK    9  A    between atoms: C_11  and  C_13
REMARK   10  A    between atoms: C_15  and  C_18
REMARK                            x       y       z     vdW  Elec       q    Type
REMARK                         _______ _______ _______ _____ _____    ______ ____
ROOT
ATOM      1  O   UNL     1      -3.313  -3.081  25.948  0.00  0.00    -0.376 OA
ATOM      7  C   UNL     1      -3.240  -1.595  24.417  0.00  0.00    +0.072 C 
ATOM      8  C   UNL     1      -3.164  -1.643  25.940  0.00  0.00    +0.184 C 
ATOM      9  C   UNL     1      -3.487  -3.096  24.512  0.00  0.00    +0.184 C 
ENDROOT
BRANCH   7   5
ATOM      5  N   UNL     1      -1.894  -1.369  23.885  0.00  0.00    -0.302 NA
ATOM     24  H   UNL     1      -1.528  -2.102  23.281  0.00  0.00    +0.123 HD
BRANCH   5  11
ATOM     11  C   UNL     1      -0.976  -1.116  24.995  0.00  0.00    +0.120 C 
BRANCH  11  13
ATOM     13  C   UNL     1      -0.510   0.302  25.034  0.00  0.00    +0.008 A 
ATOM     16  C   UNL     1       0.224   0.841  23.977  0.00  0.00    +0.124 A 
ATOM     17  C   UNL     1      -0.816   1.091  26.143  0.00  0.00    +0.008 A 
ATOM     19  C   UNL     1       0.651   2.167  24.029  0.00  0.00    +0.046 A 
ATOM     20  C   UNL     1      -0.388   2.417  26.196  0.00  0.00    +0.001 A 
ATOM     21  C   UNL     1       0.346   2.955  25.138  0.00  0.00    +0.004 A 
BRANCH  16   3
ATOM      3  O   UNL     1       0.532   0.084  22.886  0.00  0.00    -0.495 OA
ATOM     22  C   UNL     1       1.916  -0.085  22.585  0.00  0.00    +0.277 C 
ENDBRANCH  16   3
ENDBRANCH  11  13
ENDBRANCH   5  11
ENDBRANCH   7   5
BRANCH   7  10
ATOM     10  C   UNL     1      -4.276  -0.727  23.769  0.00  0.00    +0.085 C 
BRANCH  10  12
ATOM      2  O   UNL     1      -3.020   2.657  23.622  0.00  0.00    -0.357 OA
ATOM      6  N   UNL     1      -3.078   1.345  23.167  0.00  0.00    -0.083 NA
ATOM     12  C   UNL     1      -3.955   0.738  23.973  0.00  0.00    +0.086 A 
ATOM     14  C   UNL     1      -4.477   1.609  24.946  0.00  0.00    +0.073 A 
ATOM     15  C   UNL     1      -3.857   2.802  24.682  0.00  0.00    +0.163 A 
BRANCH  15  18
ATOM     18  C   UNL     1      -3.920   4.135  25.290  0.00  0.00    +0.236 C 
BRANCH  18   4
ATOM      4  O   UNL     1      -2.687   4.439  25.948  0.00  0.00    -0.375 OA
ATOM     23  C   UNL     1      -1.960   5.432  25.244  0.00  0.00    +0.194 C 
ENDBRANCH  18   4
ENDBRANCH  15  18
ENDBRANCH  10  12
ENDBRANCH   7  10
TORSDOF 8
ENDMDL
MODEL 6
REMARK VINA RESULT:      -5.5      1.943      3.232
REMARK  Name = 56775547
REMARK  10 active torsions:
REMARK  status: ('A' for Active; 'I' for Inactive)
REMARK    1  A    between atoms: O_3  and  C_16
REMARK    2  A    between atoms: O_3  and  C_22
REMARK    3  A    between atoms: O_4  and  C_18
REMARK    4  A    between atoms: O_4  and  C_23
REMARK    5  A    between atoms: N_5  and  C_7
REMARK    6  A    between atoms: N_5  and  C_11
REMARK    7  A    between atoms: C_7  and  C_10
REMARK    8  A    between atoms: C_10  and  C_12
REMARK    9  A    between atoms: C_11  and  C_13
REMARK   10  A    between atoms: C_15  and  C_18
REMARK                            x       y       z     vdW  Elec       q    Type
REMARK                         _______ _______ _______ _____ _____    ______ ____
ROOT
ATOM      1  O   UNL     1      -3.451  -3.595  24.741  0.00  0.00    -0.376 OA
ATOM      7  C   UNL     1      -2.268  -1.819  24.721  0.00  0.00    +0.072 C 
ATOM      8  C   UNL     1      -2.250  -3.187  24.047  0.00  0.00    +0.184 C 
ATOM      9  C   UNL     1      -3.473  -2.355  25.483  0.00  0.00    +0.184 C 
ENDROOT
BRANCH   7   5
ATOM      5  N   UNL     1      -2.726  -0.822  23.751  0.00  0.00    -0.302 NA
ATOM     24  H   UNL     1      -2.093  -0.043  23.583  0.00  0.00    +0.123 HD
BRANCH   5  11
ATOM     11  C   UNL     1      -4.044  -0.330  24.154  0.00  0.00    +0.120 C 
BRANCH  11  13
ATOM     13  C   UNL     1      -4.123   1.160  24.137  0.00  0.00    +0.008 A 
ATOM     16  C   UNL     1      -4.925   1.843  25.051  0.00  0.00    +0.124 A 
ATOM     17  C   UNL     1      -3.384   1.871  23.190  0.00  0.00    +0.008 A 
ATOM     19  C   UNL     1      -4.987   3.236  25.021  0.00  0.00    +0.046 A 
ATOM     20  C   UNL     1      -3.447   3.264  23.159  0.00  0.00    +0.001 A 
ATOM     21  C   UNL     1      -4.249   3.947  24.074  0.00  0.00    +0.004 A 
BRANCH  16   3
ATOM      3  O   UNL     1      -5.653   1.165  25.981  0.00  0.00    -0.495 OA
ATOM     22  C   UNL     1      -6.535   1.932  26.798  0.00  0.00    +0.277 C 
ENDBRANCH  16   3
ENDBRANCH  11  13
ENDBRANCH   5  11
ENDBRANCH   7   5
BRANCH   7  10
ATOM     10  C   UNL     1      -1.061  -1.373  25.489  0.00  0.00    +0.085 C 
BRANCH  10  12
ATOM      2  O   UNL     1       0.378   1.443  23.741  0.00  0.00    -0.357 OA
ATOM      6  N   UNL     1       0.116   0.086  23.882  0.00  0.00    -0.083 NA
ATOM     12  C   UNL     1      -0.591  -0.015  25.012  0.00  0.00    +0.086 A 
ATOM     14  C   UNL     1      -0.802   1.234  25.622  0.00  0.00    +0.073 A 
ATOM     15  C   UNL     1      -0.174   2.117  24.784  0.00  0.00    +0.163 A 
BRANCH  15  18
ATOM     18  C   UNL     1       0.009   3.572  24.793  0.00  0.00    +0.236 C 
BRANCH  18   4
ATOM      4  O   UNL     1      -1.044   4.199  25.531  0.00  0.00    -0.375 OA
ATOM     23  C   UNL     1      -1.311   5.502  25.037  0.00  0.00    +0.194 C 
ENDBRANCH  18   4
ENDBRANCH  15  18
ENDBRANCH  10  12
ENDBRANCH   7  10
TORSDOF 8
ENDMDL
MODEL 7
REMARK VINA RESULT:      -5.5      1.272      2.161
REMARK  Name = 56775547
REMARK  10 active torsions:
REMARK  status: ('A' for Active; 'I' for Inactive)
REMARK    1  A    between atoms: O_3  and  C_16
REMARK    2  A    between atoms: O_3  and  C_22
REMARK    3  A    between atoms: O_4  and  C_18
REMARK    4  A    between atoms: O_4  and  C_23
REMARK    5  A    between atoms: N_5  and  C_7
REMARK    6  A    between atoms: N_5  and  C_11
REMARK    7  A    between atoms: C_7  and  C_10
REMARK    8  A    between atoms: C_10  and  C_12
REMARK    9  A    between atoms: C_11  and  C_13
REMARK   10  A    between atoms: C_15  and  C_18
REMARK                            x       y       z     vdW  Elec       q    Type
REMARK                         _______ _______ _______ _____ _____    ______ ____
ROOT
ATOM      1  O   UNL     1      -3.374  -2.247  25.251  0.00  0.00    -0.376 OA
ATOM      7  C   UNL     1      -2.519  -0.359  24.740  0.00  0.00    +0.072 C 
ATOM      8  C   UNL     1      -2.316  -1.823  24.362  0.00  0.00    +0.184 C 
ATOM      9  C   UNL     1      -3.555  -0.892  25.723  0.00  0.00    +0.184 C 
ENDROOT
BRANCH   7   5
ATOM      5  N   UNL     1      -3.214   0.319  23.643  0.00  0.00    -0.302 NA
ATOM     24  H   UNL     1      -3.347  -0.230  22.797  0.00  0.00    +0.123 HD
BRANCH   5  11
ATOM     11  C   UNL     1      -2.519   1.570  23.336  0.00  0.00    +0.120 C 
BRANCH  11  13
ATOM     13  C   UNL     1      -2.832   2.648  24.320  0.00  0.00    +0.008 A 
ATOM     16  C   UNL     1      -4.135   2.838  24.779  0.00  0.00    +0.124 A 
ATOM     17  C   UNL     1      -1.804   3.472  24.779  0.00  0.00    +0.008 A 
ATOM     19  C   UNL     1      -4.410   3.850  25.698  0.00  0.00    +0.046 A 
ATOM     20  C   UNL     1      -2.079   4.485  25.697  0.00  0.00    +0.001 A 
ATOM     21  C   UNL     1      -3.383   4.674  26.157  0.00  0.00    +0.004 A 
BRANCH  16   3
ATOM      3  O   UNL     1      -5.151   2.043  24.341  0.00  0.00    -0.495 OA
ATOM     22  C   UNL     1      -6.215   1.788  25.257  0.00  0.00    +0.277 C 
ENDBRANCH  16   3
ENDBRANCH  11  13
ENDBRANCH   5  11
ENDBRANCH   7   5
BRANCH   7  10
ATOM     10  C   UNL     1      -1.354   0.423  25.265  0.00  0.00    +0.085 C 
BRANCH  10  12
ATOM      2  O   UNL     1       1.171  -0.660  22.919  0.00  0.00    -0.357 OA
ATOM      6  N   UNL     1      -0.021  -0.835  23.611  0.00  0.00    -0.083 NA
ATOM     12  C   UNL     1      -0.148   0.263  24.363  0.00  0.00    +0.086 A 
ATOM     14  C   UNL     1       0.923   1.156  24.189  0.00  0.00    +0.073 A 
ATOM     15  C   UNL     1       1.725   0.529  23.272  0.00  0.00    +0.163 A 
BRANCH  15  18
ATOM     18  C   UNL     1       2.998   0.875  22.630  0.00  0.00    +0.236 C 
BRANCH  18   4
ATOM      4  O   UNL     1       3.970  -0.143  22.877  0.00  0.00    -0.375 OA
ATOM     23  C   UNL     1       5.144   0.398  23.461  0.00  0.00    +0.194 C 
ENDBRANCH  18   4
ENDBRANCH  15  18
ENDBRANCH  10  12
ENDBRANCH   7  10
TORSDOF 8
ENDMDL
MODEL 8
REMARK VINA RESULT:      -5.2      2.406      4.992
REMARK  Name = 56775547
REMARK  10 active torsions:
REMARK  status: ('A' for Active; 'I' for Inactive)
REMARK    1  A    between atoms: O_3  and  C_16
REMARK    2  A    between atoms: O_3  and  C_22
REMARK    3  A    between atoms: O_4  and  C_18
REMARK    4  A    between atoms: O_4  and  C_23
REMARK    5  A    between atoms: N_5  and  C_7
REMARK    6  A    between atoms: N_5  and  C_11
REMARK    7  A    between atoms: C_7  and  C_10
REMARK    8  A    between atoms: C_10  and  C_12
REMARK    9  A    between atoms: C_11  and  C_13
REMARK   10  A    between atoms: C_15  and  C_18
REMARK                            x       y       z     vdW  Elec       q    Type
REMARK                         _______ _______ _______ _____ _____    ______ ____
ROOT
ATOM      1  O   UNL     1      -5.989   3.369  25.492  0.00  0.00    -0.376 OA
ATOM      7  C   UNL     1      -3.972   2.919  24.953  0.00  0.00    +0.072 C 
ATOM      8  C   UNL     1      -4.715   3.461  26.171  0.00  0.00    +0.184 C 
ATOM      9  C   UNL     1      -5.337   2.941  24.275  0.00  0.00    +0.184 C 
ENDROOT
BRANCH   7   5
ATOM      5  N   UNL     1      -3.595   1.528  25.212  0.00  0.00    -0.302 NA
ATOM     24  H   UNL     1      -2.730   1.393  25.731  0.00  0.00    +0.123 HD
BRANCH   5  11
ATOM     11  C   UNL     1      -3.548   0.800  23.944  0.00  0.00    +0.120 C 
BRANCH  11  13
ATOM     13  C   UNL     1      -3.260  -0.653  24.135  0.00  0.00    +0.008 A 
ATOM     16  C   UNL     1      -1.980  -1.087  24.479  0.00  0.00    +0.124 A 
ATOM     17  C   UNL     1      -4.287  -1.581  23.964  0.00  0.00    +0.008 A 
ATOM     19  C   UNL     1      -1.728  -2.447  24.654  0.00  0.00    +0.046 A 
ATOM     20  C   UNL     1      -4.036  -2.941  24.137  0.00  0.00    +0.001 A 
ATOM     21  C   UNL     1      -2.755  -3.375  24.482  0.00  0.00    +0.004 A 
BRANCH  16   3
ATOM      3  O   UNL     1      -0.964  -0.194  24.649  0.00  0.00    -0.495 OA
ATOM     22  C   UNL     1       0.198  -0.374  23.842  0.00  0.00    +0.277 C 
ENDBRANCH  16   3
ENDBRANCH  11  13
ENDBRANCH   5  11
ENDBRANCH   7   5
BRANCH   7  10
ATOM     10  C   UNL     1      -2.855   3.727  24.367  0.00  0.00    +0.085 C 
BRANCH  10  12
ATOM      2  O   UNL     1       0.569   2.781  25.026  0.00  0.00    -0.357 OA
ATOM      6  N   UNL     1      -0.465   3.141  24.171  0.00  0.00    -0.083 NA
ATOM     12  C   UNL     1      -1.525   3.320  24.965  0.00  0.00    +0.086 A 
ATOM     14  C   UNL     1      -1.223   3.089  26.318  0.00  0.00    +0.073 A 
ATOM     15  C   UNL     1       0.106   2.753  26.303  0.00  0.00    +0.163 A 
BRANCH  15  18
ATOM     18  C   UNL     1       1.073   2.389  27.343  0.00  0.00    +0.236 C 
BRANCH  18   4
ATOM      4  O   UNL     1       0.512   2.606  28.640  0.00  0.00    -0.375 OA
ATOM     23  C   UNL     1       1.472   2.378  29.659  0.00  0.00    +0.194 C 
ENDBRANCH  18   4
ENDBRANCH  15  18
ENDBRANCH  10  12
ENDBRANCH   7  10
TORSDOF 8
ENDMDL
MODEL 9
REMARK VINA RESULT:      -5.2      1.856      5.910
REMARK  Name = 56775547
REMARK  10 active torsions:
REMARK  status: ('A' for Active; 'I' for Inactive)
REMARK    1  A    between atoms: O_3  and  C_16
REMARK    2  A    between atoms: O_3  and  C_22
REMARK    3  A    between atoms: O_4  and  C_18
REMARK    4  A    between atoms: O_4  and  C_23
REMARK    5  A    between atoms: N_5  and  C_7
REMARK    6  A    between atoms: N_5  and  C_11
REMARK    7  A    between atoms: C_7  and  C_10
REMARK    8  A    between atoms: C_10  and  C_12
REMARK    9  A    between atoms: C_11  and  C_13
REMARK   10  A    between atoms: C_15  and  C_18
REMARK                            x       y       z     vdW  Elec       q    Type
REMARK                         _______ _______ _______ _____ _____    ______ ____
ROOT
ATOM      1  O   UNL     1       0.560   0.286  22.801  0.00  0.00    -0.376 OA
ATOM      7  C   UNL     1      -0.245   1.632  24.249  0.00  0.00    +0.072 C 
ATOM      8  C   UNL     1      -0.752   0.843  23.046  0.00  0.00    +0.184 C 
ATOM      9  C   UNL     1       1.124   1.078  23.870  0.00  0.00    +0.184 C 
ENDROOT
BRANCH   7   5
ATOM      5  N   UNL     1      -0.701   0.969  25.473  0.00  0.00    -0.302 NA
ATOM     24  H   UNL     1      -0.293   0.056  25.661  0.00  0.00    +0.123 HD
BRANCH   5  11
ATOM     11  C   UNL     1      -2.161   0.881  25.455  0.00  0.00    +0.120 C 
BRANCH  11  13
ATOM     13  C   UNL     1      -2.643  -0.448  24.976  0.00  0.00    +0.008 A 
ATOM     16  C   UNL     1      -1.856  -1.589  25.126  0.00  0.00    +0.124 A 
ATOM     17  C   UNL     1      -3.896  -0.541  24.368  0.00  0.00    +0.008 A 
ATOM     19  C   UNL     1      -2.321  -2.823  24.673  0.00  0.00    +0.046 A 
ATOM     20  C   UNL     1      -4.361  -1.774  23.913  0.00  0.00    +0.001 A 
ATOM     21  C   UNL     1      -3.574  -2.916  24.065  0.00  0.00    +0.004 A 
BRANCH  16   3
ATOM      3  O   UNL     1      -0.630  -1.517  25.717  0.00  0.00    -0.495 OA
ATOM     22  C   UNL     1       0.301  -2.551  25.405  0.00  0.00    +0.277 C 
ENDBRANCH  16   3
ENDBRANCH  11  13
ENDBRANCH   5  11
ENDBRANCH   7   5
BRANCH   7  10
ATOM     10  C   UNL     1      -0.446   3.116  24.280  0.00  0.00    +0.085 C 
BRANCH  10  12
ATOM      2  O   UNL     1      -3.159   4.120  26.444  0.00  0.00    -0.357 OA
ATOM      6  N   UNL     1      -1.814   3.892  26.183  0.00  0.00    -0.083 NA
ATOM     12  C   UNL     1      -1.774   3.466  24.917  0.00  0.00    +0.086 A 
ATOM     14  C   UNL     1      -3.052   3.405  24.335  0.00  0.00    +0.073 A 
ATOM     15  C   UNL     1      -3.887   3.826  25.336  0.00  0.00    +0.163 A 
BRANCH  15  18
ATOM     18  C   UNL     1      -5.339   4.012  25.437  0.00  0.00    +0.236 C 
BRANCH  18   4
ATOM      4  O   UNL     1      -5.928   2.927  26.159  0.00  0.00    -0.375 OA
ATOM     23  C   UNL     1      -6.216   1.835  25.300  0.00  0.00    +0.194 C 
ENDBRANCH  18   4
ENDBRANCH  15  18
ENDBRANCH  10  12
ENDBRANCH   7  10
TORSDOF 8
ENDMDL
MODEL 10
REMARK VINA RESULT:      -4.8      1.434      1.950
REMARK  Name = 56775547
REMARK  10 active torsions:
REMARK  status: ('A' for Active; 'I' for Inactive)
REMARK    1  A    between atoms: O_3  and  C_16
REMARK    2  A    between atoms: O_3  and  C_22
REMARK    3  A    between atoms: O_4  and  C_18
REMARK    4  A    between atoms: O_4  and  C_23
REMARK    5  A    between atoms: N_5  and  C_7
REMARK    6  A    between atoms: N_5  and  C_11
REMARK    7  A    between atoms: C_7  and  C_10
REMARK    8  A    between atoms: C_10  and  C_12
REMARK    9  A    between atoms: C_11  and  C_13
REMARK   10  A    between atoms: C_15  and  C_18
REMARK                            x       y       z     vdW  Elec       q    Type
REMARK                         _______ _______ _______ _____ _____    ______ ____
ROOT
ATOM      1  O   UNL     1      -4.249  -3.107  23.667  0.00  0.00    -0.376 OA
ATOM      7  C   UNL     1      -2.961  -1.982  24.945  0.00  0.00    +0.072 C 
ATOM      8  C   UNL     1      -3.384  -1.964  23.480  0.00  0.00    +0.184 C 
ATOM      9  C   UNL     1      -3.818  -3.239  25.041  0.00  0.00    +0.184 C 
ENDROOT
BRANCH   7   5
ATOM      5  N   UNL     1      -3.641  -0.891  25.646  0.00  0.00    -0.302 NA
ATOM     24  H   UNL     1      -4.065  -1.134  26.539  0.00  0.00    +0.123 HD
BRANCH   5  11
ATOM     11  C   UNL     1      -4.636  -0.294  24.754  0.00  0.00    +0.120 C 
BRANCH  11  13
ATOM     13  C   UNL     1      -4.644   1.197  24.832  0.00  0.00    +0.008 A 
ATOM     16  C   UNL     1      -3.789   1.957  24.035  0.00  0.00    +0.124 A 
ATOM     17  C   UNL     1      -5.519   1.829  25.716  0.00  0.00    +0.008 A 
ATOM     19  C   UNL     1      -3.810   3.349  24.119  0.00  0.00    +0.046 A 
ATOM     20  C   UNL     1      -5.540   3.221  25.801  0.00  0.00    +0.001 A 
ATOM     21  C   UNL     1      -4.685   3.981  25.003  0.00  0.00    +0.004 A 
BRANCH  16   3
ATOM      3  O   UNL     1      -2.928   1.356  23.167  0.00  0.00    -0.495 OA
ATOM     22  C   UNL     1      -2.393   2.165  22.121  0.00  0.00    +0.277 C 
ENDBRANCH  16   3
ENDBRANCH  11  13
ENDBRANCH   5  11
ENDBRANCH   7   5
BRANCH   7  10
ATOM     10  C   UNL     1      -1.502  -2.070  25.278  0.00  0.00    +0.085 C 
BRANCH  10  12
ATOM      2  O   UNL     1      -0.227   1.309  25.197  0.00  0.00    -0.357 OA
ATOM      6  N   UNL     1      -1.008   0.302  25.750  0.00  0.00    -0.083 NA
ATOM     12  C   UNL     1      -0.801  -0.764  24.971  0.00  0.00    +0.086 A 
ATOM     14  C   UNL     1       0.093  -0.491  23.920  0.00  0.00    +0.073 A 
ATOM     15  C   UNL     1       0.424   0.825  24.107  0.00  0.00    +0.163 A 
BRANCH  15  18
ATOM     18  C   UNL     1       1.300   1.763  23.397  0.00  0.00    +0.236 C 
BRANCH  18   4
ATOM      4  O   UNL     1       2.644   1.275  23.386  0.00  0.00    -0.375 OA
ATOM     23  C   UNL     1       2.811   0.251  22.418  0.00  0.00    +0.194 C 
ENDBRANCH  18   4
ENDBRANCH  15  18
ENDBRANCH  10  12
ENDBRANCH   7  10
TORSDOF 8
ENDMDL
