MODEL 1
REMARK VINA RESULT:      -8.0      0.000      0.000
REMARK  Name = 56775678
REMARK  8 active torsions:
REMARK  status: ('A' for Active; 'I' for Inactive)
REMARK    1  A    between atoms: N_3  and  C_5
REMARK    2  A    between atoms: N_3  and  C_6
REMARK    3  A    between atoms: C_5  and  C_11
REMARK    4  A    between atoms: C_11  and  C_15
REMARK    5  A    between atoms: C_17  and  C_18
REMARK    6  A    between atoms: C_18  and  C_19
REMARK    7  A    between atoms: C_19  and  C_20
REMARK    8  A    between atoms: C_19  and  C_21
REMARK                            x       y       z     vdW  Elec       q    Type
REMARK                         _______ _______ _______ _____ _____    ______ ____
ROOT
ATOM      1  O   UNL     1      -0.908   5.578  24.970  0.00  0.00    -0.376 OA
ATOM      5  C   UNL     1      -1.096   3.453  24.912  0.00  0.00    +0.072 C 
ATOM      7  C   UNL     1      -1.725   4.614  25.673  0.00  0.00    +0.184 C 
ATOM      8  C   UNL     1      -0.341   4.534  24.147  0.00  0.00    +0.184 C 
ENDROOT
BRANCH   5   3
ATOM      3  N   UNL     1      -2.106   2.866  24.026  0.00  0.00    -0.304 NA
ATOM     22  H   UNL     1      -1.764   2.038  23.540  0.00  0.00    +0.123 HD
BRANCH   3   6
ATOM      6  C   UNL     1      -3.283   2.506  24.813  0.00  0.00    +0.054 C 
ATOM      9  C   UNL     1      -4.270   3.679  24.842  0.00  0.00    +0.019 C 
ATOM     10  C   UNL     1      -3.937   1.249  24.226  0.00  0.00    +0.019 C 
ATOM     12  C   UNL     1      -5.549   3.312  25.592  0.00  0.00    +0.002 C 
ATOM     13  C   UNL     1      -5.216   0.885  24.978  0.00  0.00    +0.002 C 
ATOM     14  C   UNL     1      -6.196   2.054  25.019  0.00  0.00    +0.000 C 
ENDBRANCH   3   6
ENDBRANCH   5   3
BRANCH   5  11
ATOM     11  C   UNL     1      -0.317   2.423  25.672  0.00  0.00    +0.085 C 
BRANCH  11  15
ATOM      2  O   UNL     1      -0.387  -0.549  23.618  0.00  0.00    -0.359 OA
ATOM      4  N   UNL     1      -0.037   0.775  23.855  0.00  0.00    -0.083 NA
ATOM     15  C   UNL     1      -0.517   1.047  25.072  0.00  0.00    +0.086 A 
ATOM     16  C   UNL     1      -1.171  -0.056  25.646  0.00  0.00    +0.071 A 
ATOM     17  C   UNL     1      -1.062  -1.033  24.691  0.00  0.00    +0.138 A 
BRANCH  17  18
ATOM     18  C   UNL     1      -1.509  -2.428  24.610  0.00  0.00    +0.080 C 
BRANCH  18  19
ATOM     19  C   UNL     1      -2.999  -2.673  24.994  0.00  0.00    -0.010 C 
ATOM     20  C   UNL     1      -3.930  -2.380  23.816  0.00  0.00    +0.007 C 
ATOM     21  C   UNL     1      -3.414  -1.826  26.200  0.00  0.00    +0.007 C 
ENDBRANCH  18  19
ENDBRANCH  17  18
ENDBRANCH  11  15
ENDBRANCH   5  11
TORSDOF 6
ENDMDL
MODEL 2
REMARK VINA RESULT:      -6.6      2.615      4.782
REMARK  Name = 56775678
REMARK  8 active torsions:
REMARK  status: ('A' for Active; 'I' for Inactive)
REMARK    1  A    between atoms: N_3  and  C_5
REMARK    2  A    between atoms: N_3  and  C_6
REMARK    3  A    between atoms: C_5  and  C_11
REMARK    4  A    between atoms: C_11  and  C_15
REMARK    5  A    between atoms: C_17  and  C_18
REMARK    6  A    between atoms: C_18  and  C_19
REMARK    7  A    between atoms: C_19  and  C_20
REMARK    8  A    between atoms: C_19  and  C_21
REMARK                            x       y       z     vdW  Elec       q    Type
REMARK                         _______ _______ _______ _____ _____    ______ ____
ROOT
ATOM      1  O   UNL     1      -3.367  -2.889  25.138  0.00  0.00    -0.376 OA
ATOM      5  C   UNL     1      -2.657  -0.881  24.990  0.00  0.00    +0.072 C 
ATOM      7  C   UNL     1      -2.455  -2.201  24.253  0.00  0.00    +0.184 C 
ATOM      8  C   UNL     1      -3.677  -1.652  25.821  0.00  0.00    +0.184 C 
ENDROOT
BRANCH   5   3
ATOM      3  N   UNL     1      -3.371   0.047  24.109  0.00  0.00    -0.304 NA
ATOM     22  H   UNL     1      -4.257  -0.334  23.779  0.00  0.00    +0.123 HD
BRANCH   3   6
ATOM      6  C   UNL     1      -3.624   1.293  24.828  0.00  0.00    +0.054 C 
ATOM      9  C   UNL     1      -3.188   2.487  23.971  0.00  0.00    +0.019 C 
ATOM     10  C   UNL     1      -5.110   1.390  25.194  0.00  0.00    +0.019 C 
ATOM     12  C   UNL     1      -3.508   3.813  24.660  0.00  0.00    +0.002 C 
ATOM     13  C   UNL     1      -5.428   2.717  25.882  0.00  0.00    +0.002 C 
ATOM     14  C   UNL     1      -4.984   3.908  25.038  0.00  0.00    +0.000 C 
ENDBRANCH   3   6
ENDBRANCH   5   3
BRANCH   5  11
ATOM     11  C   UNL     1      -1.488  -0.248  25.681  0.00  0.00    +0.085 C 
BRANCH  11  15
ATOM      2  O   UNL     1       1.010   1.374  23.638  0.00  0.00    -0.359 OA
ATOM      4  N   UNL     1       0.050   1.379  24.642  0.00  0.00    -0.083 NA
ATOM     15  C   UNL     1      -0.412   0.126  24.684  0.00  0.00    +0.086 A 
ATOM     16  C   UNL     1       0.213  -0.705  23.739  0.00  0.00    +0.071 A 
ATOM     17  C   UNL     1       1.098   0.128  23.106  0.00  0.00    +0.138 A 
BRANCH  17  18
ATOM     18  C   UNL     1       2.072  -0.056  22.024  0.00  0.00    +0.080 C 
BRANCH  18  19
ATOM     19  C   UNL     1       3.558  -0.170  22.478  0.00  0.00    -0.010 C 
ATOM     20  C   UNL     1       3.701  -1.120  23.670  0.00  0.00    +0.007 C 
ATOM     21  C   UNL     1       4.140   1.199  22.840  0.00  0.00    +0.007 C 
ENDBRANCH  18  19
ENDBRANCH  17  18
ENDBRANCH  11  15
ENDBRANCH   5  11
TORSDOF 6
ENDMDL
MODEL 3
REMARK VINA RESULT:      -6.3      1.639      4.844
REMARK  Name = 56775678
REMARK  8 active torsions:
REMARK  status: ('A' for Active; 'I' for Inactive)
REMARK    1  A    between atoms: N_3  and  C_5
REMARK    2  A    between atoms: N_3  and  C_6
REMARK    3  A    between atoms: C_5  and  C_11
REMARK    4  A    between atoms: C_11  and  C_15
REMARK    5  A    between atoms: C_17  and  C_18
REMARK    6  A    between atoms: C_18  and  C_19
REMARK    7  A    between atoms: C_19  and  C_20
REMARK    8  A    between atoms: C_19  and  C_21
REMARK                            x       y       z     vdW  Elec       q    Type
REMARK                         _______ _______ _______ _____ _____    ______ ____
ROOT
ATOM      1  O   UNL     1       1.009  -0.288  22.202  0.00  0.00    -0.376 OA
ATOM      5  C   UNL     1       0.475   0.790  23.965  0.00  0.00    +0.072 C 
ATOM      7  C   UNL     1      -0.203   0.344  22.674  0.00  0.00    +0.184 C 
ATOM      8  C   UNL     1       1.683   0.020  23.443  0.00  0.00    +0.184 C 
ENDROOT
BRANCH   5   3
ATOM      3  N   UNL     1      -0.110   0.047  25.086  0.00  0.00    -0.304 NA
ATOM     22  H   UNL     1      -0.308   0.645  25.888  0.00  0.00    +0.123 HD
BRANCH   3   6
ATOM      6  C   UNL     1      -1.350  -0.588  24.646  0.00  0.00    +0.054 C 
ATOM      9  C   UNL     1      -1.194  -2.113  24.676  0.00  0.00    +0.019 C 
ATOM     10  C   UNL     1      -2.512  -0.134  25.537  0.00  0.00    +0.019 C 
ATOM     12  C   UNL     1      -2.496  -2.814  24.295  0.00  0.00    +0.002 C 
ATOM     13  C   UNL     1      -3.814  -0.837  25.154  0.00  0.00    +0.002 C 
ATOM     14  C   UNL     1      -3.659  -2.355  25.172  0.00  0.00    +0.000 C 
ENDBRANCH   3   6
ENDBRANCH   5   3
BRANCH   5  11
ATOM     11  C   UNL     1       0.614   2.255  24.246  0.00  0.00    +0.085 C 
BRANCH  11  15
ATOM      2  O   UNL     1      -1.829   3.349  26.672  0.00  0.00    -0.359 OA
ATOM      4  N   UNL     1      -0.589   2.827  26.324  0.00  0.00    -0.083 NA
ATOM     15  C   UNL     1      -0.597   2.778  24.988  0.00  0.00    +0.086 A 
ATOM     16  C   UNL     1      -1.804   3.251  24.444  0.00  0.00    +0.071 A 
ATOM     17  C   UNL     1      -2.544   3.597  25.544  0.00  0.00    +0.138 A 
BRANCH  17  18
ATOM     18  C   UNL     1      -3.888   4.155  25.730  0.00  0.00    +0.080 C 
BRANCH  18  19
ATOM     19  C   UNL     1      -5.045   3.331  25.092  0.00  0.00    -0.010 C 
ATOM     20  C   UNL     1      -5.683   2.389  26.116  0.00  0.00    +0.007 C 
ATOM     21  C   UNL     1      -4.560   2.525  23.884  0.00  0.00    +0.007 C 
ENDBRANCH  18  19
ENDBRANCH  17  18
ENDBRANCH  11  15
ENDBRANCH   5  11
TORSDOF 6
ENDMDL
MODEL 4
REMARK VINA RESULT:      -6.1      2.721      4.581
REMARK  Name = 56775678
REMARK  8 active torsions:
REMARK  status: ('A' for Active; 'I' for Inactive)
REMARK    1  A    between atoms: N_3  and  C_5
REMARK    2  A    between atoms: N_3  and  C_6
REMARK    3  A    between atoms: C_5  and  C_11
REMARK    4  A    between atoms: C_11  and  C_15
REMARK    5  A    between atoms: C_17  and  C_18
REMARK    6  A    between atoms: C_18  and  C_19
REMARK    7  A    between atoms: C_19  and  C_20
REMARK    8  A    between atoms: C_19  and  C_21
REMARK                            x       y       z     vdW  Elec       q    Type
REMARK                         _______ _______ _______ _____ _____    ______ ____
ROOT
ATOM      1  O   UNL     1      -3.560   4.148  25.258  0.00  0.00    -0.376 OA
ATOM      5  C   UNL     1      -2.719   2.309  24.576  0.00  0.00    +0.072 C 
ATOM      7  C   UNL     1      -2.247   3.547  25.330  0.00  0.00    +0.184 C 
ATOM      8  C   UNL     1      -4.095   2.964  24.625  0.00  0.00    +0.184 C 
ENDROOT
BRANCH   5   3
ATOM      3  N   UNL     1      -2.708   1.165  25.493  0.00  0.00    -0.304 NA
ATOM     22  H   UNL     1      -3.487   1.186  26.151  0.00  0.00    +0.123 HD
BRANCH   3   6
ATOM      6  C   UNL     1      -2.771  -0.072  24.719  0.00  0.00    +0.054 C 
ATOM      9  C   UNL     1      -1.915  -1.151  25.390  0.00  0.00    +0.019 C 
ATOM     10  C   UNL     1      -4.228  -0.528  24.583  0.00  0.00    +0.019 C 
ATOM     12  C   UNL     1      -2.017  -2.484  24.650  0.00  0.00    +0.002 C 
ATOM     13  C   UNL     1      -4.328  -1.861  23.843  0.00  0.00    +0.002 C 
ATOM     14  C   UNL     1      -3.468  -2.935  24.502  0.00  0.00    +0.000 C 
ENDBRANCH   3   6
ENDBRANCH   5   3
BRANCH   5  11
ATOM     11  C   UNL     1      -2.112   1.994  23.244  0.00  0.00    +0.085 C 
BRANCH  11  15
ATOM      2  O   UNL     1       1.353   1.476  24.127  0.00  0.00    -0.359 OA
ATOM      4  N   UNL     1       0.152   2.170  24.212  0.00  0.00    -0.083 NA
ATOM     15  C   UNL     1      -0.685   1.514  23.402  0.00  0.00    +0.086 A 
ATOM     16  C   UNL     1      -0.074   0.409  22.785  0.00  0.00    +0.071 A 
ATOM     17  C   UNL     1       1.207   0.430  23.274  0.00  0.00    +0.138 A 
BRANCH  17  18
ATOM     18  C   UNL     1       2.387  -0.416  23.065  0.00  0.00    +0.080 C 
BRANCH  18  19
ATOM     19  C   UNL     1       3.752   0.247  23.419  0.00  0.00    -0.010 C 
ATOM     20  C   UNL     1       4.270   1.100  22.258  0.00  0.00    +0.007 C 
ATOM     21  C   UNL     1       4.803  -0.800  23.796  0.00  0.00    +0.007 C 
ENDBRANCH  18  19
ENDBRANCH  17  18
ENDBRANCH  11  15
ENDBRANCH   5  11
TORSDOF 6
ENDMDL
MODEL 5
REMARK VINA RESULT:      -6.1      1.624      4.900
REMARK  Name = 56775678
REMARK  8 active torsions:
REMARK  status: ('A' for Active; 'I' for Inactive)
REMARK    1  A    between atoms: N_3  and  C_5
REMARK    2  A    between atoms: N_3  and  C_6
REMARK    3  A    between atoms: C_5  and  C_11
REMARK    4  A    between atoms: C_11  and  C_15
REMARK    5  A    between atoms: C_17  and  C_18
REMARK    6  A    between atoms: C_18  and  C_19
REMARK    7  A    between atoms: C_19  and  C_20
REMARK    8  A    between atoms: C_19  and  C_21
REMARK                            x       y       z     vdW  Elec       q    Type
REMARK                         _______ _______ _______ _____ _____    ______ ____
ROOT
ATOM      1  O   UNL     1      -3.630  -3.144  25.545  0.00  0.00    -0.376 OA
ATOM      5  C   UNL     1      -2.354  -1.781  24.510  0.00  0.00    +0.072 C 
ATOM      7  C   UNL     1      -2.889  -3.195  24.305  0.00  0.00    +0.184 C 
ATOM      8  C   UNL     1      -3.237  -1.768  25.753  0.00  0.00    +0.184 C 
ENDROOT
BRANCH   5   3
ATOM      3  N   UNL     1      -2.949  -0.901  23.500  0.00  0.00    -0.304 NA
ATOM     22  H   UNL     1      -3.761  -1.320  23.048  0.00  0.00    +0.123 HD
BRANCH   3   6
ATOM      6  C   UNL     1      -3.349   0.354  24.132  0.00  0.00    +0.054 C 
ATOM      9  C   UNL     1      -3.342   1.484  23.097  0.00  0.00    +0.019 C 
ATOM     10  C   UNL     1      -4.734   0.197  24.770  0.00  0.00    +0.019 C 
ATOM     12  C   UNL     1      -3.829   2.799  23.704  0.00  0.00    +0.002 C 
ATOM     13  C   UNL     1      -5.219   1.513  25.377  0.00  0.00    +0.002 C 
ATOM     14  C   UNL     1      -5.203   2.644  24.352  0.00  0.00    +0.000 C 
ENDBRANCH   3   6
ENDBRANCH   5   3
BRANCH   5  11
ATOM     11  C   UNL     1      -0.879  -1.578  24.666  0.00  0.00    +0.085 C 
BRANCH  11  15
ATOM      2  O   UNL     1       0.297   1.767  23.976  0.00  0.00    -0.359 OA
ATOM      4  N   UNL     1       0.165   0.420  23.661  0.00  0.00    -0.083 NA
ATOM     15  C   UNL     1      -0.536  -0.104  24.670  0.00  0.00    +0.086 A 
ATOM     16  C   UNL     1      -0.871   0.856  25.642  0.00  0.00    +0.071 A 
ATOM     17  C   UNL     1      -0.323   2.015  25.158  0.00  0.00    +0.138 A 
BRANCH  17  18
ATOM     18  C   UNL     1      -0.280   3.399  25.643  0.00  0.00    +0.080 C 
BRANCH  18  19
ATOM     19  C   UNL     1      -1.507   4.277  25.257  0.00  0.00    -0.010 C 
ATOM     20  C   UNL     1      -1.077   5.704  24.905  0.00  0.00    +0.007 C 
ATOM     21  C   UNL     1      -2.546   4.316  26.380  0.00  0.00    +0.007 C 
ENDBRANCH  18  19
ENDBRANCH  17  18
ENDBRANCH  11  15
ENDBRANCH   5  11
TORSDOF 6
ENDMDL
MODEL 6
REMARK VINA RESULT:      -5.9      2.227      3.349
REMARK  Name = 56775678
REMARK  8 active torsions:
REMARK  status: ('A' for Active; 'I' for Inactive)
REMARK    1  A    between atoms: N_3  and  C_5
REMARK    2  A    between atoms: N_3  and  C_6
REMARK    3  A    between atoms: C_5  and  C_11
REMARK    4  A    between atoms: C_11  and  C_15
REMARK    5  A    between atoms: C_17  and  C_18
REMARK    6  A    between atoms: C_18  and  C_19
REMARK    7  A    between atoms: C_19  and  C_20
REMARK    8  A    between atoms: C_19  and  C_21
REMARK                            x       y       z     vdW  Elec       q    Type
REMARK                         _______ _______ _______ _____ _____    ______ ____
ROOT
ATOM      1  O   UNL     1      -1.246   5.700  25.106  0.00  0.00    -0.376 OA
ATOM      5  C   UNL     1      -1.299   3.569  24.996  0.00  0.00    +0.072 C 
ATOM      7  C   UNL     1      -2.025   4.671  25.759  0.00  0.00    +0.184 C 
ATOM      8  C   UNL     1      -0.587   4.711  24.282  0.00  0.00    +0.184 C 
ENDROOT
BRANCH   5   3
ATOM      3  N   UNL     1      -2.241   2.943  24.063  0.00  0.00    -0.304 NA
ATOM     22  H   UNL     1      -1.799   2.225  23.488  0.00  0.00    +0.123 HD
BRANCH   3   6
ATOM      6  C   UNL     1      -3.337   2.341  24.818  0.00  0.00    +0.054 C 
ATOM      9  C   UNL     1      -4.519   3.315  24.887  0.00  0.00    +0.019 C 
ATOM     10  C   UNL     1      -3.750   1.015  24.169  0.00  0.00    +0.019 C 
ATOM     12  C   UNL     1      -5.714   2.690  25.604  0.00  0.00    +0.002 C 
ATOM     13  C   UNL     1      -4.947   0.393  24.889  0.00  0.00    +0.002 C 
ATOM     14  C   UNL     1      -6.121   1.363  24.969  0.00  0.00    +0.000 C 
ENDBRANCH   3   6
ENDBRANCH   5   3
BRANCH   5  11
ATOM     11  C   UNL     1      -0.485   2.571  25.761  0.00  0.00    +0.085 C 
BRANCH  11  15
ATOM      2  O   UNL     1       0.167  -0.487  23.950  0.00  0.00    -0.359 OA
ATOM      4  N   UNL     1      -0.516   0.255  24.906  0.00  0.00    -0.083 NA
ATOM     15  C   UNL     1       0.023   1.476  24.846  0.00  0.00    +0.086 A 
ATOM     16  C   UNL     1       1.040   1.564  23.880  0.00  0.00    +0.071 A 
ATOM     17  C   UNL     1       1.092   0.302  23.346  0.00  0.00    +0.138 A 
BRANCH  17  18
ATOM     18  C   UNL     1       1.909  -0.326  22.302  0.00  0.00    +0.080 C 
BRANCH  18  19
ATOM     19  C   UNL     1       3.449  -0.228  22.513  0.00  0.00    -0.010 C 
ATOM     20  C   UNL     1       3.914  -1.157  23.636  0.00  0.00    +0.007 C 
ATOM     21  C   UNL     1       3.883   1.208  22.820  0.00  0.00    +0.007 C 
ENDBRANCH  18  19
ENDBRANCH  17  18
ENDBRANCH  11  15
ENDBRANCH   5  11
TORSDOF 6
ENDMDL
MODEL 7
REMARK VINA RESULT:      -5.4      1.828      4.903
REMARK  Name = 56775678
REMARK  8 active torsions:
REMARK  status: ('A' for Active; 'I' for Inactive)
REMARK    1  A    between atoms: N_3  and  C_5
REMARK    2  A    between atoms: N_3  and  C_6
REMARK    3  A    between atoms: C_5  and  C_11
REMARK    4  A    between atoms: C_11  and  C_15
REMARK    5  A    between atoms: C_17  and  C_18
REMARK    6  A    between atoms: C_18  and  C_19
REMARK    7  A    between atoms: C_19  and  C_20
REMARK    8  A    between atoms: C_19  and  C_21
REMARK                            x       y       z     vdW  Elec       q    Type
REMARK                         _______ _______ _______ _____ _____    ______ ____
ROOT
ATOM      1  O   UNL     1       1.608  -0.258  21.883  0.00  0.00    -0.376 OA
ATOM      5  C   UNL     1       0.622   0.302  23.691  0.00  0.00    +0.072 C 
ATOM      7  C   UNL     1       0.225  -0.154  22.292  0.00  0.00    +0.184 C 
ATOM      8  C   UNL     1       2.053   0.076  23.217  0.00  0.00    +0.184 C 
ENDROOT
BRANCH   5   3
ATOM      3  N   UNL     1       0.270  -0.751  24.648  0.00  0.00    -0.304 NA
ATOM     22  H   UNL     1       0.533  -0.512  25.604  0.00  0.00    +0.123 HD
BRANCH   3   6
ATOM      6  C   UNL     1      -1.170  -0.987  24.595  0.00  0.00    +0.054 C 
ATOM      9  C   UNL     1      -1.447  -2.423  24.134  0.00  0.00    +0.019 C 
ATOM     10  C   UNL     1      -1.793  -0.718  25.969  0.00  0.00    +0.019 C 
ATOM     12  C   UNL     1      -2.943  -2.731  24.139  0.00  0.00    +0.002 C 
ATOM     13  C   UNL     1      -3.290  -1.028  25.972  0.00  0.00    +0.002 C 
ATOM     14  C   UNL     1      -3.570  -2.453  25.503  0.00  0.00    +0.000 C 
ENDBRANCH   3   6
ENDBRANCH   5   3
BRANCH   5  11
ATOM     11  C   UNL     1       0.218   1.669  24.152  0.00  0.00    +0.085 C 
BRANCH  11  15
ATOM      2  O   UNL     1      -2.990   2.197  22.577  0.00  0.00    -0.359 OA
ATOM      4  N   UNL     1      -1.633   1.903  22.535  0.00  0.00    -0.083 NA
ATOM     15  C   UNL     1      -1.230   1.946  23.809  0.00  0.00    +0.086 A 
ATOM     16  C   UNL     1      -2.280   2.259  24.690  0.00  0.00    +0.071 A 
ATOM     17  C   UNL     1      -3.364   2.408  23.865  0.00  0.00    +0.138 A 
BRANCH  17  18
ATOM     18  C   UNL     1      -4.777   2.733  24.092  0.00  0.00    +0.080 C 
BRANCH  18  19
ATOM     19  C   UNL     1      -5.156   3.060  25.567  0.00  0.00    -0.010 C 
ATOM     20  C   UNL     1      -6.047   1.969  26.165  0.00  0.00    +0.007 C 
ATOM     21  C   UNL     1      -5.858   4.416  25.679  0.00  0.00    +0.007 C 
ENDBRANCH  18  19
ENDBRANCH  17  18
ENDBRANCH  11  15
ENDBRANCH   5  11
TORSDOF 6
ENDMDL
MODEL 8
REMARK VINA RESULT:      -5.1      2.069      4.470
REMARK  Name = 56775678
REMARK  8 active torsions:
REMARK  status: ('A' for Active; 'I' for Inactive)
REMARK    1  A    between atoms: N_3  and  C_5
REMARK    2  A    between atoms: N_3  and  C_6
REMARK    3  A    between atoms: C_5  and  C_11
REMARK    4  A    between atoms: C_11  and  C_15
REMARK    5  A    between atoms: C_17  and  C_18
REMARK    6  A    between atoms: C_18  and  C_19
REMARK    7  A    between atoms: C_19  and  C_20
REMARK    8  A    between atoms: C_19  and  C_21
REMARK                            x       y       z     vdW  Elec       q    Type
REMARK                         _______ _______ _______ _____ _____    ______ ____
ROOT
ATOM      1  O   UNL     1       0.643  -0.065  22.226  0.00  0.00    -0.376 OA
ATOM      5  C   UNL     1       0.069   0.044  24.280  0.00  0.00    +0.072 C 
ATOM      7  C   UNL     1       1.266  -0.450  23.473  0.00  0.00    +0.184 C 
ATOM      8  C   UNL     1      -0.479   0.508  22.935  0.00  0.00    +0.184 C 
ENDROOT
BRANCH   5   3
ATOM      3  N   UNL     1       0.476   1.219  25.055  0.00  0.00    -0.304 NA
ATOM     22  H   UNL     1       1.407   1.548  24.804  0.00  0.00    +0.123 HD
BRANCH   3   6
ATOM      6  C   UNL     1      -0.487   2.296  24.835  0.00  0.00    +0.054 C 
ATOM      9  C   UNL     1      -1.040   2.784  26.179  0.00  0.00    +0.019 C 
ATOM     10  C   UNL     1       0.181   3.441  24.064  0.00  0.00    +0.019 C 
ATOM     12  C   UNL     1      -1.993   3.963  25.993  0.00  0.00    +0.002 C 
ATOM     13  C   UNL     1      -0.775   4.619  23.880  0.00  0.00    +0.002 C 
ATOM     14  C   UNL     1      -1.337   5.101  25.215  0.00  0.00    +0.000 C 
ENDBRANCH   3   6
ENDBRANCH   5   3
BRANCH   5  11
ATOM     11  C   UNL     1      -0.721  -0.942  25.084  0.00  0.00    +0.085 C 
BRANCH  11  15
ATOM      2  O   UNL     1      -4.225  -1.130  24.223  0.00  0.00    -0.359 OA
ATOM      4  N   UNL     1      -2.927  -1.625  24.211  0.00  0.00    -0.083 NA
ATOM     15  C   UNL     1      -2.207  -0.727  24.890  0.00  0.00    +0.086 A 
ATOM     16  C   UNL     1      -2.990   0.346  25.349  0.00  0.00    +0.071 A 
ATOM     17  C   UNL     1      -4.250   0.045  24.903  0.00  0.00    +0.138 A 
BRANCH  17  18
ATOM     18  C   UNL     1      -5.553   0.710  25.014  0.00  0.00    +0.080 C 
BRANCH  18  19
ATOM     19  C   UNL     1      -5.552   2.234  24.690  0.00  0.00    -0.010 C 
ATOM     20  C   UNL     1      -4.365   2.609  23.800  0.00  0.00    +0.007 C 
ATOM     21  C   UNL     1      -5.525   3.079  25.967  0.00  0.00    +0.007 C 
ENDBRANCH  18  19
ENDBRANCH  17  18
ENDBRANCH  11  15
ENDBRANCH   5  11
TORSDOF 6
ENDMDL
MODEL 9
REMARK VINA RESULT:      -4.8      2.192      4.845
REMARK  Name = 56775678
REMARK  8 active torsions:
REMARK  status: ('A' for Active; 'I' for Inactive)
REMARK    1  A    between atoms: N_3  and  C_5
REMARK    2  A    between atoms: N_3  and  C_6
REMARK    3  A    between atoms: C_5  and  C_11
REMARK    4  A    between atoms: C_11  and  C_15
REMARK    5  A    between atoms: C_17  and  C_18
REMARK    6  A    between atoms: C_18  and  C_19
REMARK    7  A    between atoms: C_19  and  C_20
REMARK    8  A    between atoms: C_19  and  C_21
REMARK                            x       y       z     vdW  Elec       q    Type
REMARK                         _______ _______ _______ _____ _____    ______ ____
ROOT
ATOM      1  O   UNL     1      -3.910  -2.104  25.402  0.00  0.00    -0.376 OA
ATOM      5  C   UNL     1      -2.625  -0.697  24.440  0.00  0.00    +0.072 C 
ATOM      7  C   UNL     1      -3.419  -1.939  24.052  0.00  0.00    +0.184 C 
ATOM      8  C   UNL     1      -3.258  -0.881  25.814  0.00  0.00    +0.184 C 
ENDROOT
BRANCH   5   3
ATOM      3  N   UNL     1      -3.230   0.471  23.794  0.00  0.00    -0.304 NA
ATOM     22  H   UNL     1      -4.004   0.219  23.179  0.00  0.00    +0.123 HD
BRANCH   3   6
ATOM      6  C   UNL     1      -3.717   1.390  24.821  0.00  0.00    +0.054 C 
ATOM      9  C   UNL     1      -3.151   2.793  24.575  0.00  0.00    +0.019 C 
ATOM     10  C   UNL     1      -5.249   1.404  24.823  0.00  0.00    +0.019 C 
ATOM     12  C   UNL     1      -3.699   3.799  25.586  0.00  0.00    +0.002 C 
ATOM     13  C   UNL     1      -5.795   2.412  25.834  0.00  0.00    +0.002 C 
ATOM     14  C   UNL     1      -5.225   3.808  25.600  0.00  0.00    +0.000 C 
ENDBRANCH   3   6
ENDBRANCH   5   3
BRANCH   5  11
ATOM     11  C   UNL     1      -1.132  -0.722  24.319  0.00  0.00    +0.085 C 
BRANCH  11  15
ATOM      2  O   UNL     1       0.573   2.359  25.127  0.00  0.00    -0.359 OA
ATOM      4  N   UNL     1       0.156   1.382  24.231  0.00  0.00    -0.083 NA
ATOM     15  C   UNL     1      -0.519   0.499  24.972  0.00  0.00    +0.086 A 
ATOM     16  C   UNL     1      -0.560   0.862  26.330  0.00  0.00    +0.071 A 
ATOM     17  C   UNL     1       0.141   2.038  26.374  0.00  0.00    +0.138 A 
BRANCH  17  18
ATOM     18  C   UNL     1       0.496   2.970  27.450  0.00  0.00    +0.080 C 
BRANCH  18  19
ATOM     19  C   UNL     1       1.435   2.391  28.549  0.00  0.00    -0.010 C 
ATOM     20  C   UNL     1       0.812   2.533  29.940  0.00  0.00    +0.007 C 
ATOM     21  C   UNL     1       2.808   3.068  28.529  0.00  0.00    +0.007 C 
ENDBRANCH  18  19
ENDBRANCH  17  18
ENDBRANCH  11  15
ENDBRANCH   5  11
TORSDOF 6
ENDMDL
MODEL 10
REMARK VINA RESULT:      -4.6     14.867     17.608
REMARK  Name = 56775678
REMARK  8 active torsions:
REMARK  status: ('A' for Active; 'I' for Inactive)
REMARK    1  A    between atoms: N_3  and  C_5
REMARK    2  A    between atoms: N_3  and  C_6
REMARK    3  A    between atoms: C_5  and  C_11
REMARK    4  A    between atoms: C_11  and  C_15
REMARK    5  A    between atoms: C_17  and  C_18
REMARK    6  A    between atoms: C_18  and  C_19
REMARK    7  A    between atoms: C_19  and  C_20
REMARK    8  A    between atoms: C_19  and  C_21
REMARK                            x       y       z     vdW  Elec       q    Type
REMARK                         _______ _______ _______ _____ _____    ______ ____
ROOT
ATOM      1  O   UNL     1      -8.091  -9.242   8.821  0.00  0.00    -0.376 OA
ATOM      5  C   UNL     1      -7.636  -9.653  10.865  0.00  0.00    +0.072 C 
ATOM      7  C   UNL     1      -7.188 -10.148   9.495  0.00  0.00    +0.184 C 
ATOM      8  C   UNL     1      -8.490  -8.661  10.083  0.00  0.00    +0.184 C 
ENDROOT
BRANCH   5   3
ATOM      3  N   UNL     1      -6.526  -8.929  11.492  0.00  0.00    -0.304 NA
ATOM     22  H   UNL     1      -6.595  -8.916  12.509  0.00  0.00    +0.123 HD
BRANCH   3   6
ATOM      6  C   UNL     1      -5.265  -9.557  11.106  0.00  0.00    +0.054 C 
ATOM      9  C   UNL     1      -4.386  -8.546  10.361  0.00  0.00    +0.019 C 
ATOM     10  C   UNL     1      -4.551 -10.099  12.350  0.00  0.00    +0.019 C 
ATOM     12  C   UNL     1      -3.025  -9.145  10.009  0.00  0.00    +0.002 C 
ATOM     13  C   UNL     1      -3.190 -10.697  11.994  0.00  0.00    +0.002 C 
ATOM     14  C   UNL     1      -2.316  -9.697  11.243  0.00  0.00    +0.000 C 
ENDBRANCH   3   6
ENDBRANCH   5   3
BRANCH   5  11
ATOM     11  C   UNL     1      -8.310 -10.610  11.800  0.00  0.00    +0.085 C 
BRANCH  11  15
ATOM      2  O   UNL     1      -8.858  -9.025  15.000  0.00  0.00    -0.359 OA
ATOM      4  N   UNL     1      -9.212  -9.293  13.683  0.00  0.00    -0.083 NA
ATOM     15  C   UNL     1      -8.252 -10.102  13.225  0.00  0.00    +0.086 A 
ATOM     16  C   UNL     1      -7.275 -10.376  14.198  0.00  0.00    +0.071 A 
ATOM     17  C   UNL     1      -7.703  -9.675  15.295  0.00  0.00    +0.138 A 
BRANCH  17  18
ATOM     18  C   UNL     1      -7.182  -9.500  16.656  0.00  0.00    +0.080 C 
BRANCH  18  19
ATOM     19  C   UNL     1      -6.122 -10.551  17.102  0.00  0.00    -0.010 C 
ATOM     20  C   UNL     1      -6.175 -10.781  18.615  0.00  0.00    +0.007 C 
ATOM     21  C   UNL     1      -4.708 -10.128  16.696  0.00  0.00    +0.007 C 
ENDBRANCH  18  19
ENDBRANCH  17  18
ENDBRANCH  11  15
ENDBRANCH   5  11
TORSDOF 6
ENDMDL
