MODEL 1
REMARK VINA RESULT:       3.8      0.000      0.000
REMARK  Name = 25313249
REMARK  10 active torsions:
REMARK  status: ('A' for Active; 'I' for Inactive)
REMARK    1  A    between atoms: O_2  and  C_21
REMARK    2  A    between atoms: O_4  and  C_24
REMARK    3  A    between atoms: O_4  and  C_34
REMARK    4  A    between atoms: N_6  and  C_14
REMARK    5  A    between atoms: N_7  and  C_23
REMARK    6  A    between atoms: C_8  and  C_12
REMARK    7  A    between atoms: C_9  and  C_15
REMARK    8  A    between atoms: C_12  and  C_14
REMARK    9  A    between atoms: C_15  and  C_21
REMARK   10  A    between atoms: C_20  and  C_22
REMARK                            x       y       z     vdW  Elec       q    Type
REMARK                         _______ _______ _______ _____ _____    ______ ____
ROOT
ATOM      1  O   UNL     1      -6.217   0.845  26.325  0.00  0.00    -0.270 OA
ATOM      5  N   UNL     1      -4.854   2.070  24.872  0.00  0.00    -0.297 N 
ATOM      8  C   UNL     1      -2.649   3.086  24.335  0.00  0.00    +0.011 C 
ATOM      9  C   UNL     1      -3.243   4.471  24.701  0.00  0.00    +0.006 C 
ATOM     10  C   UNL     1      -3.773   2.139  23.876  0.00  0.00    +0.112 C 
ATOM     11  C   UNL     1      -4.399   4.343  25.707  0.00  0.00    +0.023 C 
ATOM     13  C   UNL     1      -5.455   3.357  25.214  0.00  0.00    +0.108 C 
ATOM     20  C   UNL     1      -5.317   0.906  25.488  0.00  0.00    +0.247 C 
ENDROOT
BRANCH  20  22
ATOM     22  C   UNL     1      -4.689  -0.368  25.120  0.00  0.00    +0.037 A 
ATOM     25  C   UNL     1      -3.844  -1.015  26.020  0.00  0.00    +0.013 A 
ATOM     26  C   UNL     1      -4.938  -0.930  23.868  0.00  0.00    +0.013 A 
ATOM     30  C   UNL     1      -3.247  -2.226  25.669  0.00  0.00    +0.001 A 
ATOM     31  C   UNL     1      -4.341  -2.141  23.517  0.00  0.00    +0.001 A 
ATOM     33  C   UNL     1      -3.496  -2.789  24.418  0.00  0.00    +0.000 A 
ENDBRANCH  20  22
BRANCH   8  12
ATOM     12  C   UNL     1      -1.835   2.440  25.462  0.00  0.00    +0.020 C 
BRANCH  12  14
ATOM     14  C   UNL     1      -1.664   0.947  25.222  0.00  0.00    +0.085 C 
BRANCH  14   6
ATOM      6  N   UNL     1      -0.488   0.710  24.385  0.00  0.00    -0.299 NA
ATOM      7  N   UNL     1       2.277   0.241  23.847  0.00  0.00    -0.325 N 
ATOM     16  C   UNL     1       0.124  -0.584  24.711  0.00  0.00    +0.103 C 
ATOM     17  C   UNL     1       0.495   1.786  24.562  0.00  0.00    +0.103 C 
ATOM     18  C   UNL     1       1.323  -0.870  23.803  0.00  0.00    +0.120 C 
ATOM     19  C   UNL     1       1.705   1.579  23.648  0.00  0.00    +0.120 C 
BRANCH   7  23
ATOM     23  C   UNL     1       3.606   0.031  23.460  0.00  0.00    +0.072 A 
ATOM     24  C   UNL     1       3.972   0.090  22.115  0.00  0.00    +0.141 A 
ATOM     27  C   UNL     1       4.568  -0.240  24.433  0.00  0.00    +0.027 A 
ATOM     28  C   UNL     1       5.300  -0.120  21.744  0.00  0.00    +0.047 A 
ATOM     29  C   UNL     1       5.895  -0.450  24.062  0.00  0.00    +0.002 A 
ATOM     32  C   UNL     1       6.262  -0.391  22.717  0.00  0.00    +0.004 A 
BRANCH  24   4
ATOM      4  O   UNL     1       3.048   0.354  21.149  0.00  0.00    -0.493 OA
ATOM     34  C   UNL     1       1.899  -0.489  21.104  0.00  0.00    +0.277 C 
ENDBRANCH  24   4
ENDBRANCH   7  23
ENDBRANCH  14   6
ENDBRANCH  12  14
ENDBRANCH   8  12
BRANCH   9  15
ATOM     15  C   UNL     1      -2.194   5.459  25.209  0.00  0.00    +0.124 C 
BRANCH  15  21
ATOM      3  O   UNL     1      -0.413   5.302  23.553  0.00  0.00    -0.251 OA
ATOM     21  C   UNL     1      -0.822   5.127  24.690  0.00  0.00    +0.305 C 
BRANCH  21   2
ATOM      2  O   UNL     1      -0.073   4.590  25.688  0.00  0.00    -0.481 OA
ATOM     35  H   UNL     1      -0.047   5.169  26.478  0.00  0.00    +0.295 HD
ENDBRANCH  21   2
ENDBRANCH  15  21
ENDBRANCH   9  15
TORSDOF 9
ENDMDL
MODEL 2
REMARK VINA RESULT:       3.8      1.936      4.710
REMARK  Name = 25313249
REMARK  10 active torsions:
REMARK  status: ('A' for Active; 'I' for Inactive)
REMARK    1  A    between atoms: O_2  and  C_21
REMARK    2  A    between atoms: O_4  and  C_24
REMARK    3  A    between atoms: O_4  and  C_34
REMARK    4  A    between atoms: N_6  and  C_14
REMARK    5  A    between atoms: N_7  and  C_23
REMARK    6  A    between atoms: C_8  and  C_12
REMARK    7  A    between atoms: C_9  and  C_15
REMARK    8  A    between atoms: C_12  and  C_14
REMARK    9  A    between atoms: C_15  and  C_21
REMARK   10  A    between atoms: C_20  and  C_22
REMARK                            x       y       z     vdW  Elec       q    Type
REMARK                         _______ _______ _______ _____ _____    ______ ____
ROOT
ATOM      1  O   UNL     1      -5.608   4.187  25.379  0.00  0.00    -0.270 OA
ATOM      5  N   UNL     1      -4.402   2.191  25.575  0.00  0.00    -0.297 N 
ATOM      8  C   UNL     1      -3.176   0.307  24.514  0.00  0.00    +0.011 C 
ATOM      9  C   UNL     1      -4.412  -0.592  24.775  0.00  0.00    +0.006 C 
ATOM     10  C   UNL     1      -3.133   1.450  25.545  0.00  0.00    +0.112 C 
ATOM     11  C   UNL     1      -5.708   0.233  24.845  0.00  0.00    +0.023 C 
ATOM     13  C   UNL     1      -5.583   1.375  25.850  0.00  0.00    +0.108 C 
ATOM     20  C   UNL     1      -4.547   3.563  25.360  0.00  0.00    +0.247 C 
ENDROOT
BRANCH  20  22
ATOM     22  C   UNL     1      -3.339   4.351  25.086  0.00  0.00    +0.037 A 
ATOM     25  C   UNL     1      -2.135   4.021  25.709  0.00  0.00    +0.013 A 
ATOM     26  C   UNL     1      -3.396   5.428  24.202  0.00  0.00    +0.013 A 
ATOM     30  C   UNL     1      -0.988   4.770  25.448  0.00  0.00    +0.001 A 
ATOM     31  C   UNL     1      -2.249   6.177  23.941  0.00  0.00    +0.001 A 
ATOM     33  C   UNL     1      -1.044   5.847  24.564  0.00  0.00    +0.000 A 
ENDBRANCH  20  22
BRANCH   8  12
ATOM     12  C   UNL     1      -3.106   0.871  23.090  0.00  0.00    +0.020 C 
BRANCH  12  14
ATOM     14  C   UNL     1      -1.871   1.744  22.912  0.00  0.00    +0.085 C 
BRANCH  14   6
ATOM      6  N   UNL     1      -0.687   1.037  23.398  0.00  0.00    -0.299 NA
ATOM      7  N   UNL     1       2.059   0.254  23.413  0.00  0.00    -0.325 N 
ATOM     16  C   UNL     1       0.355   1.991  23.796  0.00  0.00    +0.103 C 
ATOM     17  C   UNL     1      -0.168   0.132  22.366  0.00  0.00    +0.103 C 
ATOM     18  C   UNL     1       1.579   1.264  24.360  0.00  0.00    +0.120 C 
ATOM     19  C   UNL     1       1.037  -0.657  22.883  0.00  0.00    +0.120 C 
BRANCH   7  23
ATOM     23  C   UNL     1       3.373  -0.216  23.508  0.00  0.00    +0.072 A 
ATOM     24  C   UNL     1       4.452   0.649  23.323  0.00  0.00    +0.141 A 
ATOM     27  C   UNL     1       3.601  -1.562  23.791  0.00  0.00    +0.027 A 
ATOM     28  C   UNL     1       5.757   0.167  23.422  0.00  0.00    +0.047 A 
ATOM     29  C   UNL     1       4.905  -2.045  23.890  0.00  0.00    +0.002 A 
ATOM     32  C   UNL     1       5.985  -1.179  23.705  0.00  0.00    +0.004 A 
BRANCH  24   4
ATOM      4  O   UNL     1       4.252   1.969  23.046  0.00  0.00    -0.493 OA
ATOM     34  C   UNL     1       3.884   2.302  21.710  0.00  0.00    +0.277 C 
ENDBRANCH  24   4
ENDBRANCH   7  23
ENDBRANCH  14   6
ENDBRANCH  12  14
ENDBRANCH   8  12
BRANCH   9  15
ATOM     15  C   UNL     1      -4.551  -1.729  23.764  0.00  0.00    +0.124 C 
BRANCH  15  21
ATOM      3  O   UNL     1      -3.266  -3.762  23.371  0.00  0.00    -0.251 OA
ATOM     21  C   UNL     1      -3.695  -2.908  24.133  0.00  0.00    +0.305 C 
BRANCH  21   2
ATOM      2  O   UNL     1      -3.453  -2.899  25.469  0.00  0.00    -0.481 OA
ATOM     35  H   UNL     1      -3.966  -2.201  25.928  0.00  0.00    +0.295 HD
ENDBRANCH  21   2
ENDBRANCH  15  21
ENDBRANCH   9  15
TORSDOF 9
ENDMDL
MODEL 3
REMARK VINA RESULT:       3.9      1.042      1.522
REMARK  Name = 25313249
REMARK  10 active torsions:
REMARK  status: ('A' for Active; 'I' for Inactive)
REMARK    1  A    between atoms: O_2  and  C_21
REMARK    2  A    between atoms: O_4  and  C_24
REMARK    3  A    between atoms: O_4  and  C_34
REMARK    4  A    between atoms: N_6  and  C_14
REMARK    5  A    between atoms: N_7  and  C_23
REMARK    6  A    between atoms: C_8  and  C_12
REMARK    7  A    between atoms: C_9  and  C_15
REMARK    8  A    between atoms: C_12  and  C_14
REMARK    9  A    between atoms: C_15  and  C_21
REMARK   10  A    between atoms: C_20  and  C_22
REMARK                            x       y       z     vdW  Elec       q    Type
REMARK                         _______ _______ _______ _____ _____    ______ ____
ROOT
ATOM      1  O   UNL     1      -5.655   0.654  26.762  0.00  0.00    -0.270 OA
ATOM      5  N   UNL     1      -5.015   1.836  24.848  0.00  0.00    -0.297 N 
ATOM      8  C   UNL     1      -3.253   2.967  23.508  0.00  0.00    +0.011 C 
ATOM      9  C   UNL     1      -3.833   4.330  23.970  0.00  0.00    +0.006 C 
ATOM     10  C   UNL     1      -4.355   1.893  23.535  0.00  0.00    +0.112 C 
ATOM     11  C   UNL     1      -4.553   4.209  25.323  0.00  0.00    +0.023 C 
ATOM     13  C   UNL     1      -5.600   3.098  25.296  0.00  0.00    +0.108 C 
ATOM     20  C   UNL     1      -5.109   0.705  25.661  0.00  0.00    +0.247 C 
ENDROOT
BRANCH  20  22
ATOM     22  C   UNL     1      -4.510  -0.545  25.178  0.00  0.00    +0.037 A 
ATOM     25  C   UNL     1      -4.867  -1.054  23.930  0.00  0.00    +0.013 A 
ATOM     26  C   UNL     1      -3.582  -1.223  25.968  0.00  0.00    +0.013 A 
ATOM     30  C   UNL     1      -4.297  -2.241  23.471  0.00  0.00    +0.001 A 
ATOM     31  C   UNL     1      -3.012  -2.410  25.510  0.00  0.00    +0.001 A 
ATOM     33  C   UNL     1      -3.369  -2.919  24.261  0.00  0.00    +0.000 A 
ENDBRANCH  20  22
BRANCH   8  12
ATOM     12  C   UNL     1      -2.037   2.503  24.318  0.00  0.00    +0.020 C 
BRANCH  12  14
ATOM     14  C   UNL     1      -1.807   1.008  24.144  0.00  0.00    +0.085 C 
BRANCH  14   6
ATOM      6  N   UNL     1      -0.468   0.770  23.605  0.00  0.00    -0.299 NA
ATOM      7  N   UNL     1       2.268  -0.041  23.689  0.00  0.00    -0.325 N 
ATOM     16  C   UNL     1      -0.117  -0.652  23.708  0.00  0.00    +0.103 C 
ATOM     17  C   UNL     1       0.525   1.582  24.319  0.00  0.00    +0.103 C 
ATOM     18  C   UNL     1       1.260  -0.924  23.096  0.00  0.00    +0.120 C 
ATOM     19  C   UNL     1       1.922   1.385  23.726  0.00  0.00    +0.120 C 
BRANCH   7  23
ATOM     23  C   UNL     1       3.622  -0.388  23.614  0.00  0.00    +0.072 A 
ATOM     24  C   UNL     1       4.585   0.574  23.306  0.00  0.00    +0.141 A 
ATOM     27  C   UNL     1       4.006  -1.707  23.851  0.00  0.00    +0.027 A 
ATOM     28  C   UNL     1       5.931   0.215  23.237  0.00  0.00    +0.047 A 
ATOM     29  C   UNL     1       5.352  -2.066  23.782  0.00  0.00    +0.002 A 
ATOM     32  C   UNL     1       6.315  -1.104  23.474  0.00  0.00    +0.004 A 
BRANCH  24   4
ATOM      4  O   UNL     1       4.231   1.869  23.072  0.00  0.00    -0.493 OA
ATOM     34  C   UNL     1       3.987   2.239  21.717  0.00  0.00    +0.277 C 
ENDBRANCH  24   4
ENDBRANCH   7  23
ENDBRANCH  14   6
ENDBRANCH  12  14
ENDBRANCH   8  12
BRANCH   9  15
ATOM     15  C   UNL     1      -2.788   5.444  24.013  0.00  0.00    +0.124 C 
BRANCH  15  21
ATOM      3  O   UNL     1      -2.050   4.898  26.271  0.00  0.00    -0.251 OA
ATOM     21  C   UNL     1      -1.796   5.232  25.123  0.00  0.00    +0.305 C 
BRANCH  21   2
ATOM      2  O   UNL     1      -0.539   5.467  24.665  0.00  0.00    -0.481 OA
ATOM     35  H   UNL     1      -0.490   6.297  24.145  0.00  0.00    +0.295 HD
ENDBRANCH  21   2
ENDBRANCH  15  21
ENDBRANCH   9  15
TORSDOF 9
ENDMDL
MODEL 4
REMARK VINA RESULT:       4.3      2.026      4.675
REMARK  Name = 25313249
REMARK  10 active torsions:
REMARK  status: ('A' for Active; 'I' for Inactive)
REMARK    1  A    between atoms: O_2  and  C_21
REMARK    2  A    between atoms: O_4  and  C_24
REMARK    3  A    between atoms: O_4  and  C_34
REMARK    4  A    between atoms: N_6  and  C_14
REMARK    5  A    between atoms: N_7  and  C_23
REMARK    6  A    between atoms: C_8  and  C_12
REMARK    7  A    between atoms: C_9  and  C_15
REMARK    8  A    between atoms: C_12  and  C_14
REMARK    9  A    between atoms: C_15  and  C_21
REMARK   10  A    between atoms: C_20  and  C_22
REMARK                            x       y       z     vdW  Elec       q    Type
REMARK                         _______ _______ _______ _____ _____    ______ ____
ROOT
ATOM      1  O   UNL     1      -5.838   3.910  25.168  0.00  0.00    -0.270 OA
ATOM      5  N   UNL     1      -4.536   2.003  25.541  0.00  0.00    -0.297 N 
ATOM      8  C   UNL     1      -3.114   0.163  24.660  0.00  0.00    +0.011 C 
ATOM      9  C   UNL     1      -4.312  -0.802  24.856  0.00  0.00    +0.006 C 
ATOM     10  C   UNL     1      -3.226   1.343  25.644  0.00  0.00    +0.112 C 
ATOM     11  C   UNL     1      -5.656  -0.058  24.787  0.00  0.00    +0.023 C 
ATOM     13  C   UNL     1      -5.684   1.124  25.752  0.00  0.00    +0.108 C 
ATOM     20  C   UNL     1      -4.744   3.355  25.260  0.00  0.00    +0.247 C 
ENDROOT
BRANCH  20  22
ATOM     22  C   UNL     1      -3.566   4.206  25.053  0.00  0.00    +0.037 A 
ATOM     25  C   UNL     1      -2.453   4.071  25.881  0.00  0.00    +0.013 A 
ATOM     26  C   UNL     1      -3.563   5.151  24.027  0.00  0.00    +0.013 A 
ATOM     30  C   UNL     1      -1.334   4.880  25.684  0.00  0.00    +0.001 A 
ATOM     31  C   UNL     1      -2.444   5.960  23.830  0.00  0.00    +0.001 A 
ATOM     33  C   UNL     1      -1.330   5.825  24.658  0.00  0.00    +0.000 A 
ENDBRANCH  20  22
BRANCH   8  12
ATOM     12  C   UNL     1      -2.960   0.680  23.225  0.00  0.00    +0.020 C 
BRANCH  12  14
ATOM     14  C   UNL     1      -2.211   2.005  23.202  0.00  0.00    +0.085 C 
BRANCH  14   6
ATOM      6  N   UNL     1      -0.793   1.770  22.929  0.00  0.00    -0.299 NA
ATOM      7  N   UNL     1       1.772   0.574  23.312  0.00  0.00    -0.325 N 
ATOM     16  C   UNL     1      -0.565   0.367  22.564  0.00  0.00    +0.103 C 
ATOM     17  C   UNL     1       0.021   2.120  24.099  0.00  0.00    +0.103 C 
ATOM     18  C   UNL     1       0.906   0.119  22.221  0.00  0.00    +0.120 C 
ATOM     19  C   UNL     1       1.512   1.933  23.806  0.00  0.00    +0.120 C 
BRANCH   7  23
ATOM     23  C   UNL     1       3.075   0.075  23.418  0.00  0.00    +0.072 A 
ATOM     24  C   UNL     1       3.298  -1.256  23.775  0.00  0.00    +0.141 A 
ATOM     27  C   UNL     1       4.155   0.918  23.162  0.00  0.00    +0.027 A 
ATOM     28  C   UNL     1       4.602  -1.741  23.875  0.00  0.00    +0.047 A 
ATOM     29  C   UNL     1       5.459   0.433  23.263  0.00  0.00    +0.002 A 
ATOM     32  C   UNL     1       5.682  -0.897  23.619  0.00  0.00    +0.004 A 
BRANCH  24   4
ATOM      4  O   UNL     1       2.256  -2.097  24.028  0.00  0.00    -0.493 OA
ATOM     34  C   UNL     1       1.230  -1.616  24.892  0.00  0.00    +0.277 C 
ENDBRANCH  24   4
ENDBRANCH   7  23
ENDBRANCH  14   6
ENDBRANCH  12  14
ENDBRANCH   8  12
BRANCH   9  15
ATOM     15  C   UNL     1      -4.298  -1.981  23.884  0.00  0.00    +0.124 C 
BRANCH  15  21
ATOM      3  O   UNL     1      -2.182  -3.138  23.535  0.00  0.00    -0.251 OA
ATOM     21  C   UNL     1      -3.190  -2.947  24.198  0.00  0.00    +0.305 C 
BRANCH  21   2
ATOM      2  O   UNL     1      -3.468  -3.602  25.356  0.00  0.00    -0.481 OA
ATOM     35  H   UNL     1      -3.221  -4.550  25.307  0.00  0.00    +0.295 HD
ENDBRANCH  21   2
ENDBRANCH  15  21
ENDBRANCH   9  15
TORSDOF 9
ENDMDL
MODEL 5
REMARK VINA RESULT:       5.0      1.389      1.928
REMARK  Name = 25313249
REMARK  10 active torsions:
REMARK  status: ('A' for Active; 'I' for Inactive)
REMARK    1  A    between atoms: O_2  and  C_21
REMARK    2  A    between atoms: O_4  and  C_24
REMARK    3  A    between atoms: O_4  and  C_34
REMARK    4  A    between atoms: N_6  and  C_14
REMARK    5  A    between atoms: N_7  and  C_23
REMARK    6  A    between atoms: C_8  and  C_12
REMARK    7  A    between atoms: C_9  and  C_15
REMARK    8  A    between atoms: C_12  and  C_14
REMARK    9  A    between atoms: C_15  and  C_21
REMARK   10  A    between atoms: C_20  and  C_22
REMARK                            x       y       z     vdW  Elec       q    Type
REMARK                         _______ _______ _______ _____ _____    ______ ____
ROOT
ATOM      1  O   UNL     1      -4.682  -0.261  26.953  0.00  0.00    -0.270 OA
ATOM      5  N   UNL     1      -4.740   1.172  25.105  0.00  0.00    -0.297 N 
ATOM      8  C   UNL     1      -3.558   2.650  23.493  0.00  0.00    +0.011 C 
ATOM      9  C   UNL     1      -4.116   3.874  24.266  0.00  0.00    +0.006 C 
ATOM     10  C   UNL     1      -4.493   1.441  23.681  0.00  0.00    +0.112 C 
ATOM     11  C   UNL     1      -4.402   3.530  25.737  0.00  0.00    +0.023 C 
ATOM     13  C   UNL     1      -5.295   2.297  25.854  0.00  0.00    +0.108 C 
ATOM     20  C   UNL     1      -4.482  -0.033  25.761  0.00  0.00    +0.247 C 
ENDROOT
BRANCH  20  22
ATOM     22  C   UNL     1      -3.923  -1.140  24.976  0.00  0.00    +0.037 A 
ATOM     25  C   UNL     1      -4.701  -1.769  24.004  0.00  0.00    +0.013 A 
ATOM     26  C   UNL     1      -2.614  -1.563  25.203  0.00  0.00    +0.013 A 
ATOM     30  C   UNL     1      -4.169  -2.820  23.258  0.00  0.00    +0.001 A 
ATOM     31  C   UNL     1      -2.082  -2.615  24.458  0.00  0.00    +0.001 A 
ATOM     33  C   UNL     1      -2.860  -3.244  23.485  0.00  0.00    +0.000 A 
ENDBRANCH  20  22
BRANCH   8  12
ATOM     12  C   UNL     1      -2.121   2.277  23.873  0.00  0.00    +0.020 C 
BRANCH  12  14
ATOM     14  C   UNL     1      -1.689   0.995  23.172  0.00  0.00    +0.085 C 
BRANCH  14   6
ATOM      6  N   UNL     1      -0.247   1.022  22.931  0.00  0.00    -0.299 NA
ATOM      7  N   UNL     1       2.478   0.272  23.336  0.00  0.00    -0.325 N 
ATOM     16  C   UNL     1       0.230  -0.301  22.512  0.00  0.00    +0.103 C 
ATOM     17  C   UNL     1       0.469   1.452  24.138  0.00  0.00    +0.103 C 
ATOM     18  C   UNL     1       1.729  -0.274  22.201  0.00  0.00    +0.120 C 
ATOM     19  C   UNL     1       1.975   1.540  23.880  0.00  0.00    +0.120 C 
BRANCH   7  23
ATOM     23  C   UNL     1       3.846   0.001  23.458  0.00  0.00    +0.072 A 
ATOM     24  C   UNL     1       4.293  -1.295  23.716  0.00  0.00    +0.141 A 
ATOM     27  C   UNL     1       4.765   1.040  23.319  0.00  0.00    +0.027 A 
ATOM     28  C   UNL     1       5.659  -1.551  23.834  0.00  0.00    +0.047 A 
ATOM     29  C   UNL     1       6.131   0.784  23.437  0.00  0.00    +0.002 A 
ATOM     32  C   UNL     1       6.578  -0.512  23.694  0.00  0.00    +0.004 A 
BRANCH  24   4
ATOM      4  O   UNL     1       3.411  -2.325  23.855  0.00  0.00    -0.493 OA
ATOM     34  C   UNL     1       2.380  -2.169  24.827  0.00  0.00    +0.277 C 
ENDBRANCH  24   4
ENDBRANCH   7  23
ENDBRANCH  14   6
ENDBRANCH  12  14
ENDBRANCH   8  12
BRANCH   9  15
ATOM     15  C   UNL     1      -3.220   5.107  24.165  0.00  0.00    +0.124 C 
BRANCH  15  21
ATOM      3  O   UNL     1      -2.120   4.526  26.261  0.00  0.00    -0.251 OA
ATOM     21  C   UNL     1      -2.095   5.060  25.162  0.00  0.00    +0.305 C 
BRANCH  21   2
ATOM      2  O   UNL     1      -1.013   5.710  24.662  0.00  0.00    -0.481 OA
ATOM     35  H   UNL     1      -0.731   6.449  25.242  0.00  0.00    +0.295 HD
ENDBRANCH  21   2
ENDBRANCH  15  21
ENDBRANCH   9  15
TORSDOF 9
ENDMDL
