MODEL 1
REMARK VINA RESULT:      16.2      0.000      0.000
REMARK  Name = 7135197
REMARK  9 active torsions:
REMARK  status: ('A' for Active; 'I' for Inactive)
REMARK    1  A    between atoms: O_2  and  C_16
REMARK    2  A    between atoms: O_3  and  C_21
REMARK    3  A    between atoms: C_11  and  C_19
REMARK    4  A    between atoms: C_13  and  C_21
REMARK    5  A    between atoms: C_13  and  C_22
REMARK    6  A    between atoms: C_14  and  C_24
REMARK    7  A    between atoms: C_24  and  C_25
REMARK    8  A    between atoms: C_29  and  C_30
REMARK    9  A    between atoms: C_36  and  C_37
REMARK                            x       y       z     vdW  Elec       q    Type
REMARK                         _______ _______ _______ _____ _____    ______ ____
ROOT
ATOM      1  S   UNL     1      -0.871  -1.027  23.917  0.00  0.00    -0.057 S 
ATOM      5  O   UNL     1       2.839   1.693  23.260  0.00  0.00    -0.275 OA
ATOM      7  N   UNL     1      -0.021   1.416  23.922  0.00  0.00    -0.229 NA
ATOM      9  N   UNL     1       1.590  -0.295  23.387  0.00  0.00    -0.264 N 
ATOM     11  C   UNL     1      -3.666   2.546  24.478  0.00  0.00    -0.019 C 
ATOM     12  C   UNL     1      -4.035   1.225  25.287  0.00  0.00    +0.011 C 
ATOM     13  C   UNL     1      -5.542   1.044  25.713  0.00  0.00    +0.021 C 
ATOM     14  C   UNL     1      -2.081   2.736  24.541  0.00  0.00    +0.054 C 
ATOM     15  C   UNL     1      -4.332   3.770  25.159  0.00  0.00    +0.010 C 
ATOM     16  C   UNL     1      -6.063   2.372  26.332  0.00  0.00    +0.123 C 
ATOM     17  C   UNL     1      -3.414  -0.039  24.625  0.00  0.00    +0.049 C 
ATOM     18  C   UNL     1      -5.815   3.586  25.443  0.00  0.00    +0.032 C 
ATOM     19  C   UNL     1      -4.120   2.492  22.999  0.00  0.00    +0.012 C 
ATOM     20  C   UNL     1      -1.367   1.443  24.236  0.00  0.00    +0.058 A 
ATOM     22  C   UNL     1      -5.630  -0.046  26.819  0.00  0.00    +0.016 C 
ATOM     23  C   UNL     1      -1.980   0.208  24.298  0.00  0.00    +0.015 A 
ATOM     26  C   UNL     1       0.346   0.169  23.726  0.00  0.00    +0.165 A 
ATOM     30  C   UNL     1       2.754   0.465  23.175  0.00  0.00    +0.222 C 
ATOM     40  H   UNL     1       1.658  -1.303  23.283  0.00  0.00    +0.157 HD
ENDROOT
BRANCH  30  29
ATOM     29  C   UNL     1       3.980  -0.394  22.801  0.00  0.00    +0.075 C 
ATOM     33  C   UNL     1       4.350  -1.553  23.749  0.00  0.00    +0.013 C 
ATOM     34  C   UNL     1       5.376   0.193  23.099  0.00  0.00    +0.013 C 
ATOM     35  C   UNL     1       5.826  -1.247  23.425  0.00  0.00    +0.001 C 
ENDBRANCH  30  29
BRANCH  16   2
ATOM      2  O   UNL     1      -7.461   2.283  26.609  0.00  0.00    -0.391 OA
ATOM     38  H   UNL     1      -7.657   1.361  26.846  0.00  0.00    +0.210 HD
ENDBRANCH  16   2
BRANCH  13  21
ATOM     21  C   UNL     1      -6.475   0.562  24.579  0.00  0.00    +0.165 C 
BRANCH  21   3
ATOM      3  O   UNL     1      -7.363   1.613  24.274  0.00  0.00    -0.394 OA
ATOM     39  H   UNL     1      -7.121   2.370  24.836  0.00  0.00    +0.209 HD
ENDBRANCH  21   3
ENDBRANCH  13  21
BRANCH  14  24
ATOM     24  C   UNL     1      -1.542   3.889  23.684  0.00  0.00    +0.106 C 
BRANCH  24  25
ATOM      4  O   UNL     1       0.573   4.940  23.480  0.00  0.00    -0.276 OA
ATOM      6  O   UNL     1       0.468   1.903  29.950  0.00  0.00    -0.276 OA
ATOM      8  N   UNL     1       0.039   4.082  25.572  0.00  0.00    -0.298 N 
ATOM     10  N   UNL     1       1.026   2.707  27.844  0.00  0.00    -0.299 N 
ATOM     25  C   UNL     1      -0.215   4.355  24.229  0.00  0.00    +0.216 C 
ATOM     27  C   UNL     1      -0.906   3.453  26.506  0.00  0.00    +0.126 C 
ATOM     28  C   UNL     1       1.306   4.499  26.176  0.00  0.00    +0.126 C 
ATOM     31  C   UNL     1      -0.242   2.291  27.239  0.00  0.00    +0.126 C 
ATOM     32  C   UNL     1       1.969   3.336  26.910  0.00  0.00    +0.126 C 
ATOM     36  C   UNL     1       1.280   2.433  29.187  0.00  0.00    +0.213 C 
ATOM     37  C   UNL     1       2.638   2.825  29.710  0.00  0.00    +0.109 C 
ENDBRANCH  24  25
ENDBRANCH  14  24
TORSDOF 6
ENDMDL
MODEL 2
REMARK VINA RESULT:      18.7      2.688      5.528
REMARK  Name = 7135197
REMARK  9 active torsions:
REMARK  status: ('A' for Active; 'I' for Inactive)
REMARK    1  A    between atoms: O_2  and  C_16
REMARK    2  A    between atoms: O_3  and  C_21
REMARK    3  A    between atoms: C_11  and  C_19
REMARK    4  A    between atoms: C_13  and  C_21
REMARK    5  A    between atoms: C_13  and  C_22
REMARK    6  A    between atoms: C_14  and  C_24
REMARK    7  A    between atoms: C_24  and  C_25
REMARK    8  A    between atoms: C_29  and  C_30
REMARK    9  A    between atoms: C_36  and  C_37
REMARK                            x       y       z     vdW  Elec       q    Type
REMARK                         _______ _______ _______ _____ _____    ______ ____
ROOT
ATOM      1  S   UNL     1       1.391   3.174  23.272  0.00  0.00    -0.057 S 
ATOM      5  O   UNL     1       3.150  -1.085  23.867  0.00  0.00    -0.275 OA
ATOM      7  N   UNL     1       0.924   0.815  24.224  0.00  0.00    -0.229 NA
ATOM      9  N   UNL     1       3.072   1.164  23.188  0.00  0.00    -0.264 N 
ATOM     11  C   UNL     1      -2.377   2.193  25.666  0.00  0.00    -0.019 C 
ATOM     12  C   UNL     1      -2.543   3.249  24.485  0.00  0.00    +0.011 C 
ATOM     13  C   UNL     1      -3.747   4.261  24.595  0.00  0.00    +0.021 C 
ATOM     14  C   UNL     1      -1.413   1.027  25.152  0.00  0.00    +0.054 C 
ATOM     15  C   UNL     1      -3.758   1.573  26.001  0.00  0.00    +0.010 C 
ATOM     16  C   UNL     1      -5.037   3.483  24.981  0.00  0.00    +0.123 C 
ATOM     17  C   UNL     1      -1.186   3.924  24.131  0.00  0.00    +0.049 C 
ATOM     18  C   UNL     1      -4.860   2.600  26.212  0.00  0.00    +0.032 C 
ATOM     19  C   UNL     1      -1.787   2.819  26.953  0.00  0.00    +0.012 C 
ATOM     20  C   UNL     1      -0.193   1.593  24.470  0.00  0.00    +0.058 A 
ATOM     22  C   UNL     1      -3.996   4.906  23.202  0.00  0.00    +0.016 C 
ATOM     23  C   UNL     1      -0.120   2.889  24.004  0.00  0.00    +0.015 A 
ATOM     26  C   UNL     1       1.824   1.547  23.605  0.00  0.00    +0.165 A 
ATOM     30  C   UNL     1       3.668  -0.101  23.331  0.00  0.00    +0.222 C 
ATOM     40  H   UNL     1       3.611   1.891  22.726  0.00  0.00    +0.157 HD
ENDROOT
BRANCH  30  29
ATOM     29  C   UNL     1       5.093  -0.171  22.746  0.00  0.00    +0.075 C 
ATOM     33  C   UNL     1       5.933  -1.423  23.072  0.00  0.00    +0.013 C 
ATOM     34  C   UNL     1       6.192   0.655  23.449  0.00  0.00    +0.013 C 
ATOM     35  C   UNL     1       7.164  -0.494  23.109  0.00  0.00    +0.001 C 
ENDBRANCH  30  29
BRANCH  16   2
ATOM      2  O   UNL     1      -6.118   4.386  25.215  0.00  0.00    -0.391 OA
ATOM     38  H   UNL     1      -5.748   5.285  25.251  0.00  0.00    +0.210 HD
ENDBRANCH  16   2
BRANCH  13  21
ATOM     21  C   UNL     1      -3.506   5.441  25.563  0.00  0.00    +0.165 C 
BRANCH  21   3
ATOM      3  O   UNL     1      -2.166   5.855  25.413  0.00  0.00    -0.394 OA
ATOM     39  H   UNL     1      -1.618   5.053  25.365  0.00  0.00    +0.209 HD
ENDBRANCH  21   3
ENDBRANCH  13  21
BRANCH  14  24
ATOM     24  C   UNL     1      -1.030  -0.003  26.223  0.00  0.00    +0.106 C 
BRANCH  24  25
ATOM      4  O   UNL     1       0.069  -1.964  25.472  0.00  0.00    -0.276 OA
ATOM      6  O   UNL     1      -6.756  -2.603  23.446  0.00  0.00    -0.276 OA
ATOM      8  N   UNL     1      -2.243  -1.926  25.258  0.00  0.00    -0.298 N 
ATOM     10  N   UNL     1      -4.439  -2.616  23.605  0.00  0.00    -0.299 N 
ATOM     25  C   UNL     1      -1.011  -1.386  25.619  0.00  0.00    +0.216 C 
ATOM     27  C   UNL     1      -3.551  -1.294  25.487  0.00  0.00    +0.126 C 
ATOM     28  C   UNL     1      -2.309  -3.263  24.663  0.00  0.00    +0.126 C 
ATOM     31  C   UNL     1      -4.372  -1.279  24.201  0.00  0.00    +0.126 C 
ATOM     32  C   UNL     1      -3.132  -3.247  23.377  0.00  0.00    +0.126 C 
ATOM     36  C   UNL     1      -5.671  -3.156  23.242  0.00  0.00    +0.213 C 
ATOM     37  C   UNL     1      -5.645  -4.502  22.564  0.00  0.00    +0.109 C 
ENDBRANCH  24  25
ENDBRANCH  14  24
TORSDOF 6
ENDMDL
MODEL 3
REMARK VINA RESULT:      18.8      2.724      4.238
REMARK  Name = 7135197
REMARK  9 active torsions:
REMARK  status: ('A' for Active; 'I' for Inactive)
REMARK    1  A    between atoms: O_2  and  C_16
REMARK    2  A    between atoms: O_3  and  C_21
REMARK    3  A    between atoms: C_11  and  C_19
REMARK    4  A    between atoms: C_13  and  C_21
REMARK    5  A    between atoms: C_13  and  C_22
REMARK    6  A    between atoms: C_14  and  C_24
REMARK    7  A    between atoms: C_24  and  C_25
REMARK    8  A    between atoms: C_29  and  C_30
REMARK    9  A    between atoms: C_36  and  C_37
REMARK                            x       y       z     vdW  Elec       q    Type
REMARK                         _______ _______ _______ _____ _____    ______ ____
ROOT
ATOM      1  S   UNL     1       0.644   2.202  25.593  0.00  0.00    -0.057 S 
ATOM      5  O   UNL     1       2.007   0.286  21.586  0.00  0.00    -0.275 OA
ATOM      7  N   UNL     1      -0.126   1.487  23.229  0.00  0.00    -0.229 NA
ATOM      9  N   UNL     1       2.185   1.090  23.787  0.00  0.00    -0.264 N 
ATOM     11  C   UNL     1      -3.726   2.399  24.268  0.00  0.00    -0.019 C 
ATOM     12  C   UNL     1      -3.234   3.545  25.257  0.00  0.00    +0.011 C 
ATOM     13  C   UNL     1      -4.337   4.260  26.129  0.00  0.00    +0.021 C 
ATOM     14  C   UNL     1      -2.564   2.135  23.203  0.00  0.00    +0.054 C 
ATOM     15  C   UNL     1      -4.987   2.882  23.505  0.00  0.00    +0.010 C 
ATOM     16  C   UNL     1      -5.544   4.635  25.222  0.00  0.00    +0.123 C 
ATOM     17  C   UNL     1      -1.986   3.097  26.071  0.00  0.00    +0.049 C 
ATOM     18  C   UNL     1      -6.070   3.458  24.406  0.00  0.00    +0.032 C 
ATOM     19  C   UNL     1      -4.064   1.077  24.999  0.00  0.00    +0.012 C 
ATOM     20  C   UNL     1      -1.223   2.019  23.881  0.00  0.00    +0.058 A 
ATOM     22  C   UNL     1      -3.756   5.587  26.693  0.00  0.00    +0.016 C 
ATOM     23  C   UNL     1      -0.981   2.474  25.162  0.00  0.00    +0.015 A 
ATOM     26  C   UNL     1       0.910   1.525  24.038  0.00  0.00    +0.165 A 
ATOM     30  C   UNL     1       2.669   0.505  22.604  0.00  0.00    +0.222 C 
ATOM     40  H   UNL     1       2.840   1.214  24.554  0.00  0.00    +0.157 HD
ENDROOT
BRANCH  30  29
ATOM     29  C   UNL     1       4.164   0.132  22.677  0.00  0.00    +0.075 C 
ATOM     33  C   UNL     1       4.550  -1.079  23.551  0.00  0.00    +0.013 C 
ATOM     34  C   UNL     1       5.065   0.984  23.596  0.00  0.00    +0.013 C 
ATOM     35  C   UNL     1       5.840  -0.312  23.910  0.00  0.00    +0.001 C 
ENDBRANCH  30  29
BRANCH  16   2
ATOM      2  O   UNL     1      -6.613   5.167  26.002  0.00  0.00    -0.391 OA
ATOM     38  H   UNL     1      -6.946   5.958  25.546  0.00  0.00    +0.210 HD
ENDBRANCH  16   2
BRANCH  13  21
ATOM     21  C   UNL     1      -4.804   3.453  27.360  0.00  0.00    +0.165 C 
BRANCH  21   3
ATOM      3  O   UNL     1      -5.941   2.710  26.984  0.00  0.00    -0.394 OA
ATOM     39  H   UNL     1      -6.083   2.030  27.665  0.00  0.00    +0.209 HD
ENDBRANCH  21   3
ENDBRANCH  13  21
BRANCH  14  24
ATOM     24  C   UNL     1      -2.820   0.952  22.260  0.00  0.00    +0.106 C 
BRANCH  24  25
ATOM      4  O   UNL     1      -4.503  -0.364  23.287  0.00  0.00    -0.276 OA
ATOM      6  O   UNL     1       1.748  -3.168  25.328  0.00  0.00    -0.276 OA
ATOM      8  N   UNL     1      -2.321  -1.139  23.476  0.00  0.00    -0.298 N 
ATOM     10  N   UNL     1      -0.425  -2.360  25.191  0.00  0.00    -0.299 N 
ATOM     25  C   UNL     1      -3.298  -0.240  23.052  0.00  0.00    +0.216 C 
ATOM     27  C   UNL     1      -0.890  -1.059  23.149  0.00  0.00    +0.126 C 
ATOM     28  C   UNL     1      -2.703  -2.321  24.252  0.00  0.00    +0.126 C 
ATOM     31  C   UNL     1      -0.044  -1.178  24.414  0.00  0.00    +0.126 C 
ATOM     32  C   UNL     1      -1.856  -2.440  25.515  0.00  0.00    +0.126 C 
ATOM     36  C   UNL     1       0.552  -3.259  25.616  0.00  0.00    +0.213 C 
ATOM     37  C   UNL     1       0.085  -4.405  26.476  0.00  0.00    +0.109 C 
ENDBRANCH  24  25
ENDBRANCH  14  24
TORSDOF 6
ENDMDL
