MODEL 1
REMARK VINA RESULT:      -5.9      0.000      0.000
REMARK  Name = 44716348
REMARK  8 active torsions:
REMARK  status: ('A' for Active; 'I' for Inactive)
REMARK    1  A    between atoms: O_4  and  C_23
REMARK    2  A    between atoms: O_4  and  C_24
REMARK    3  A    between atoms: N_6  and  C_15
REMARK    4  A    between atoms: N_6  and  C_17
REMARK    5  A    between atoms: C_8  and  C_14
REMARK    6  A    between atoms: C_9  and  C_15
REMARK    7  A    between atoms: C_14  and  C_16
REMARK    8  A    between atoms: C_17  and  C_18
REMARK                            x       y       z     vdW  Elec       q    Type
REMARK                         _______ _______ _______ _____ _____    ______ ____
ROOT
ATOM      6  N   UNL     1       0.189   3.674  25.143  0.00  0.00    -0.311 NA
ATOM     25  H   UNL     1       0.639   3.306  24.305  0.00  0.00    +0.122 HD
ENDROOT
BRANCH   6  15
ATOM     15  C   UNL     1      -0.492   2.595  25.839  0.00  0.00    +0.100 C 
BRANCH  15   9
ATOM      5  N   UNL     1       0.002   1.202  23.812  0.00  0.00    -0.298 NA
ATOM      7  C   UNL     1      -1.265  -0.887  24.704  0.00  0.00    -0.004 C 
ATOM      8  C   UNL     1      -2.104  -0.146  23.638  0.00  0.00    +0.006 C 
ATOM      9  C   UNL     1      -0.047   1.234  25.298  0.00  0.00    +0.071 C 
ATOM     10  C   UNL     1      -0.922   0.084  25.849  0.00  0.00    +0.024 C 
ATOM     11  C   UNL     1      -1.370   1.158  23.252  0.00  0.00    +0.088 C 
ATOM     12  C   UNL     1       0.063  -1.286  24.031  0.00  0.00    +0.019 C 
ATOM     13  C   UNL     1       0.708  -0.037  23.404  0.00  0.00    +0.085 C 
BRANCH   8  14
ATOM     14  C   UNL     1      -3.539   0.126  24.083  0.00  0.00    +0.002 C 
ATOM     16  C   UNL     1      -4.355  -1.151  24.132  0.00  0.00    +0.004 C 
ENDBRANCH   8  14
ENDBRANCH  15   9
ENDBRANCH   6  15
BRANCH   6  17
ATOM     17  C   UNL     1      -0.747   4.730  24.773  0.00  0.00    +0.116 C 
BRANCH  17  18
ATOM     18  C   UNL     1      -2.172   4.341  25.059  0.00  0.00    -0.033 A 
ATOM     19  C   UNL     1      -3.015   3.959  24.015  0.00  0.00    +0.008 A 
ATOM     20  C   UNL     1      -2.650   4.362  26.370  0.00  0.00    +0.008 A 
ATOM     21  C   UNL     1      -4.337   3.598  24.283  0.00  0.00    +0.046 A 
ATOM     22  C   UNL     1      -3.971   4.002  26.637  0.00  0.00    +0.046 A 
ATOM     23  C   UNL     1      -4.814   3.620  25.593  0.00  0.00    +0.130 A 
BRANCH  23   4
ATOM      4  O   UNL     1      -6.103   3.268  25.854  0.00  0.00    -0.406 OA
BRANCH   4  24
ATOM      1  F   UNL     1      -5.296   1.160  25.915  0.00  0.00    -0.133 F 
ATOM      2  F   UNL     1      -7.194   1.565  26.922  0.00  0.00    -0.133 F 
ATOM      3  F   UNL     1      -7.081   1.543  24.714  0.00  0.00    -0.133 F 
ATOM     24  C   UNL     1      -6.437   1.884  25.850  0.00  0.00    +0.575 C 
ENDBRANCH   4  24
ENDBRANCH  23   4
ENDBRANCH  17  18
ENDBRANCH   6  17
TORSDOF 7
ENDMDL
MODEL 2
REMARK VINA RESULT:      -5.7      1.737      2.624
REMARK  Name = 44716348
REMARK  8 active torsions:
REMARK  status: ('A' for Active; 'I' for Inactive)
REMARK    1  A    between atoms: O_4  and  C_23
REMARK    2  A    between atoms: O_4  and  C_24
REMARK    3  A    between atoms: N_6  and  C_15
REMARK    4  A    between atoms: N_6  and  C_17
REMARK    5  A    between atoms: C_8  and  C_14
REMARK    6  A    between atoms: C_9  and  C_15
REMARK    7  A    between atoms: C_14  and  C_16
REMARK    8  A    between atoms: C_17  and  C_18
REMARK                            x       y       z     vdW  Elec       q    Type
REMARK                         _______ _______ _______ _____ _____    ______ ____
ROOT
ATOM      6  N   UNL     1       0.347   0.550  24.662  0.00  0.00    -0.311 NA
ATOM     25  H   UNL     1       0.102  -0.020  23.853  0.00  0.00    +0.122 HD
ENDROOT
BRANCH   6  15
ATOM     15  C   UNL     1      -0.649   0.364  25.704  0.00  0.00    +0.100 C 
BRANCH  15   9
ATOM      5  N   UNL     1      -1.431  -1.461  24.171  0.00  0.00    -0.298 NA
ATOM      7  C   UNL     1      -3.699  -1.785  25.402  0.00  0.00    -0.004 C 
ATOM      8  C   UNL     1      -3.892  -0.991  24.089  0.00  0.00    +0.006 C 
ATOM      9  C   UNL     1      -1.312  -1.010  25.583  0.00  0.00    +0.071 C 
ATOM     10  C   UNL     1      -2.682  -1.051  26.296  0.00  0.00    +0.024 C 
ATOM     11  C   UNL     1      -2.501  -0.705  23.478  0.00  0.00    +0.088 C 
ATOM     12  C   UNL     1      -3.075  -3.140  25.019  0.00  0.00    +0.019 C 
ATOM     13  C   UNL     1      -1.808  -2.896  24.179  0.00  0.00    +0.085 C 
BRANCH   8  14
ATOM     14  C   UNL     1      -4.700   0.291  24.273  0.00  0.00    +0.002 C 
ATOM     16  C   UNL     1      -5.143   0.465  25.713  0.00  0.00    +0.004 C 
ENDBRANCH   8  14
ENDBRANCH  15   9
ENDBRANCH   6  15
BRANCH   6  17
ATOM     17  C   UNL     1       0.434   1.951  24.265  0.00  0.00    +0.116 C 
BRANCH  17  18
ATOM     18  C   UNL     1      -0.897   2.647  24.373  0.00  0.00    -0.033 A 
ATOM     19  C   UNL     1      -1.910   2.362  23.458  0.00  0.00    +0.008 A 
ATOM     20  C   UNL     1      -1.115   3.578  25.390  0.00  0.00    +0.008 A 
ATOM     21  C   UNL     1      -3.143   3.008  23.560  0.00  0.00    +0.046 A 
ATOM     22  C   UNL     1      -2.347   4.224  25.490  0.00  0.00    +0.046 A 
ATOM     23  C   UNL     1      -3.361   3.938  24.575  0.00  0.00    +0.130 A 
BRANCH  23   4
ATOM      4  O   UNL     1      -4.564   4.568  24.675  0.00  0.00    -0.406 OA
BRANCH   4  24
ATOM      1  F   UNL     1      -6.480   4.912  25.818  0.00  0.00    -0.133 F 
ATOM      2  F   UNL     1      -6.225   3.000  24.791  0.00  0.00    -0.133 F 
ATOM      3  F   UNL     1      -5.057   3.456  26.612  0.00  0.00    -0.133 F 
ATOM     24  C   UNL     1      -5.575   3.966  25.475  0.00  0.00    +0.575 C 
ENDBRANCH   4  24
ENDBRANCH  23   4
ENDBRANCH  17  18
ENDBRANCH   6  17
TORSDOF 7
ENDMDL
MODEL 3
REMARK VINA RESULT:      -5.4      2.638      5.038
REMARK  Name = 44716348
REMARK  8 active torsions:
REMARK  status: ('A' for Active; 'I' for Inactive)
REMARK    1  A    between atoms: O_4  and  C_23
REMARK    2  A    between atoms: O_4  and  C_24
REMARK    3  A    between atoms: N_6  and  C_15
REMARK    4  A    between atoms: N_6  and  C_17
REMARK    5  A    between atoms: C_8  and  C_14
REMARK    6  A    between atoms: C_9  and  C_15
REMARK    7  A    between atoms: C_14  and  C_16
REMARK    8  A    between atoms: C_17  and  C_18
REMARK                            x       y       z     vdW  Elec       q    Type
REMARK                         _______ _______ _______ _____ _____    ______ ____
ROOT
ATOM      6  N   UNL     1      -0.500   3.532  25.004  0.00  0.00    -0.311 NA
ATOM     25  H   UNL     1      -0.026   4.432  24.924  0.00  0.00    +0.122 HD
ENDROOT
BRANCH   6  15
ATOM     15  C   UNL     1      -1.374   3.547  26.165  0.00  0.00    +0.100 C 
BRANCH  15   9
ATOM      5  N   UNL     1      -3.812   2.956  26.208  0.00  0.00    -0.298 NA
ATOM      7  C   UNL     1      -4.203   3.584  23.714  0.00  0.00    -0.004 C 
ATOM      8  C   UNL     1      -4.122   2.050  23.892  0.00  0.00    +0.006 C 
ATOM      9  C   UNL     1      -2.797   3.950  25.768  0.00  0.00    +0.071 C 
ATOM     10  C   UNL     1      -2.912   4.228  24.252  0.00  0.00    +0.024 C 
ATOM     11  C   UNL     1      -3.747   1.743  25.359  0.00  0.00    +0.088 C 
ATOM     12  C   UNL     1      -5.363   4.076  24.601  0.00  0.00    +0.019 C 
ATOM     13  C   UNL     1      -5.153   3.567  26.039  0.00  0.00    +0.085 C 
BRANCH   8  14
ATOM     14  C   UNL     1      -3.161   1.380  22.912  0.00  0.00    +0.002 C 
ATOM     16  C   UNL     1      -2.720   2.341  21.825  0.00  0.00    +0.004 C 
ENDBRANCH   8  14
ENDBRANCH  15   9
ENDBRANCH   6  15
BRANCH   6  17
ATOM     17  C   UNL     1       0.489   2.465  25.107  0.00  0.00    +0.116 C 
BRANCH  17  18
ATOM     18  C   UNL     1      -0.133   1.106  24.926  0.00  0.00    -0.033 A 
ATOM     19  C   UNL     1      -0.856   0.525  25.968  0.00  0.00    +0.008 A 
ATOM     20  C   UNL     1       0.015   0.428  23.715  0.00  0.00    +0.008 A 
ATOM     21  C   UNL     1      -1.431  -0.735  25.799  0.00  0.00    +0.046 A 
ATOM     22  C   UNL     1      -0.561  -0.831  23.547  0.00  0.00    +0.046 A 
ATOM     23  C   UNL     1      -1.283  -1.412  24.589  0.00  0.00    +0.130 A 
BRANCH  23   4
ATOM      4  O   UNL     1      -1.846  -2.641  24.425  0.00  0.00    -0.406 OA
BRANCH   4  24
ATOM      1  F   UNL     1      -3.641  -3.876  23.834  0.00  0.00    -0.133 F 
ATOM      2  F   UNL     1      -3.701  -2.826  25.749  0.00  0.00    -0.133 F 
ATOM      3  F   UNL     1      -3.850  -1.701  23.852  0.00  0.00    -0.133 F 
ATOM     24  C   UNL     1      -3.264  -2.746  24.474  0.00  0.00    +0.575 C 
ENDBRANCH   4  24
ENDBRANCH  23   4
ENDBRANCH  17  18
ENDBRANCH   6  17
TORSDOF 7
ENDMDL
MODEL 4
REMARK VINA RESULT:      -5.4      2.225      3.756
REMARK  Name = 44716348
REMARK  8 active torsions:
REMARK  status: ('A' for Active; 'I' for Inactive)
REMARK    1  A    between atoms: O_4  and  C_23
REMARK    2  A    between atoms: O_4  and  C_24
REMARK    3  A    between atoms: N_6  and  C_15
REMARK    4  A    between atoms: N_6  and  C_17
REMARK    5  A    between atoms: C_8  and  C_14
REMARK    6  A    between atoms: C_9  and  C_15
REMARK    7  A    between atoms: C_14  and  C_16
REMARK    8  A    between atoms: C_17  and  C_18
REMARK                            x       y       z     vdW  Elec       q    Type
REMARK                         _______ _______ _______ _____ _____    ______ ____
ROOT
ATOM      6  N   UNL     1       0.661  -0.762  23.887  0.00  0.00    -0.311 NA
ATOM     25  H   UNL     1       1.357  -1.449  23.600  0.00  0.00    +0.122 HD
ENDROOT
BRANCH   6  15
ATOM     15  C   UNL     1      -0.655  -1.191  23.441  0.00  0.00    +0.100 C 
BRANCH  15   9
ATOM      5  N   UNL     1      -2.727  -2.396  24.183  0.00  0.00    -0.298 NA
ATOM      7  C   UNL     1      -3.296  -0.667  26.042  0.00  0.00    -0.004 C 
ATOM      8  C   UNL     1      -4.201  -0.466  24.804  0.00  0.00    +0.006 C 
ATOM      9  C   UNL     1      -1.490  -1.694  24.621  0.00  0.00    +0.071 C 
ATOM     10  C   UNL     1      -1.820  -0.558  25.616  0.00  0.00    +0.024 C 
ATOM     11  C   UNL     1      -3.724  -1.419  23.685  0.00  0.00    +0.088 C 
ATOM     12  C   UNL     1      -3.524  -2.109  26.533  0.00  0.00    +0.019 C 
ATOM     13  C   UNL     1      -3.304  -3.085  25.364  0.00  0.00    +0.085 C 
BRANCH   8  14
ATOM     14  C   UNL     1      -4.254   0.983  24.326  0.00  0.00    +0.002 C 
ATOM     16  C   UNL     1      -5.529   1.668  24.777  0.00  0.00    +0.004 C 
ENDBRANCH   8  14
ENDBRANCH  15   9
ENDBRANCH   6  15
BRANCH   6  17
ATOM     17  C   UNL     1       1.001   0.543  23.331  0.00  0.00    +0.116 C 
BRANCH  17  18
ATOM     18  C   UNL     1       0.179   1.645  23.944  0.00  0.00    -0.033 A 
ATOM     19  C   UNL     1      -0.883   2.203  23.232  0.00  0.00    +0.008 A 
ATOM     20  C   UNL     1       0.481   2.108  25.226  0.00  0.00    +0.008 A 
ATOM     21  C   UNL     1      -1.644   3.224  23.802  0.00  0.00    +0.046 A 
ATOM     22  C   UNL     1      -0.280   3.129  25.794  0.00  0.00    +0.046 A 
ATOM     23  C   UNL     1      -1.342   3.687  25.082  0.00  0.00    +0.130 A 
BRANCH  23   4
ATOM      4  O   UNL     1      -2.085   4.683  25.638  0.00  0.00    -0.406 OA
BRANCH   4  24
ATOM      1  F   UNL     1      -3.342   3.058  26.574  0.00  0.00    -0.133 F 
ATOM      2  F   UNL     1      -3.639   5.111  27.261  0.00  0.00    -0.133 F 
ATOM      3  F   UNL     1      -4.331   4.492  25.254  0.00  0.00    -0.133 F 
ATOM     24  C   UNL     1      -3.359   4.352  26.180  0.00  0.00    +0.575 C 
ENDBRANCH   4  24
ENDBRANCH  23   4
ENDBRANCH  17  18
ENDBRANCH   6  17
TORSDOF 7
ENDMDL
MODEL 5
REMARK VINA RESULT:      -4.7      3.289      5.734
REMARK  Name = 44716348
REMARK  8 active torsions:
REMARK  status: ('A' for Active; 'I' for Inactive)
REMARK    1  A    between atoms: O_4  and  C_23
REMARK    2  A    between atoms: O_4  and  C_24
REMARK    3  A    between atoms: N_6  and  C_15
REMARK    4  A    between atoms: N_6  and  C_17
REMARK    5  A    between atoms: C_8  and  C_14
REMARK    6  A    between atoms: C_9  and  C_15
REMARK    7  A    between atoms: C_14  and  C_16
REMARK    8  A    between atoms: C_17  and  C_18
REMARK                            x       y       z     vdW  Elec       q    Type
REMARK                         _______ _______ _______ _____ _____    ______ ____
ROOT
ATOM      6  N   UNL     1      -5.743   2.348  24.760  0.00  0.00    -0.311 NA
ATOM     25  H   UNL     1      -5.106   2.439  23.968  0.00  0.00    +0.122 HD
ENDROOT
BRANCH   6  15
ATOM     15  C   UNL     1      -5.138   2.948  25.938  0.00  0.00    +0.100 C 
BRANCH  15   9
ATOM      5  N   UNL     1      -3.736   3.969  24.125  0.00  0.00    -0.298 NA
ATOM      7  C   UNL     1      -1.677   4.347  25.667  0.00  0.00    -0.004 C 
ATOM      8  C   UNL     1      -1.462   3.122  24.749  0.00  0.00    +0.006 C 
ATOM      9  C   UNL     1      -4.175   4.070  25.543  0.00  0.00    +0.071 C 
ATOM     10  C   UNL     1      -2.959   4.144  26.495  0.00  0.00    +0.024 C 
ATOM     11  C   UNL     1      -2.766   2.860  23.963  0.00  0.00    +0.088 C 
ATOM     12  C   UNL     1      -1.914   5.560  24.747  0.00  0.00    +0.019 C 
ATOM     13  C   UNL     1      -3.054   5.237  23.766  0.00  0.00    +0.085 C 
BRANCH   8  14
ATOM     14  C   UNL     1      -0.999   1.878  25.503  0.00  0.00    +0.002 C 
ATOM     16  C   UNL     1       0.136   2.198  26.457  0.00  0.00    +0.004 C 
ENDBRANCH   8  14
ENDBRANCH  15   9
ENDBRANCH   6  15
BRANCH   6  17
ATOM     17  C   UNL     1      -6.045   0.940  24.987  0.00  0.00    +0.116 C 
BRANCH  17  18
ATOM     18  C   UNL     1      -4.812   0.081  24.903  0.00  0.00    -0.033 A 
ATOM     19  C   UNL     1      -4.146  -0.067  23.686  0.00  0.00    +0.008 A 
ATOM     20  C   UNL     1      -4.334  -0.565  26.043  0.00  0.00    +0.008 A 
ATOM     21  C   UNL     1      -3.002  -0.863  23.609  0.00  0.00    +0.046 A 
ATOM     22  C   UNL     1      -3.191  -1.361  25.966  0.00  0.00    +0.046 A 
ATOM     23  C   UNL     1      -2.526  -1.509  24.749  0.00  0.00    +0.130 A 
BRANCH  23   4
ATOM      4  O   UNL     1      -1.410  -2.286  24.674  0.00  0.00    -0.406 OA
BRANCH   4  24
ATOM      1  F   UNL     1       0.485  -1.085  24.423  0.00  0.00    -0.133 F 
ATOM      2  F   UNL     1      -0.513  -1.034  26.366  0.00  0.00    -0.133 F 
ATOM      3  F   UNL     1       0.552  -2.854  25.704  0.00  0.00    -0.133 F 
ATOM     24  C   UNL     1      -0.223  -1.822  25.309  0.00  0.00    +0.575 C 
ENDBRANCH   4  24
ENDBRANCH  23   4
ENDBRANCH  17  18
ENDBRANCH   6  17
TORSDOF 7
ENDMDL
MODEL 6
REMARK VINA RESULT:      -4.6      2.950      4.995
REMARK  Name = 44716348
REMARK  8 active torsions:
REMARK  status: ('A' for Active; 'I' for Inactive)
REMARK    1  A    between atoms: O_4  and  C_23
REMARK    2  A    between atoms: O_4  and  C_24
REMARK    3  A    between atoms: N_6  and  C_15
REMARK    4  A    between atoms: N_6  and  C_17
REMARK    5  A    between atoms: C_8  and  C_14
REMARK    6  A    between atoms: C_9  and  C_15
REMARK    7  A    between atoms: C_14  and  C_16
REMARK    8  A    between atoms: C_17  and  C_18
REMARK                            x       y       z     vdW  Elec       q    Type
REMARK                         _______ _______ _______ _____ _____    ______ ____
ROOT
ATOM      6  N   UNL     1      -2.374   4.997  25.144  0.00  0.00    -0.311 NA
ATOM     25  H   UNL     1      -2.722   4.765  26.074  0.00  0.00    +0.122 HD
ENDROOT
BRANCH   6  15
ATOM     15  C   UNL     1      -3.121   4.248  24.147  0.00  0.00    +0.100 C 
BRANCH  15   9
ATOM      5  N   UNL     1      -4.231   3.009  26.025  0.00  0.00    -0.298 NA
ATOM      7  C   UNL     1      -5.734   1.585  24.450  0.00  0.00    -0.004 C 
ATOM      8  C   UNL     1      -4.546   0.751  24.983  0.00  0.00    +0.006 C 
ATOM      9  C   UNL     1      -4.432   3.720  24.734  0.00  0.00    +0.071 C 
ATOM     10  C   UNL     1      -5.196   2.832  23.725  0.00  0.00    +0.024 C 
ATOM     11  C   UNL     1      -3.613   1.682  25.791  0.00  0.00    +0.088 C 
ATOM     12  C   UNL     1      -6.522   2.076  25.679  0.00  0.00    +0.019 C 
ATOM     13  C   UNL     1      -5.563   2.797  26.643  0.00  0.00    +0.085 C 
BRANCH   8  14
ATOM     14  C   UNL     1      -3.788   0.011  23.883  0.00  0.00    +0.002 C 
ATOM     16  C   UNL     1      -4.149  -1.461  23.855  0.00  0.00    +0.004 C 
ENDBRANCH   8  14
ENDBRANCH  15   9
ENDBRANCH   6  15
BRANCH   6  17
ATOM     17  C   UNL     1      -0.949   4.696  25.065  0.00  0.00    +0.116 C 
BRANCH  17  18
ATOM     18  C   UNL     1      -0.698   3.225  24.866  0.00  0.00    -0.033 A 
ATOM     19  C   UNL     1      -0.814   2.663  23.595  0.00  0.00    +0.008 A 
ATOM     20  C   UNL     1      -0.348   2.425  25.954  0.00  0.00    +0.008 A 
ATOM     21  C   UNL     1      -0.581   1.299  23.411  0.00  0.00    +0.046 A 
ATOM     22  C   UNL     1      -0.115   1.062  25.770  0.00  0.00    +0.046 A 
ATOM     23  C   UNL     1      -0.231   0.500  24.499  0.00  0.00    +0.130 A 
BRANCH  23   4
ATOM      4  O   UNL     1      -0.003  -0.831  24.320  0.00  0.00    -0.406 OA
BRANCH   4  24
ATOM      1  F   UNL     1       0.257  -2.376  25.945  0.00  0.00    -0.133 F 
ATOM      2  F   UNL     1      -1.525  -1.111  26.004  0.00  0.00    -0.133 F 
ATOM      3  F   UNL     1      -1.325  -2.691  24.470  0.00  0.00    -0.133 F 
ATOM     24  C   UNL     1      -0.667  -1.750  25.180  0.00  0.00    +0.575 C 
ENDBRANCH   4  24
ENDBRANCH  23   4
ENDBRANCH  17  18
ENDBRANCH   6  17
TORSDOF 7
ENDMDL
MODEL 7
REMARK VINA RESULT:      -4.2      1.787      3.188
REMARK  Name = 44716348
REMARK  8 active torsions:
REMARK  status: ('A' for Active; 'I' for Inactive)
REMARK    1  A    between atoms: O_4  and  C_23
REMARK    2  A    between atoms: O_4  and  C_24
REMARK    3  A    between atoms: N_6  and  C_15
REMARK    4  A    between atoms: N_6  and  C_17
REMARK    5  A    between atoms: C_8  and  C_14
REMARK    6  A    between atoms: C_9  and  C_15
REMARK    7  A    between atoms: C_14  and  C_16
REMARK    8  A    between atoms: C_17  and  C_18
REMARK                            x       y       z     vdW  Elec       q    Type
REMARK                         _______ _______ _______ _____ _____    ______ ____
ROOT
ATOM      6  N   UNL     1       0.263   0.434  23.658  0.00  0.00    -0.311 NA
ATOM     25  H   UNL     1      -0.246   0.561  22.783  0.00  0.00    +0.122 HD
ENDROOT
BRANCH   6  15
ATOM     15  C   UNL     1      -0.514  -0.412  24.550  0.00  0.00    +0.100 C 
BRANCH  15   9
ATOM      5  N   UNL     1      -2.673  -0.397  25.827  0.00  0.00    -0.298 NA
ATOM      7  C   UNL     1      -4.127  -0.969  23.747  0.00  0.00    -0.004 C 
ATOM      8  C   UNL     1      -3.935  -2.213  24.646  0.00  0.00    +0.006 C 
ATOM      9  C   UNL     1      -1.977   0.035  24.586  0.00  0.00    +0.071 C 
ATOM     10  C   UNL     1      -2.748  -0.427  23.328  0.00  0.00    +0.024 C 
ATOM     11  C   UNL     1      -2.951  -1.853  25.782  0.00  0.00    +0.088 C 
ATOM     12  C   UNL     1      -4.798   0.112  24.616  0.00  0.00    +0.019 C 
ATOM     13  C   UNL     1      -3.970   0.319  25.897  0.00  0.00    +0.085 C 
BRANCH   8  14
ATOM     14  C   UNL     1      -3.478  -3.449  23.876  0.00  0.00    +0.002 C 
ATOM     16  C   UNL     1      -1.968  -3.576  23.878  0.00  0.00    +0.004 C 
ENDBRANCH   8  14
ENDBRANCH  15   9
ENDBRANCH   6  15
BRANCH   6  17
ATOM     17  C   UNL     1       0.524   1.733  24.266  0.00  0.00    +0.116 C 
BRANCH  17  18
ATOM     18  C   UNL     1      -0.749   2.476  24.570  0.00  0.00    -0.033 A 
ATOM     19  C   UNL     1      -1.680   2.710  23.557  0.00  0.00    +0.008 A 
ATOM     20  C   UNL     1      -0.999   2.930  25.865  0.00  0.00    +0.008 A 
ATOM     21  C   UNL     1      -2.860   3.398  23.840  0.00  0.00    +0.046 A 
ATOM     22  C   UNL     1      -2.178   3.619  26.147  0.00  0.00    +0.046 A 
ATOM     23  C   UNL     1      -3.108   3.853  25.134  0.00  0.00    +0.130 A 
BRANCH  23   4
ATOM      4  O   UNL     1      -4.260   4.524  25.411  0.00  0.00    -0.406 OA
BRANCH   4  24
ATOM      1  F   UNL     1      -6.503   4.632  25.644  0.00  0.00    -0.133 F 
ATOM      2  F   UNL     1      -5.669   2.989  24.468  0.00  0.00    -0.133 F 
ATOM      3  F   UNL     1      -5.439   3.020  26.667  0.00  0.00    -0.133 F 
ATOM     24  C   UNL     1      -5.462   3.774  25.547  0.00  0.00    +0.575 C 
ENDBRANCH   4  24
ENDBRANCH  23   4
ENDBRANCH  17  18
ENDBRANCH   6  17
TORSDOF 7
ENDMDL
MODEL 8
REMARK VINA RESULT:      -4.1      4.419      6.801
REMARK  Name = 44716348
REMARK  8 active torsions:
REMARK  status: ('A' for Active; 'I' for Inactive)
REMARK    1  A    between atoms: O_4  and  C_23
REMARK    2  A    between atoms: O_4  and  C_24
REMARK    3  A    between atoms: N_6  and  C_15
REMARK    4  A    between atoms: N_6  and  C_17
REMARK    5  A    between atoms: C_8  and  C_14
REMARK    6  A    between atoms: C_9  and  C_15
REMARK    7  A    between atoms: C_14  and  C_16
REMARK    8  A    between atoms: C_17  and  C_18
REMARK                            x       y       z     vdW  Elec       q    Type
REMARK                         _______ _______ _______ _____ _____    ______ ____
ROOT
ATOM      6  N   UNL     1      -3.562  -1.142  24.870  0.00  0.00    -0.311 NA
ATOM     25  H   UNL     1      -3.524  -1.943  24.241  0.00  0.00    +0.122 HD
ENDROOT
BRANCH   6  15
ATOM     15  C   UNL     1      -3.655   0.082  24.090  0.00  0.00    +0.100 C 
BRANCH  15   9
ATOM      5  N   UNL     1      -5.035   2.169  23.915  0.00  0.00    -0.298 NA
ATOM      7  C   UNL     1      -3.915   3.310  25.967  0.00  0.00    -0.004 C 
ATOM      8  C   UNL     1      -3.374   3.899  24.644  0.00  0.00    +0.006 C 
ATOM      9  C   UNL     1      -4.480   1.137  24.831  0.00  0.00    +0.071 C 
ATOM     10  C   UNL     1      -3.679   1.788  25.981  0.00  0.00    +0.024 C 
ATOM     11  C   UNL     1      -3.963   3.090  23.467  0.00  0.00    +0.088 C 
ATOM     12  C   UNL     1      -5.439   3.535  25.968  0.00  0.00    +0.019 C 
ATOM     13  C   UNL     1      -6.037   2.960  24.672  0.00  0.00    +0.085 C 
BRANCH   8  14
ATOM     14  C   UNL     1      -1.849   3.949  24.585  0.00  0.00    +0.002 C 
ATOM     16  C   UNL     1      -1.320   5.284  25.072  0.00  0.00    +0.004 C 
ENDBRANCH   8  14
ENDBRANCH  15   9
ENDBRANCH   6  15
BRANCH   6  17
ATOM     17  C   UNL     1      -2.379  -1.130  25.723  0.00  0.00    +0.116 C 
BRANCH  17  18
ATOM     18  C   UNL     1      -1.197  -0.506  25.031  0.00  0.00    -0.033 A 
ATOM     19  C   UNL     1      -0.553  -1.186  23.997  0.00  0.00    +0.008 A 
ATOM     20  C   UNL     1      -0.746   0.755  25.425  0.00  0.00    +0.008 A 
ATOM     21  C   UNL     1       0.543  -0.606  23.357  0.00  0.00    +0.046 A 
ATOM     22  C   UNL     1       0.350   1.334  24.785  0.00  0.00    +0.046 A 
ATOM     23  C   UNL     1       0.993   0.654  23.751  0.00  0.00    +0.130 A 
BRANCH  23   4
ATOM      4  O   UNL     1       2.062   1.220  23.126  0.00  0.00    -0.406 OA
BRANCH   4  24
ATOM      1  F   UNL     1       2.437  -0.013  21.272  0.00  0.00    -0.133 F 
ATOM      2  F   UNL     1       4.138   1.007  22.190  0.00  0.00    -0.133 F 
ATOM      3  F   UNL     1       3.224  -0.750  23.173  0.00  0.00    -0.133 F 
ATOM     24  C   UNL     1       2.980   0.365  22.452  0.00  0.00    +0.575 C 
ENDBRANCH   4  24
ENDBRANCH  23   4
ENDBRANCH  17  18
ENDBRANCH   6  17
TORSDOF 7
ENDMDL
MODEL 9
REMARK VINA RESULT:      -4.1      1.611      4.094
REMARK  Name = 44716348
REMARK  8 active torsions:
REMARK  status: ('A' for Active; 'I' for Inactive)
REMARK    1  A    between atoms: O_4  and  C_23
REMARK    2  A    between atoms: O_4  and  C_24
REMARK    3  A    between atoms: N_6  and  C_15
REMARK    4  A    between atoms: N_6  and  C_17
REMARK    5  A    between atoms: C_8  and  C_14
REMARK    6  A    between atoms: C_9  and  C_15
REMARK    7  A    between atoms: C_14  and  C_16
REMARK    8  A    between atoms: C_17  and  C_18
REMARK                            x       y       z     vdW  Elec       q    Type
REMARK                         _______ _______ _______ _____ _____    ______ ____
ROOT
ATOM      6  N   UNL     1       0.125  -1.279  24.928  0.00  0.00    -0.311 NA
ATOM     25  H   UNL     1       0.155  -0.868  25.860  0.00  0.00    +0.122 HD
ENDROOT
BRANCH   6  15
ATOM     15  C   UNL     1       0.009  -0.222  23.936  0.00  0.00    +0.100 C 
BRANCH  15   9
ATOM      5  N   UNL     1      -0.465   1.397  25.794  0.00  0.00    -0.298 NA
ATOM      7  C   UNL     1      -0.590   3.462  24.217  0.00  0.00    -0.004 C 
ATOM      8  C   UNL     1      -2.004   3.004  24.641  0.00  0.00    +0.006 C 
ATOM      9  C   UNL     1       0.322   1.141  24.557  0.00  0.00    +0.071 C 
ATOM     10  C   UNL     1       0.143   2.290  23.539  0.00  0.00    +0.024 C 
ATOM     11  C   UNL     1      -1.876   1.695  25.453  0.00  0.00    +0.088 C 
ATOM     12  C   UNL     1       0.179   3.793  25.511  0.00  0.00    +0.019 C 
ATOM     13  C   UNL     1       0.111   2.588  26.464  0.00  0.00    +0.085 C 
BRANCH   8  14
ATOM     14  C   UNL     1      -2.964   2.845  23.464  0.00  0.00    +0.002 C 
ATOM     16  C   UNL     1      -4.073   3.877  23.510  0.00  0.00    +0.004 C 
ENDBRANCH   8  14
ENDBRANCH  15   9
ENDBRANCH   6  15
BRANCH   6  17
ATOM     17  C   UNL     1      -0.996  -2.207  24.837  0.00  0.00    +0.116 C 
BRANCH  17  18
ATOM     18  C   UNL     1      -2.320  -1.490  24.860  0.00  0.00    -0.033 A 
ATOM     19  C   UNL     1      -2.958  -1.241  26.076  0.00  0.00    +0.008 A 
ATOM     20  C   UNL     1      -2.908  -1.074  23.665  0.00  0.00    +0.008 A 
ATOM     21  C   UNL     1      -4.184  -0.576  26.096  0.00  0.00    +0.046 A 
ATOM     22  C   UNL     1      -4.134  -0.410  23.686  0.00  0.00    +0.046 A 
ATOM     23  C   UNL     1      -4.772  -0.161  24.902  0.00  0.00    +0.130 A 
BRANCH  23   4
ATOM      4  O   UNL     1      -5.969   0.488  24.922  0.00  0.00    -0.406 OA
BRANCH   4  24
ATOM      1  F   UNL     1      -6.731   2.613  24.934  0.00  0.00    -0.133 F 
ATOM      2  F   UNL     1      -6.766   1.497  26.813  0.00  0.00    -0.133 F 
ATOM      3  F   UNL     1      -4.848   2.190  25.959  0.00  0.00    -0.133 F 
ATOM     24  C   UNL     1      -6.069   1.692  25.673  0.00  0.00    +0.575 C 
ENDBRANCH   4  24
ENDBRANCH  23   4
ENDBRANCH  17  18
ENDBRANCH   6  17
TORSDOF 7
ENDMDL
MODEL 10
REMARK VINA RESULT:      -4.0      4.977      7.415
REMARK  Name = 44716348
REMARK  8 active torsions:
REMARK  status: ('A' for Active; 'I' for Inactive)
REMARK    1  A    between atoms: O_4  and  C_23
REMARK    2  A    between atoms: O_4  and  C_24
REMARK    3  A    between atoms: N_6  and  C_15
REMARK    4  A    between atoms: N_6  and  C_17
REMARK    5  A    between atoms: C_8  and  C_14
REMARK    6  A    between atoms: C_9  and  C_15
REMARK    7  A    between atoms: C_14  and  C_16
REMARK    8  A    between atoms: C_17  and  C_18
REMARK                            x       y       z     vdW  Elec       q    Type
REMARK                         _______ _______ _______ _____ _____    ______ ____
ROOT
ATOM      6  N   UNL     1      -1.463  -0.149  24.752  0.00  0.00    -0.311 NA
ATOM     25  H   UNL     1      -1.712  -1.122  24.930  0.00  0.00    +0.122 HD
ENDROOT
BRANCH   6  15
ATOM     15  C   UNL     1      -2.570   0.712  25.138  0.00  0.00    +0.100 C 
BRANCH  15   9
ATOM      5  N   UNL     1      -2.194   3.093  25.833  0.00  0.00    -0.298 NA
ATOM      7  C   UNL     1      -3.825   4.069  24.057  0.00  0.00    -0.004 C 
ATOM      8  C   UNL     1      -4.475   4.062  25.460  0.00  0.00    +0.006 C 
ATOM      9  C   UNL     1      -2.319   2.153  24.687  0.00  0.00    +0.071 C 
ATOM     10  C   UNL     1      -3.395   2.637  23.689  0.00  0.00    +0.024 C 
ATOM     11  C   UNL     1      -3.522   3.343  26.442  0.00  0.00    +0.088 C 
ATOM     12  C   UNL     1      -2.542   4.917  24.163  0.00  0.00    +0.019 C 
ATOM     13  C   UNL     1      -1.673   4.381  25.314  0.00  0.00    +0.085 C 
BRANCH   8  14
ATOM     14  C   UNL     1      -5.870   3.443  25.474  0.00  0.00    +0.002 C 
ATOM     16  C   UNL     1      -5.858   2.064  26.105  0.00  0.00    +0.004 C 
ENDBRANCH   8  14
ENDBRANCH  15   9
ENDBRANCH   6  15
BRANCH   6  17
ATOM     17  C   UNL     1      -1.134   0.022  23.342  0.00  0.00    +0.116 C 
BRANCH  17  18
ATOM     18  C   UNL     1       0.344   0.216  23.132  0.00  0.00    -0.033 A 
ATOM     19  C   UNL     1       1.023  -0.558  22.190  0.00  0.00    +0.008 A 
ATOM     20  C   UNL     1       1.034   1.172  23.878  0.00  0.00    +0.008 A 
ATOM     21  C   UNL     1       2.393  -0.377  21.996  0.00  0.00    +0.046 A 
ATOM     22  C   UNL     1       2.403   1.352  23.684  0.00  0.00    +0.046 A 
ATOM     23  C   UNL     1       3.082   0.578  22.743  0.00  0.00    +0.130 A 
BRANCH  23   4
ATOM      4  O   UNL     1       4.419   0.755  22.553  0.00  0.00    -0.406 OA
BRANCH   4  24
ATOM      1  F   UNL     1       5.589   0.812  24.482  0.00  0.00    -0.133 F 
ATOM      2  F   UNL     1       4.772  -1.108  23.831  0.00  0.00    -0.133 F 
ATOM      3  F   UNL     1       6.485  -0.202  22.766  0.00  0.00    -0.133 F 
ATOM     24  C   UNL     1       5.319   0.048  23.399  0.00  0.00    +0.575 C 
ENDBRANCH   4  24
ENDBRANCH  23   4
ENDBRANCH  17  18
ENDBRANCH   6  17
TORSDOF 7
ENDMDL
