MODEL 1
REMARK VINA RESULT:      -4.2      0.000      0.000
REMARK  Name = 28961236
REMARK  10 active torsions:
REMARK  status: ('A' for Active; 'I' for Inactive)
REMARK    1  A    between atoms: O_4  and  C_10
REMARK    2  A    between atoms: O_5  and  C_17
REMARK    3  A    between atoms: N_6  and  C_8
REMARK    4  A    between atoms: N_7  and  C_14
REMARK    5  A    between atoms: N_7  and  C_18
REMARK    6  A    between atoms: N_7  and  C_19
REMARK    7  A    between atoms: C_9  and  C_14
REMARK    8  A    between atoms: C_11  and  C_17
REMARK    9  A    between atoms: C_18  and  C_20
REMARK   10  A    between atoms: C_19  and  C_21
REMARK                            x       y       z     vdW  Elec       q    Type
REMARK                         _______ _______ _______ _____ _____    ______ ____
ROOT
ATOM      7  N   UNL     1       0.207   0.430  23.739  0.00  0.00    -0.291 NA
ENDROOT
BRANCH   7  14
ATOM     14  C   UNL     1      -1.109   0.887  23.316  0.00  0.00    +0.118 C 
BRANCH  14   9
ATOM      3  O   UNL     1      -1.370  -1.477  23.561  0.00  0.00    -0.366 OA
ATOM      8  C   UNL     1      -3.207  -0.212  24.395  0.00  0.00    +0.118 C 
ATOM      9  C   UNL     1      -2.112  -0.260  23.321  0.00  0.00    +0.152 C 
ATOM     10  C   UNL     1      -2.612  -1.035  25.527  0.00  0.00    +0.165 C 
ATOM     11  C   UNL     1      -1.894  -2.123  24.737  0.00  0.00    +0.174 C 
BRANCH   8   6
ATOM      6  N   UNL     1      -3.681   1.111  24.772  0.00  0.00    -0.295 NA
ATOM     12  C   UNL     1      -3.712   2.037  23.640  0.00  0.00    +0.085 C 
ATOM     13  C   UNL     1      -5.050   1.090  25.283  0.00  0.00    +0.085 C 
ATOM     15  C   UNL     1      -4.577   3.178  24.154  0.00  0.00    +0.017 C 
ATOM     16  C   UNL     1      -5.453   2.557  25.238  0.00  0.00    +0.017 C 
ENDBRANCH   8   6
BRANCH  10   4
ATOM      4  O   UNL     1      -1.680  -0.278  26.288  0.00  0.00    -0.388 OA
ATOM     32  H   UNL     1      -1.619   0.605  25.886  0.00  0.00    +0.210 HD
ENDBRANCH  10   4
BRANCH  11  17
ATOM     17  C   UNL     1      -0.763  -2.823  25.469  0.00  0.00    +0.190 C 
BRANCH  17   5
ATOM      5  O   UNL     1       0.333  -1.929  25.580  0.00  0.00    -0.392 OA
ATOM     33  H   UNL     1       1.143  -2.455  25.470  0.00  0.00    +0.210 HD
ENDBRANCH  17   5
ENDBRANCH  11  17
ENDBRANCH  14   9
ENDBRANCH   7  14
BRANCH   7  18
ATOM     18  C   UNL     1       1.004   0.003  22.586  0.00  0.00    +0.120 C 
BRANCH  18  20
ATOM      1  F   UNL     1       6.505  -0.190  23.789  0.00  0.00    -0.205 F 
ATOM     20  C   UNL     1       2.473  -0.048  22.908  0.00  0.00    -0.033 A 
ATOM     22  C   UNL     1       3.286   1.051  22.634  0.00  0.00    +0.008 A 
ATOM     24  C   UNL     1       3.023  -1.197  23.479  0.00  0.00    +0.008 A 
ATOM     26  C   UNL     1       4.648   1.004  22.932  0.00  0.00    +0.038 A 
ATOM     28  C   UNL     1       4.385  -1.244  23.777  0.00  0.00    +0.038 A 
ATOM     30  C   UNL     1       5.198  -0.143  23.503  0.00  0.00    +0.123 A 
ENDBRANCH  18  20
ENDBRANCH   7  18
BRANCH   7  19
ATOM     19  C   UNL     1       0.910   1.484  24.476  0.00  0.00    +0.120 C 
BRANCH  19  21
ATOM      2  F   UNL     1      -2.538   5.714  25.878  0.00  0.00    -0.205 F 
ATOM     21  C   UNL     1      -0.011   2.615  24.850  0.00  0.00    -0.033 A 
ATOM     23  C   UNL     1      -0.797   2.522  25.999  0.00  0.00    +0.008 A 
ATOM     25  C   UNL     1      -0.079   3.755  24.050  0.00  0.00    +0.008 A 
ATOM     27  C   UNL     1      -1.651   3.569  26.347  0.00  0.00    +0.038 A 
ATOM     29  C   UNL     1      -0.933   4.801  24.397  0.00  0.00    +0.038 A 
ATOM     31  C   UNL     1      -1.719   4.709  25.545  0.00  0.00    +0.123 A 
ENDBRANCH  19  21
ENDBRANCH   7  19
TORSDOF 10
ENDMDL
MODEL 2
REMARK VINA RESULT:      -3.1      1.156      5.021
REMARK  Name = 28961236
REMARK  10 active torsions:
REMARK  status: ('A' for Active; 'I' for Inactive)
REMARK    1  A    between atoms: O_4  and  C_10
REMARK    2  A    between atoms: O_5  and  C_17
REMARK    3  A    between atoms: N_6  and  C_8
REMARK    4  A    between atoms: N_7  and  C_14
REMARK    5  A    between atoms: N_7  and  C_18
REMARK    6  A    between atoms: N_7  and  C_19
REMARK    7  A    between atoms: C_9  and  C_14
REMARK    8  A    between atoms: C_11  and  C_17
REMARK    9  A    between atoms: C_18  and  C_20
REMARK   10  A    between atoms: C_19  and  C_21
REMARK                            x       y       z     vdW  Elec       q    Type
REMARK                         _______ _______ _______ _____ _____    ______ ____
ROOT
ATOM      7  N   UNL     1      -0.019   0.503  23.511  0.00  0.00    -0.291 NA
ENDROOT
BRANCH   7  14
ATOM     14  C   UNL     1      -1.157   0.096  24.322  0.00  0.00    +0.118 C 
BRANCH  14   9
ATOM      3  O   UNL     1      -2.438  -1.761  23.533  0.00  0.00    -0.366 OA
ATOM      8  C   UNL     1      -3.709   0.230  23.828  0.00  0.00    +0.118 C 
ATOM      9  C   UNL     1      -2.330  -0.323  23.445  0.00  0.00    +0.152 C 
ATOM     10  C   UNL     1      -4.282  -0.864  24.716  0.00  0.00    +0.165 C 
ATOM     11  C   UNL     1      -3.754  -2.107  24.007  0.00  0.00    +0.174 C 
BRANCH   8   6
ATOM      6  N   UNL     1      -3.729   1.568  24.402  0.00  0.00    -0.295 NA
ATOM     12  C   UNL     1      -3.682   2.614  23.380  0.00  0.00    +0.085 C 
ATOM     13  C   UNL     1      -4.950   1.832  25.160  0.00  0.00    +0.085 C 
ATOM     15  C   UNL     1      -4.102   3.859  24.147  0.00  0.00    +0.017 C 
ATOM     16  C   UNL     1      -4.931   3.345  25.320  0.00  0.00    +0.017 C 
ENDBRANCH   8   6
BRANCH  10   4
ATOM      4  O   UNL     1      -3.763  -0.789  26.037  0.00  0.00    -0.388 OA
ATOM     32  H   UNL     1      -3.308   0.065  26.127  0.00  0.00    +0.210 HD
ENDBRANCH  10   4
BRANCH  11  17
ATOM     17  C   UNL     1      -3.666  -3.358  24.862  0.00  0.00    +0.190 C 
BRANCH  17   5
ATOM      5  O   UNL     1      -2.477  -3.303  25.633  0.00  0.00    -0.392 OA
ATOM     33  H   UNL     1      -1.941  -2.573  25.281  0.00  0.00    +0.210 HD
ENDBRANCH  17   5
ENDBRANCH  11  17
ENDBRANCH  14   9
ENDBRANCH   7  14
BRANCH   7  18
ATOM     18  C   UNL     1       0.817   1.464  24.235  0.00  0.00    +0.120 C 
BRANCH  18  20
ATOM      1  F   UNL     1      -2.073   6.072  25.706  0.00  0.00    -0.205 F 
ATOM     20  C   UNL     1       0.044   2.694  24.628  0.00  0.00    -0.033 A 
ATOM     22  C   UNL     1       0.059   3.820  23.804  0.00  0.00    +0.008 A 
ATOM     24  C   UNL     1      -0.685   2.711  25.817  0.00  0.00    +0.008 A 
ATOM     26  C   UNL     1      -0.656   4.961  24.168  0.00  0.00    +0.038 A 
ATOM     28  C   UNL     1      -1.401   3.852  26.181  0.00  0.00    +0.038 A 
ATOM     30  C   UNL     1      -1.386   4.977  25.356  0.00  0.00    +0.123 A 
ENDBRANCH  18  20
ENDBRANCH   7  18
BRANCH   7  19
ATOM     19  C   UNL     1       0.777  -0.661  23.113  0.00  0.00    +0.120 C 
BRANCH  19  21
ATOM      2  F   UNL     1       6.304   0.412  23.316  0.00  0.00    -0.205 F 
ATOM     21  C   UNL     1       2.254  -0.374  23.167  0.00  0.00    -0.033 A 
ATOM     23  C   UNL     1       3.121  -1.292  23.760  0.00  0.00    +0.008 A 
ATOM     25  C   UNL     1       2.756   0.809  22.624  0.00  0.00    +0.008 A 
ATOM     27  C   UNL     1       4.490  -1.026  23.811  0.00  0.00    +0.038 A 
ATOM     29  C   UNL     1       4.124   1.074  22.674  0.00  0.00    +0.038 A 
ATOM     31  C   UNL     1       4.991   0.157  23.268  0.00  0.00    +0.123 A 
ENDBRANCH  19  21
ENDBRANCH   7  19
TORSDOF 10
ENDMDL
MODEL 3
REMARK VINA RESULT:      -2.1      2.621      6.062
REMARK  Name = 28961236
REMARK  10 active torsions:
REMARK  status: ('A' for Active; 'I' for Inactive)
REMARK    1  A    between atoms: O_4  and  C_10
REMARK    2  A    between atoms: O_5  and  C_17
REMARK    3  A    between atoms: N_6  and  C_8
REMARK    4  A    between atoms: N_7  and  C_14
REMARK    5  A    between atoms: N_7  and  C_18
REMARK    6  A    between atoms: N_7  and  C_19
REMARK    7  A    between atoms: C_9  and  C_14
REMARK    8  A    between atoms: C_11  and  C_17
REMARK    9  A    between atoms: C_18  and  C_20
REMARK   10  A    between atoms: C_19  and  C_21
REMARK                            x       y       z     vdW  Elec       q    Type
REMARK                         _______ _______ _______ _____ _____    ______ ____
ROOT
ATOM      7  N   UNL     1      -0.191   0.582  24.649  0.00  0.00    -0.291 NA
ENDROOT
BRANCH   7  14
ATOM     14  C   UNL     1      -1.307   1.499  24.470  0.00  0.00    +0.118 C 
BRANCH  14   9
ATOM      3  O   UNL     1      -0.498   3.556  25.381  0.00  0.00    -0.366 OA
ATOM      8  C   UNL     1      -2.782   3.111  25.885  0.00  0.00    +0.118 C 
ATOM      9  C   UNL     1      -1.410   2.467  25.643  0.00  0.00    +0.152 C 
ATOM     10  C   UNL     1      -2.686   4.419  25.114  0.00  0.00    +0.165 C 
ATOM     11  C   UNL     1      -1.233   4.796  25.379  0.00  0.00    +0.174 C 
BRANCH   8   6
ATOM      6  N   UNL     1      -3.943   2.290  25.571  0.00  0.00    -0.295 NA
ATOM     12  C   UNL     1      -5.130   2.692  26.326  0.00  0.00    +0.085 C 
ATOM     13  C   UNL     1      -4.334   2.389  24.167  0.00  0.00    +0.085 C 
ATOM     15  C   UNL     1      -6.260   1.999  25.578  0.00  0.00    +0.017 C 
ATOM     16  C   UNL     1      -5.735   1.796  24.160  0.00  0.00    +0.017 C 
ENDBRANCH   8   6
BRANCH  10   4
ATOM      4  O   UNL     1      -2.901   4.222  23.723  0.00  0.00    -0.388 OA
ATOM     32  H   UNL     1      -2.811   5.084  23.285  0.00  0.00    +0.210 HD
ENDBRANCH  10   4
BRANCH  11  17
ATOM     17  C   UNL     1      -0.611   5.744  24.371  0.00  0.00    +0.190 C 
BRANCH  17   5
ATOM      5  O   UNL     1       0.008   4.983  23.346  0.00  0.00    -0.392 OA
ATOM     33  H   UNL     1       0.137   5.577  22.587  0.00  0.00    +0.210 HD
ENDBRANCH  17   5
ENDBRANCH  11  17
ENDBRANCH  14   9
ENDBRANCH   7  14
BRANCH   7  18
ATOM     18  C   UNL     1      -0.570  -0.534  25.518  0.00  0.00    +0.120 C 
BRANCH  18  20
ATOM      1  F   UNL     1      -5.082  -3.282  23.556  0.00  0.00    -0.205 F 
ATOM     20  C   UNL     1      -1.775  -1.268  24.993  0.00  0.00    -0.033 A 
ATOM     22  C   UNL     1      -3.044  -0.703  25.115  0.00  0.00    +0.008 A 
ATOM     24  C   UNL     1      -1.624  -2.516  24.386  0.00  0.00    +0.008 A 
ATOM     26  C   UNL     1      -4.161  -1.382  24.629  0.00  0.00    +0.038 A 
ATOM     28  C   UNL     1      -2.740  -3.195  23.900  0.00  0.00    +0.038 A 
ATOM     30  C   UNL     1      -4.010  -2.628  24.022  0.00  0.00    +0.123 A 
ENDBRANCH  18  20
ENDBRANCH   7  18
BRANCH   7  19
ATOM     19  C   UNL     1       0.279   0.079  23.355  0.00  0.00    +0.120 C 
BRANCH  19  21
ATOM      2  F   UNL     1       5.904   0.020  23.046  0.00  0.00    -0.205 F 
ATOM     21  C   UNL     1       1.782   0.064  23.272  0.00  0.00    -0.033 A 
ATOM     23  C   UNL     1       2.484  -1.107  23.559  0.00  0.00    +0.008 A 
ATOM     25  C   UNL     1       2.473   1.219  22.909  0.00  0.00    +0.008 A 
ATOM     27  C   UNL     1       3.877  -1.122  23.484  0.00  0.00    +0.038 A 
ATOM     29  C   UNL     1       3.866   1.205  22.833  0.00  0.00    +0.038 A 
ATOM     31  C   UNL     1       4.568   0.035  23.120  0.00  0.00    +0.123 A 
ENDBRANCH  19  21
ENDBRANCH   7  19
TORSDOF 10
ENDMDL
MODEL 4
REMARK VINA RESULT:      -2.0     15.617     17.715
REMARK  Name = 28961236
REMARK  10 active torsions:
REMARK  status: ('A' for Active; 'I' for Inactive)
REMARK    1  A    between atoms: O_4  and  C_10
REMARK    2  A    between atoms: O_5  and  C_17
REMARK    3  A    between atoms: N_6  and  C_8
REMARK    4  A    between atoms: N_7  and  C_14
REMARK    5  A    between atoms: N_7  and  C_18
REMARK    6  A    between atoms: N_7  and  C_19
REMARK    7  A    between atoms: C_9  and  C_14
REMARK    8  A    between atoms: C_11  and  C_17
REMARK    9  A    between atoms: C_18  and  C_20
REMARK   10  A    between atoms: C_19  and  C_21
REMARK                            x       y       z     vdW  Elec       q    Type
REMARK                         _______ _______ _______ _____ _____    ______ ____
ROOT
ATOM      7  N   UNL     1      -5.988  -9.514  12.353  0.00  0.00    -0.291 NA
ENDROOT
BRANCH   7  14
ATOM     14  C   UNL     1      -7.405  -9.192  12.269  0.00  0.00    +0.118 C 
BRANCH  14   9
ATOM      3  O   UNL     1      -8.746 -10.455  13.793  0.00  0.00    -0.366 OA
ATOM      8  C   UNL     1      -9.501 -10.551  11.537  0.00  0.00    +0.118 C 
ATOM      9  C   UNL     1      -8.259 -10.443  12.432  0.00  0.00    +0.152 C 
ATOM     10  C   UNL     1     -10.603  -9.967  12.408  0.00  0.00    +0.165 C 
ATOM     11  C   UNL     1     -10.186 -10.491  13.778  0.00  0.00    +0.174 C 
BRANCH   8   6
ATOM      6  N   UNL     1      -9.388  -9.970  10.207  0.00  0.00    -0.295 NA
ATOM     12  C   UNL     1      -8.771  -8.644  10.229  0.00  0.00    +0.085 C 
ATOM     13  C   UNL     1      -8.545 -10.767   9.319  0.00  0.00    +0.085 C 
ATOM     15  C   UNL     1      -8.403  -8.415   8.771  0.00  0.00    +0.017 C 
ATOM     16  C   UNL     1      -8.258  -9.810   8.172  0.00  0.00    +0.017 C 
ENDBRANCH   8   6
BRANCH  10   4
ATOM      4  O   UNL     1     -10.580  -8.546  12.394  0.00  0.00    -0.388 OA
ATOM     32  H   UNL     1     -11.484  -8.238  12.215  0.00  0.00    +0.210 HD
ENDBRANCH  10   4
BRANCH  11  17
ATOM     17  C   UNL     1     -10.718  -9.710  14.965  0.00  0.00    +0.190 C 
BRANCH  17   5
ATOM      5  O   UNL     1      -9.736  -8.772  15.375  0.00  0.00    -0.392 OA
ATOM     33  H   UNL     1      -9.197  -8.563  14.593  0.00  0.00    +0.210 HD
ENDBRANCH  17   5
ENDBRANCH  11  17
ENDBRANCH  14   9
ENDBRANCH   7  14
BRANCH   7  18
ATOM     18  C   UNL     1      -5.785 -10.781  13.060  0.00  0.00    +0.120 C 
BRANCH  18  20
ATOM      1  F   UNL     1      -4.688  -9.973  18.528  0.00  0.00    -0.205 F 
ATOM     20  C   UNL     1      -5.491 -10.566  14.521  0.00  0.00    -0.033 A 
ATOM     22  C   UNL     1      -6.537 -10.343  15.417  0.00  0.00    +0.008 A 
ATOM     24  C   UNL     1      -4.174 -10.586  14.979  0.00  0.00    +0.008 A 
ATOM     26  C   UNL     1      -6.266 -10.143  16.770  0.00  0.00    +0.038 A 
ATOM     28  C   UNL     1      -3.902 -10.387  16.333  0.00  0.00    +0.038 A 
ATOM     30  C   UNL     1      -4.949 -10.165  17.228  0.00  0.00    +0.123 A 
ENDBRANCH  18  20
ENDBRANCH   7  18
BRANCH   7  19
ATOM     19  C   UNL     1      -5.392  -9.581  11.016  0.00  0.00    +0.120 C 
BRANCH  19  21
ATOM      2  F   UNL     1       0.238  -9.541  11.232  0.00  0.00    -0.205 F 
ATOM     21  C   UNL     1      -3.887  -9.569  11.073  0.00  0.00    -0.033 A 
ATOM     23  C   UNL     1      -3.214 -10.485  11.883  0.00  0.00    +0.008 A 
ATOM     25  C   UNL     1      -3.166  -8.646  10.317  0.00  0.00    +0.008 A 
ATOM     27  C   UNL     1      -1.820 -10.475  11.937  0.00  0.00    +0.038 A 
ATOM     29  C   UNL     1      -1.773  -8.636  10.371  0.00  0.00    +0.038 A 
ATOM     31  C   UNL     1      -1.099  -9.550  11.181  0.00  0.00    +0.123 A 
ENDBRANCH  19  21
ENDBRANCH   7  19
TORSDOF 10
ENDMDL
MODEL 5
REMARK VINA RESULT:      -1.2      3.032      4.928
REMARK  Name = 28961236
REMARK  10 active torsions:
REMARK  status: ('A' for Active; 'I' for Inactive)
REMARK    1  A    between atoms: O_4  and  C_10
REMARK    2  A    between atoms: O_5  and  C_17
REMARK    3  A    between atoms: N_6  and  C_8
REMARK    4  A    between atoms: N_7  and  C_14
REMARK    5  A    between atoms: N_7  and  C_18
REMARK    6  A    between atoms: N_7  and  C_19
REMARK    7  A    between atoms: C_9  and  C_14
REMARK    8  A    between atoms: C_11  and  C_17
REMARK    9  A    between atoms: C_18  and  C_20
REMARK   10  A    between atoms: C_19  and  C_21
REMARK                            x       y       z     vdW  Elec       q    Type
REMARK                         _______ _______ _______ _____ _____    ______ ____
ROOT
ATOM      7  N   UNL     1      -0.830   2.774  26.082  0.00  0.00    -0.291 NA
ENDROOT
BRANCH   7  14
ATOM     14  C   UNL     1      -0.609   1.391  25.685  0.00  0.00    +0.118 C 
BRANCH  14   9
ATOM      3  O   UNL     1       0.700   1.437  23.685  0.00  0.00    -0.366 OA
ATOM      8  C   UNL     1      -1.107  -0.111  23.618  0.00  0.00    +0.118 C 
ATOM      9  C   UNL     1      -0.648   1.246  24.168  0.00  0.00    +0.152 C 
ATOM     10  C   UNL     1       0.201  -0.862  23.424  0.00  0.00    +0.165 C 
ATOM     11  C   UNL     1       1.107   0.268  22.948  0.00  0.00    +0.174 C 
BRANCH   8   6
ATOM      6  N   UNL     1      -2.116  -0.813  24.397  0.00  0.00    -0.295 NA
ATOM     12  C   UNL     1      -3.464  -0.632  23.858  0.00  0.00    +0.085 C 
ATOM     13  C   UNL     1      -1.904  -2.259  24.412  0.00  0.00    +0.085 C 
ATOM     15  C   UNL     1      -4.260  -1.726  24.554  0.00  0.00    +0.017 C 
ATOM     16  C   UNL     1      -3.234  -2.794  24.922  0.00  0.00    +0.017 C 
ENDBRANCH   8   6
BRANCH  10   4
ATOM      4  O   UNL     1       0.681  -1.398  24.650  0.00  0.00    -0.388 OA
ATOM     32  H   UNL     1       1.417  -1.997  24.442  0.00  0.00    +0.210 HD
ENDBRANCH  10   4
BRANCH  11  17
ATOM     17  C   UNL     1       2.594   0.042  23.148  0.00  0.00    +0.190 C 
BRANCH  17   5
ATOM      5  O   UNL     1       3.259   1.294  23.095  0.00  0.00    -0.392 OA
ATOM     33  H   UNL     1       3.715   1.339  22.238  0.00  0.00    +0.210 HD
ENDBRANCH  17   5
ENDBRANCH  11  17
ENDBRANCH  14   9
ENDBRANCH   7  14
BRANCH   7  18
ATOM     18  C   UNL     1       0.441   3.434  26.390  0.00  0.00    +0.120 C 
BRANCH  18  20
ATOM      1  F   UNL     1       2.537   1.742  31.339  0.00  0.00    -0.205 F 
ATOM     20  C   UNL     1       1.002   2.982  27.711  0.00  0.00    -0.033 A 
ATOM     22  C   UNL     1       0.141   2.586  28.735  0.00  0.00    +0.008 A 
ATOM     24  C   UNL     1       2.382   2.959  27.914  0.00  0.00    +0.008 A 
ATOM     26  C   UNL     1       0.659   2.167  29.960  0.00  0.00    +0.038 A 
ATOM     28  C   UNL     1       2.901   2.540  29.139  0.00  0.00    +0.038 A 
ATOM     30  C   UNL     1       2.039   2.144  30.163  0.00  0.00    +0.123 A 
ENDBRANCH  18  20
ENDBRANCH   7  18
BRANCH   7  19
ATOM     19  C   UNL     1      -1.539   3.509  25.030  0.00  0.00    +0.120 C 
BRANCH  19  21
ATOM      2  F   UNL     1      -6.989   2.099  24.805  0.00  0.00    -0.205 F 
ATOM     21  C   UNL     1      -2.995   3.132  24.969  0.00  0.00    -0.033 A 
ATOM     23  C   UNL     1      -3.786   3.222  26.115  0.00  0.00    +0.008 A 
ATOM     25  C   UNL     1      -3.554   2.694  23.769  0.00  0.00    +0.008 A 
ATOM     27  C   UNL     1      -5.136   2.873  26.059  0.00  0.00    +0.038 A 
ATOM     29  C   UNL     1      -4.903   2.345  23.714  0.00  0.00    +0.038 A 
ATOM     31  C   UNL     1      -5.694   2.434  24.858  0.00  0.00    +0.123 A 
ENDBRANCH  19  21
ENDBRANCH   7  19
TORSDOF 10
ENDMDL
MODEL 6
REMARK VINA RESULT:      -1.2      2.691      5.906
REMARK  Name = 28961236
REMARK  10 active torsions:
REMARK  status: ('A' for Active; 'I' for Inactive)
REMARK    1  A    between atoms: O_4  and  C_10
REMARK    2  A    between atoms: O_5  and  C_17
REMARK    3  A    between atoms: N_6  and  C_8
REMARK    4  A    between atoms: N_7  and  C_14
REMARK    5  A    between atoms: N_7  and  C_18
REMARK    6  A    between atoms: N_7  and  C_19
REMARK    7  A    between atoms: C_9  and  C_14
REMARK    8  A    between atoms: C_11  and  C_17
REMARK    9  A    between atoms: C_18  and  C_20
REMARK   10  A    between atoms: C_19  and  C_21
REMARK                            x       y       z     vdW  Elec       q    Type
REMARK                         _______ _______ _______ _____ _____    ______ ____
ROOT
ATOM      7  N   UNL     1      -0.903   1.041  25.249  0.00  0.00    -0.291 NA
ENDROOT
BRANCH   7  14
ATOM     14  C   UNL     1      -2.103   1.795  25.577  0.00  0.00    +0.118 C 
BRANCH  14   9
ATOM      3  O   UNL     1      -4.269   1.127  24.819  0.00  0.00    -0.366 OA
ATOM      8  C   UNL     1      -3.529   3.200  23.913  0.00  0.00    +0.118 C 
ATOM      9  C   UNL     1      -3.072   1.819  24.402  0.00  0.00    +0.152 C 
ATOM     10  C   UNL     1      -4.821   3.424  24.683  0.00  0.00    +0.165 C 
ATOM     11  C   UNL     1      -5.397   2.013  24.683  0.00  0.00    +0.174 C 
BRANCH   8   6
ATOM      6  N   UNL     1      -2.552   4.274  24.016  0.00  0.00    -0.295 NA
ATOM     12  C   UNL     1      -2.247   4.620  25.404  0.00  0.00    +0.085 C 
ATOM     13  C   UNL     1      -1.265   3.918  23.421  0.00  0.00    +0.085 C 
ATOM     15  C   UNL     1      -0.971   5.440  25.279  0.00  0.00    +0.017 C 
ATOM     16  C   UNL     1      -0.328   4.982  23.974  0.00  0.00    +0.017 C 
ENDBRANCH   8   6
BRANCH  10   4
ATOM      4  O   UNL     1      -4.568   3.856  26.014  0.00  0.00    -0.388 OA
ATOM     32  H   UNL     1      -5.391   3.753  26.519  0.00  0.00    +0.210 HD
ENDBRANCH  10   4
BRANCH  11  17
ATOM     17  C   UNL     1      -6.401   1.718  25.783  0.00  0.00    +0.190 C 
BRANCH  17   5
ATOM      5  O   UNL     1      -6.215   2.650  26.836  0.00  0.00    -0.392 OA
ATOM     33  H   UNL     1      -5.633   2.230  27.491  0.00  0.00    +0.210 HD
ENDBRANCH  17   5
ENDBRANCH  11  17
ENDBRANCH  14   9
ENDBRANCH   7  14
BRANCH   7  18
ATOM     18  C   UNL     1      -0.847  -0.206  26.017  0.00  0.00    +0.120 C 
BRANCH  18  20
ATOM      1  F   UNL     1      -4.252  -4.150  23.870  0.00  0.00    -0.205 F 
ATOM     20  C   UNL     1      -1.756  -1.259  25.443  0.00  0.00    -0.033 A 
ATOM     22  C   UNL     1      -3.089  -1.325  25.847  0.00  0.00    +0.008 A 
ATOM     24  C   UNL     1      -1.266  -2.171  24.508  0.00  0.00    +0.008 A 
ATOM     26  C   UNL     1      -3.932  -2.301  25.316  0.00  0.00    +0.038 A 
ATOM     28  C   UNL     1      -2.109  -3.147  23.976  0.00  0.00    +0.038 A 
ATOM     30  C   UNL     1      -3.443  -3.212  24.381  0.00  0.00    +0.123 A 
ENDBRANCH  18  20
ENDBRANCH   7  18
BRANCH   7  19
ATOM     19  C   UNL     1      -0.849   0.752  23.813  0.00  0.00    +0.120 C 
BRANCH  19  21
ATOM      2  F   UNL     1       4.456   0.392  21.948  0.00  0.00    -0.205 F 
ATOM     21  C   UNL     1       0.569   0.655  23.315  0.00  0.00    -0.033 A 
ATOM     23  C   UNL     1       1.539   1.534  23.798  0.00  0.00    +0.008 A 
ATOM     25  C   UNL     1       0.913  -0.312  22.371  0.00  0.00    +0.008 A 
ATOM     27  C   UNL     1       2.853   1.445  23.336  0.00  0.00    +0.038 A 
ATOM     29  C   UNL     1       2.225  -0.401  21.909  0.00  0.00    +0.038 A 
ATOM     31  C   UNL     1       3.195   0.477  22.391  0.00  0.00    +0.123 A 
ENDBRANCH  19  21
ENDBRANCH   7  19
TORSDOF 10
ENDMDL
MODEL 7
REMARK VINA RESULT:      -1.2     16.860     19.214
REMARK  Name = 28961236
REMARK  10 active torsions:
REMARK  status: ('A' for Active; 'I' for Inactive)
REMARK    1  A    between atoms: O_4  and  C_10
REMARK    2  A    between atoms: O_5  and  C_17
REMARK    3  A    between atoms: N_6  and  C_8
REMARK    4  A    between atoms: N_7  and  C_14
REMARK    5  A    between atoms: N_7  and  C_18
REMARK    6  A    between atoms: N_7  and  C_19
REMARK    7  A    between atoms: C_9  and  C_14
REMARK    8  A    between atoms: C_11  and  C_17
REMARK    9  A    between atoms: C_18  and  C_20
REMARK   10  A    between atoms: C_19  and  C_21
REMARK                            x       y       z     vdW  Elec       q    Type
REMARK                         _______ _______ _______ _____ _____    ______ ____
ROOT
ATOM      7  N   UNL     1      13.566  -8.764  30.831  0.00  0.00    -0.291 NA
ENDROOT
BRANCH   7  14
ATOM     14  C   UNL     1      14.487  -8.751  29.704  0.00  0.00    +0.118 C 
BRANCH  14   9
ATOM      3  O   UNL     1      14.694 -10.367  27.954  0.00  0.00    -0.366 OA
ATOM      8  C   UNL     1      16.438 -10.469  29.572  0.00  0.00    +0.118 C 
ATOM      9  C   UNL     1      14.949 -10.162  29.361  0.00  0.00    +0.152 C 
ATOM     10  C   UNL     1      17.041 -10.189  28.204  0.00  0.00    +0.165 C 
ATOM     11  C   UNL     1      15.930 -10.704  27.295  0.00  0.00    +0.174 C 
BRANCH   8   6
ATOM      6  N   UNL     1      17.084  -9.789  30.685  0.00  0.00    -0.295 NA
ATOM     12  C   UNL     1      17.055  -8.334  30.542  0.00  0.00    +0.085 C 
ATOM     13  C   UNL     1      16.426 -10.059  31.962  0.00  0.00    +0.085 C 
ATOM     15  C   UNL     1      17.405  -7.847  31.941  0.00  0.00    +0.017 C 
ATOM     16  C   UNL     1      16.996  -8.983  32.873  0.00  0.00    +0.017 C 
ENDBRANCH   8   6
BRANCH  10   4
ATOM      4  O   UNL     1      17.243  -8.797  27.998  0.00  0.00    -0.388 OA
ATOM     32  H   UNL     1      17.883  -8.696  27.273  0.00  0.00    +0.210 HD
ENDBRANCH  10   4
BRANCH  11  17
ATOM     17  C   UNL     1      15.919 -10.134  25.889  0.00  0.00    +0.190 C 
BRANCH  17   5
ATOM      5  O   UNL     1      15.275  -8.870  25.912  0.00  0.00    -0.392 OA
ATOM     33  H   UNL     1      15.466  -8.436  25.063  0.00  0.00    +0.210 HD
ENDBRANCH  17   5
ENDBRANCH  11  17
ENDBRANCH  14   9
ENDBRANCH   7  14
BRANCH   7  18
ATOM     18  C   UNL     1      12.670  -7.605  30.782  0.00  0.00    +0.120 C 
BRANCH  18  20
ATOM      1  F   UNL     1      15.303  -2.852  32.274  0.00  0.00    -0.205 F 
ATOM     20  C   UNL     1      13.374  -6.336  31.181  0.00  0.00    -0.033 A 
ATOM     22  C   UNL     1      13.145  -5.776  32.437  0.00  0.00    +0.008 A 
ATOM     24  C   UNL     1      14.255  -5.717  30.293  0.00  0.00    +0.008 A 
ATOM     26  C   UNL     1      13.796  -4.600  32.807  0.00  0.00    +0.038 A 
ATOM     28  C   UNL     1      14.907  -4.541  30.662  0.00  0.00    +0.038 A 
ATOM     30  C   UNL     1      14.677  -3.982  31.920  0.00  0.00    +0.123 A 
ENDBRANCH  18  20
ENDBRANCH   7  18
BRANCH   7  19
ATOM     19  C   UNL     1      12.786 -10.004  30.850  0.00  0.00    +0.120 C 
BRANCH  19  21
ATOM      2  F   UNL     1       7.592  -9.187  32.873  0.00  0.00    -0.205 F 
ATOM     21  C   UNL     1      11.398  -9.786  31.391  0.00  0.00    -0.033 A 
ATOM     23  C   UNL     1      10.364 -10.647  31.025  0.00  0.00    +0.008 A 
ATOM     25  C   UNL     1      11.146  -8.723  32.258  0.00  0.00    +0.008 A 
ATOM     27  C   UNL     1       9.077 -10.445  31.525  0.00  0.00    +0.038 A 
ATOM     29  C   UNL     1       9.860  -8.520  32.759  0.00  0.00    +0.038 A 
ATOM     31  C   UNL     1       8.826  -9.381  32.392  0.00  0.00    +0.123 A 
ENDBRANCH  19  21
ENDBRANCH   7  19
TORSDOF 10
ENDMDL
