MODEL 1
REMARK VINA RESULT:      -2.4      0.000      0.000
REMARK  Name = 51138121
REMARK  8 active torsions:
REMARK  status: ('A' for Active; 'I' for Inactive)
REMARK    1  A    between atoms: N_3  and  C_5
REMARK    2  A    between atoms: N_4  and  C_26
REMARK    3  A    between atoms: C_6  and  C_16
REMARK    4  A    between atoms: C_7  and  C_17
REMARK    5  A    between atoms: C_16  and  C_19
REMARK    6  A    between atoms: C_19  and  C_24
REMARK    7  A    between atoms: C_19  and  C_25
REMARK    8  A    between atoms: C_26  and  C_27
REMARK                            x       y       z     vdW  Elec       q    Type
REMARK                         _______ _______ _______ _____ _____    ______ ____
ROOT
ATOM      2  N   UNL     1      -0.090  -0.906  23.567  0.00  0.00    -0.299 NA
ATOM      4  N   UNL     1      -1.850   3.432  25.463  0.00  0.00    -0.343 N 
ATOM      6  C   UNL     1      -1.554  -1.031  23.557  0.00  0.00    +0.085 C 
ATOM      7  C   UNL     1       0.426   0.250  22.848  0.00  0.00    +0.145 C 
ATOM     10  C   UNL     1       0.713   1.417  23.790  0.00  0.00    +0.065 C 
ATOM     11  C   UNL     1      -2.327   0.091  24.258  0.00  0.00    -0.021 A 
ATOM     14  C   UNL     1      -1.791   1.365  24.602  0.00  0.00    +0.008 A 
ATOM     15  C   UNL     1      -0.507   1.989  24.430  0.00  0.00    -0.020 A 
ATOM     18  C   UNL     1      -2.610   2.311  25.230  0.00  0.00    +0.050 A 
ATOM     20  C   UNL     1      -0.586   3.252  24.982  0.00  0.00    +0.090 A 
ATOM     21  C   UNL     1      -3.706  -0.100  24.526  0.00  0.00    +0.006 A 
ATOM     22  C   UNL     1      -3.955   2.086  25.529  0.00  0.00    +0.026 A 
ATOM     23  C   UNL     1      -4.495   0.863  25.152  0.00  0.00    +0.002 A 
ATOM     29  H   UNL     1       0.270  -0.938  24.520  0.00  0.00    +0.123 HD
ENDROOT
BRANCH   7  17
ATOM      1  O   UNL     1       1.795  -0.500  21.042  0.00  0.00    -0.274 OA
ATOM      3  N   UNL     1       2.738  -0.290  23.160  0.00  0.00    -0.311 N 
ATOM     17  C   UNL     1       1.712  -0.213  22.234  0.00  0.00    +0.231 C 
ATOM     30  H   UNL     1       2.567   0.028  24.110  0.00  0.00    +0.149 HD
BRANCH   3   5
ATOM      5  C   UNL     1       4.071  -0.731  22.827  0.00  0.00    +0.073 C 
ATOM      8  C   UNL     1       4.738  -1.439  23.999  0.00  0.00    +0.022 C 
ATOM      9  C   UNL     1       5.008   0.442  22.564  0.00  0.00    +0.022 C 
ATOM     12  C   UNL     1       5.272  -0.310  24.876  0.00  0.00    +0.002 C 
ATOM     13  C   UNL     1       5.485   0.885  23.946  0.00  0.00    +0.002 C 
ENDBRANCH   3   5
ENDBRANCH   7  17
BRANCH   6  16
ATOM     16  C   UNL     1      -1.831  -2.414  24.175  0.00  0.00    +0.026 C 
BRANCH  16  19
ATOM     19  C   UNL     1      -3.263  -2.557  24.700  0.00  0.00    -0.015 C 
ATOM     24  C   UNL     1      -3.226  -3.145  26.113  0.00  0.00    +0.007 C 
ATOM     25  C   UNL     1      -4.137  -3.431  23.800  0.00  0.00    +0.007 C 
ENDBRANCH  16  19
ENDBRANCH   6  16
BRANCH   4  26
ATOM     26  C   UNL     1      -2.310   4.644  26.106  0.00  0.00    +0.148 C 
BRANCH  26  27
ATOM     27  C   UNL     1      -2.056   5.867  25.275  0.00  0.00    -0.013 C 
ATOM     28  C   UNL     1      -0.953   6.056  24.543  0.00  0.00    +0.005 C 
ENDBRANCH  26  27
ENDBRANCH   4  26
TORSDOF 6
ENDMDL
MODEL 2
REMARK VINA RESULT:       1.3      2.312      6.865
REMARK  Name = 51138121
REMARK  8 active torsions:
REMARK  status: ('A' for Active; 'I' for Inactive)
REMARK    1  A    between atoms: N_3  and  C_5
REMARK    2  A    between atoms: N_4  and  C_26
REMARK    3  A    between atoms: C_6  and  C_16
REMARK    4  A    between atoms: C_7  and  C_17
REMARK    5  A    between atoms: C_16  and  C_19
REMARK    6  A    between atoms: C_19  and  C_24
REMARK    7  A    between atoms: C_19  and  C_25
REMARK    8  A    between atoms: C_26  and  C_27
REMARK                            x       y       z     vdW  Elec       q    Type
REMARK                         _______ _______ _______ _____ _____    ______ ____
ROOT
ATOM      2  N   UNL     1      -2.314   0.779  25.157  0.00  0.00    -0.299 NA
ATOM      4  N   UNL     1       2.246   0.397  23.019  0.00  0.00    -0.343 N 
ATOM      6  C   UNL     1      -1.695  -0.416  25.749  0.00  0.00    +0.085 C 
ATOM      7  C   UNL     1      -1.540   2.003  25.308  0.00  0.00    +0.145 C 
ATOM     10  C   UNL     1      -0.708   2.299  24.062  0.00  0.00    +0.065 C 
ATOM     11  C   UNL     1      -0.366  -0.858  25.128  0.00  0.00    -0.021 A 
ATOM     14  C   UNL     1       0.459  -0.050  24.293  0.00  0.00    +0.008 A 
ATOM     15  C   UNL     1       0.368   1.299  23.803  0.00  0.00    -0.020 A 
ATOM     18  C   UNL     1       1.661  -0.571  23.800  0.00  0.00    +0.050 A 
ATOM     20  C   UNL     1       1.482   1.527  23.019  0.00  0.00    +0.090 A 
ATOM     21  C   UNL     1       0.142  -2.140  25.456  0.00  0.00    +0.006 A 
ATOM     22  C   UNL     1       2.122  -1.855  24.097  0.00  0.00    +0.026 A 
ATOM     23  C   UNL     1       1.345  -2.629  24.948  0.00  0.00    +0.002 A 
ATOM     29  H   UNL     1      -2.559   0.616  24.181  0.00  0.00    +0.123 HD
ENDROOT
BRANCH   7  17
ATOM      1  O   UNL     1      -2.232   4.236  25.787  0.00  0.00    -0.274 OA
ATOM      3  N   UNL     1      -3.851   2.633  25.306  0.00  0.00    -0.311 N 
ATOM     17  C   UNL     1      -2.556   3.089  25.490  0.00  0.00    +0.231 C 
ATOM     30  H   UNL     1      -3.995   1.673  25.006  0.00  0.00    +0.149 HD
BRANCH   3   5
ATOM      5  C   UNL     1      -5.011   3.477  25.447  0.00  0.00    +0.073 C 
ATOM      8  C   UNL     1      -5.757   3.196  26.745  0.00  0.00    +0.022 C 
ATOM      9  C   UNL     1      -6.062   3.181  24.384  0.00  0.00    +0.022 C 
ATOM     12  C   UNL     1      -6.617   1.973  26.437  0.00  0.00    +0.002 C 
ATOM     13  C   UNL     1      -6.847   1.988  24.926  0.00  0.00    +0.002 C 
ENDBRANCH   3   5
ENDBRANCH   7  17
BRANCH   6  16
ATOM     16  C   UNL     1      -2.781  -1.503  25.656  0.00  0.00    +0.026 C 
BRANCH  16  19
ATOM     19  C   UNL     1      -3.353  -1.657  24.243  0.00  0.00    -0.015 C 
ATOM     24  C   UNL     1      -4.557  -0.725  24.082  0.00  0.00    +0.007 C 
ATOM     25  C   UNL     1      -3.767  -3.095  23.927  0.00  0.00    +0.007 C 
ENDBRANCH  16  19
ENDBRANCH   6  16
BRANCH   4  26
ATOM     26  C   UNL     1       3.499   0.264  22.309  0.00  0.00    +0.148 C 
BRANCH  26  27
ATOM     27  C   UNL     1       4.678   0.674  23.143  0.00  0.00    -0.013 C 
ATOM     28  C   UNL     1       5.431  -0.182  23.842  0.00  0.00    +0.005 C 
ENDBRANCH  26  27
ENDBRANCH   4  26
TORSDOF 6
ENDMDL
