MODEL 1
REMARK VINA RESULT:       1.7      0.000      0.000
REMARK  Name = 45361536
REMARK  12 active torsions:
REMARK  status: ('A' for Active; 'I' for Inactive)
REMARK    1  A    between atoms: O_1  and  C_11
REMARK    2  A    between atoms: O_4  and  C_24
REMARK    3  A    between atoms: O_4  and  C_27
REMARK    4  A    between atoms: N_5  and  C_15
REMARK    5  A    between atoms: N_6  and  C_25
REMARK    6  A    between atoms: C_8  and  C_18
REMARK    7  A    between atoms: C_10  and  C_20
REMARK    8  A    between atoms: C_14  and  C_19
REMARK    9  A    between atoms: C_19  and  C_21
REMARK   10  A    between atoms: C_19  and  C_22
REMARK   11  A    between atoms: C_23  and  C_24
REMARK   12  A    between atoms: C_25  and  C_26
REMARK                            x       y       z     vdW  Elec       q    Type
REMARK                         _______ _______ _______ _____ _____    ______ ____
ROOT
ATOM      8  C   UNL     1      -2.413  -0.818  25.268  0.00  0.00    -0.027 C 
ATOM      9  C   UNL     1      -2.634   0.210  24.108  0.00  0.00    +0.028 C 
ATOM     10  C   UNL     1      -1.261   0.748  23.568  0.00  0.00    +0.012 C 
ATOM     11  C   UNL     1      -3.668   1.300  24.511  0.00  0.00    +0.122 C 
ATOM     12  C   UNL     1      -3.775  -1.411  25.699  0.00  0.00    +0.007 C 
ATOM     13  C   UNL     1      -1.536  -1.980  24.751  0.00  0.00    +0.009 C 
ATOM     14  C   UNL     1      -4.991   0.700  25.040  0.00  0.00    +0.029 C 
ATOM     15  C   UNL     1      -0.357  -0.436  23.120  0.00  0.00    +0.076 C 
ATOM     16  C   UNL     1      -4.776  -0.348  26.132  0.00  0.00    +0.007 C 
ATOM     17  C   UNL     1      -0.199  -1.517  24.188  0.00  0.00    +0.023 C 
ATOM     18  C   UNL     1      -1.734  -0.179  26.506  0.00  0.00    +0.011 C 
ATOM     20  C   UNL     1      -1.404   1.743  22.405  0.00  0.00    +0.010 C 
ENDROOT
BRANCH  15   5
ATOM      3  O   UNL     1       0.945  -0.867  20.574  0.00  0.00    -0.272 OA
ATOM      5  N   UNL     1       0.960   0.016  22.725  0.00  0.00    -0.309 N 
ATOM     23  C   UNL     1       1.498  -0.243  21.476  0.00  0.00    +0.251 C 
ATOM     37  H   UNL     1       1.531   0.488  23.421  0.00  0.00    +0.149 HD
BRANCH  23  24
ATOM     24  C   UNL     1       2.886   0.344  21.334  0.00  0.00    +0.324 C 
BRANCH  24   4
ATOM      4  O   UNL     1       3.331   0.875  22.564  0.00  0.00    -0.483 OA
BRANCH   4  27
ATOM     27  C   UNL     1       4.302   0.171  23.236  0.00  0.00    +0.121 A 
ATOM     29  C   UNL     1       4.108  -1.178  23.530  0.00  0.00    +0.045 A 
ATOM     30  C   UNL     1       5.481   0.807  23.624  0.00  0.00    +0.045 A 
ATOM     34  C   UNL     1       5.093  -1.892  24.212  0.00  0.00    +0.004 A 
ATOM     35  C   UNL     1       6.467   0.093  24.306  0.00  0.00    +0.004 A 
ATOM     36  C   UNL     1       6.273  -1.257  24.600  0.00  0.00    +0.000 A 
ENDBRANCH   4  27
ENDBRANCH  24   4
ENDBRANCH  23  24
ENDBRANCH  15   5
BRANCH  11   1
ATOM      1  O   UNL     1      -4.005   2.085  23.366  0.00  0.00    -0.391 OA
ATOM     38  H   UNL     1      -4.299   1.483  22.663  0.00  0.00    +0.210 HD
ENDBRANCH  11   1
BRANCH  14  19
ATOM     19  C   UNL     1      -5.944   1.787  25.553  0.00  0.00    +0.077 C 
ATOM     21  C   UNL     1      -7.149   1.908  24.627  0.00  0.00    +0.017 C 
BRANCH  19  22
ATOM      2  O   UNL     1      -5.528   4.119  25.049  0.00  0.00    -0.276 OA
ATOM      6  N   UNL     1      -4.134   3.045  26.560  0.00  0.00    -0.309 N 
ATOM     22  C   UNL     1      -5.201   3.114  25.676  0.00  0.00    +0.217 C 
ATOM     39  H   UNL     1      -3.961   2.192  27.080  0.00  0.00    +0.149 HD
BRANCH   6  25
ATOM     25  C   UNL     1      -3.279   4.175  26.842  0.00  0.00    +0.159 C 
BRANCH  25  26
ATOM      7  N   UNL     1      -1.181   3.098  26.259  0.00  0.00    -0.258 NA
ATOM     26  C   UNL     1      -2.014   4.138  26.033  0.00  0.00    +0.058 A 
ATOM     28  C   UNL     1      -1.767   5.144  25.114  0.00  0.00    +0.025 A 
ATOM     31  C   UNL     1      -0.588   5.080  24.380  0.00  0.00    +0.003 A 
ATOM     32  C   UNL     1      -0.044   3.068  25.528  0.00  0.00    +0.111 A 
ATOM     33  C   UNL     1       0.296   4.025  24.585  0.00  0.00    +0.020 A 
ENDBRANCH  25  26
ENDBRANCH   6  25
ENDBRANCH  19  22
ENDBRANCH  14  19
TORSDOF 9
ENDMDL
