MODEL 1
REMARK VINA RESULT:      -5.0      0.000      0.000
REMARK  Name = 7674707
REMARK  6 active torsions:
REMARK  status: ('A' for Active; 'I' for Inactive)
REMARK    1  A    between atoms: O_6  and  C_32
REMARK    2  A    between atoms: O_6  and  C_34
REMARK    3  A    between atoms: O_7  and  C_33
REMARK    4  A    between atoms: O_7  and  C_35
REMARK    5  A    between atoms: C_19  and  C_22
REMARK    6  A    between atoms: C_20  and  C_23
REMARK                            x       y       z     vdW  Elec       q    Type
REMARK                         _______ _______ _______ _____ _____    ______ ____
ROOT
ATOM      4  O   UNL     1      14.803  -7.801  26.123  0.00  0.00    -0.267 OA
ATOM      5  O   UNL     1      11.876  -7.044  30.236  0.00  0.00    -0.270 OA
ATOM      8  N   UNL     1      13.644  -8.415  30.917  0.00  0.00    -0.297 N 
ATOM      9  N   UNL     1      15.348  -8.553  28.262  0.00  0.00    -0.311 N 
ATOM     10  C   UNL     1      14.021 -10.392  29.457  0.00  0.00    +0.027 C 
ATOM     11  C   UNL     1      15.931  -9.326  30.587  0.00  0.00    +0.054 C 
ATOM     12  C   UNL     1      15.333 -10.672  30.182  0.00  0.00    +0.018 C 
ATOM     13  C   UNL     1      13.047  -9.637  30.380  0.00  0.00    +0.113 C 
ATOM     14  C   UNL     1      14.326  -9.607  28.174  0.00  0.00    +0.130 C 
ATOM     15  C   UNL     1      14.964  -8.597  31.544  0.00  0.00    +0.117 C 
ATOM     16  C   UNL     1      16.191  -8.457  29.372  0.00  0.00    +0.027 A 
ATOM     17  C   UNL     1      17.198  -7.568  29.379  0.00  0.00    +0.022 A 
ATOM     18  C   UNL     1      15.503  -7.724  27.133  0.00  0.00    +0.259 A 
ATOM     19  C   UNL     1      12.978  -7.197  30.759  0.00  0.00    +0.247 C 
ATOM     20  C   UNL     1      16.609  -6.707  27.191  0.00  0.00    +0.047 A 
ATOM     21  C   UNL     1      17.404  -6.678  28.272  0.00  0.00    +0.015 A 
ENDROOT
BRANCH  19  22
ATOM     22  C   UNL     1      13.646  -5.980  31.230  0.00  0.00    +0.037 A 
ATOM     24  C   UNL     1      14.827  -5.559  30.624  0.00  0.00    +0.016 A 
ATOM     25  C   UNL     1      13.097  -5.250  32.282  0.00  0.00    +0.016 A 
ATOM     28  C   UNL     1      15.462  -4.401  31.071  0.00  0.00    +0.046 A 
ATOM     29  C   UNL     1      13.733  -4.092  32.730  0.00  0.00    +0.046 A 
ATOM     32  C   UNL     1      14.915  -3.667  32.124  0.00  0.00    +0.120 A 
BRANCH  32   6
ATOM      6  O   UNL     1      15.534  -2.537  32.559  0.00  0.00    -0.495 OA
ATOM     34  C   UNL     1      16.901  -2.359  32.186  0.00  0.00    +0.277 C 
ENDBRANCH  32   6
ENDBRANCH  19  22
BRANCH  20  23
ATOM     23  C   UNL     1      16.818  -5.743  26.097  0.00  0.00    -0.012 A 
ATOM     26  C   UNL     1      16.832  -6.182  24.773  0.00  0.00    +0.012 A 
ATOM     27  C   UNL     1      16.999  -4.390  26.384  0.00  0.00    +0.012 A 
ATOM     30  C   UNL     1      17.030  -5.270  23.737  0.00  0.00    +0.046 A 
ATOM     31  C   UNL     1      17.196  -3.477  25.348  0.00  0.00    +0.046 A 
ATOM     33  C   UNL     1      17.211  -3.917  24.024  0.00  0.00    +0.130 A 
BRANCH  33   7
ATOM      7  O   UNL     1      17.405  -3.027  23.014  0.00  0.00    -0.406 OA
BRANCH   7  35
ATOM      1  F   UNL     1      17.024  -1.043  22.006  0.00  0.00    -0.133 F 
ATOM      2  F   UNL     1      15.298  -2.263  22.558  0.00  0.00    -0.133 F 
ATOM      3  F   UNL     1      16.489  -1.244  24.115  0.00  0.00    -0.133 F 
ATOM     35  C   UNL     1      16.541  -1.898  22.935  0.00  0.00    +0.575 C 
ENDBRANCH   7  35
ENDBRANCH  33   7
ENDBRANCH  20  23
TORSDOF 5
ENDMDL
