MODEL 1
REMARK VINA RESULT:       6.1      0.000      0.000
REMARK  Name = 7051765
REMARK  2 active torsions:
REMARK  status: ('A' for Active; 'I' for Inactive)
REMARK    1  A    between atoms: N_5  and  C_22
REMARK    2  A    between atoms: C_14  and  C_19
REMARK                            x       y       z     vdW  Elec       q    Type
REMARK                         _______ _______ _______ _____ _____    ______ ____
ROOT
ATOM      1  O   UNL     1      -2.863   3.156  20.871  0.00  0.00    -0.268 OA
ATOM      2  O   UNL     1       0.563   3.936  24.299  0.00  0.00    -0.252 OA
ATOM      3  N   UNL     1      -3.124   2.519  23.109  0.00  0.00    -0.311 N 
ATOM      4  N   UNL     1      -1.202   3.092  25.534  0.00  0.00    -0.284 N 
ATOM      5  N   UNL     1       0.475   1.655  24.703  0.00  0.00    -0.269 N 
ATOM      7  C   UNL     1      -3.327   4.258  24.980  0.00  0.00    +0.027 C 
ATOM      8  C   UNL     1      -3.351   1.859  25.529  0.00  0.00    +0.054 C 
ATOM      9  C   UNL     1      -4.112   3.174  25.705  0.00  0.00    +0.018 C 
ATOM     10  C   UNL     1      -3.321   3.925  23.487  0.00  0.00    +0.130 C 
ATOM     11  C   UNL     1      -1.903   4.378  25.552  0.00  0.00    +0.114 C 
ATOM     12  C   UNL     1      -1.951   1.995  26.169  0.00  0.00    +0.119 C 
ATOM     13  C   UNL     1      -3.221   1.473  24.050  0.00  0.00    +0.034 A 
ATOM     14  C   UNL     1      -3.157   0.181  23.634  0.00  0.00    +0.004 A 
ATOM     15  C   UNL     1      -2.939   2.283  21.736  0.00  0.00    +0.252 A 
ATOM     16  C   UNL     1      -0.003   2.962  24.800  0.00  0.00    +0.306 C 
ATOM     17  C   UNL     1      -2.964  -0.100  22.224  0.00  0.00    +0.015 A 
ATOM     18  C   UNL     1      -2.846   0.867  21.314  0.00  0.00    +0.071 A 
ATOM     30  H   UNL     1       0.253   1.001  25.443  0.00  0.00    +0.156 HD
ENDROOT
BRANCH  14  19
ATOM      6  N   UNL     1      -3.583  -3.308  24.944  0.00  0.00    -0.263 NA
ATOM     19  C   UNL     1      -3.248  -0.950  24.583  0.00  0.00    +0.002 A 
ATOM     20  C   UNL     1      -3.091  -0.746  25.944  0.00  0.00    +0.011 A 
ATOM     21  C   UNL     1      -3.489  -2.232  24.131  0.00  0.00    +0.119 A 
ATOM     23  C   UNL     1      -3.181  -1.829  26.812  0.00  0.00    +0.020 A 
ATOM     24  C   UNL     1      -3.427  -3.078  26.267  0.00  0.00    +0.111 A 
ENDBRANCH  14  19
BRANCH   5  22
ATOM     22  C   UNL     1       1.299   1.122  23.682  0.00  0.00    +0.035 A 
ATOM     25  C   UNL     1       2.628   1.522  23.587  0.00  0.00    +0.023 A 
ATOM     26  C   UNL     1       0.774   0.199  22.782  0.00  0.00    +0.023 A 
ATOM     27  C   UNL     1       3.440   0.996  22.583  0.00  0.00    +0.002 A 
ATOM     28  C   UNL     1       1.586  -0.328  21.778  0.00  0.00    +0.002 A 
ATOM     29  C   UNL     1       2.919   0.071  21.678  0.00  0.00    +0.000 A 
ENDBRANCH   5  22
TORSDOF 2
ENDMDL
MODEL 2
REMARK VINA RESULT:       6.8      2.359      4.687
REMARK  Name = 7051765
REMARK  2 active torsions:
REMARK  status: ('A' for Active; 'I' for Inactive)
REMARK    1  A    between atoms: N_5  and  C_22
REMARK    2  A    between atoms: C_14  and  C_19
REMARK                            x       y       z     vdW  Elec       q    Type
REMARK                         _______ _______ _______ _____ _____    ______ ____
ROOT
ATOM      1  O   UNL     1      -1.197   2.037  21.051  0.00  0.00    -0.268 OA
ATOM      2  O   UNL     1       0.078  -0.391  25.122  0.00  0.00    -0.252 OA
ATOM      3  N   UNL     1      -1.655   2.827  23.208  0.00  0.00    -0.311 N 
ATOM      4  N   UNL     1      -0.763   1.595  25.962  0.00  0.00    -0.284 N 
ATOM      5  N   UNL     1      -2.161  -0.289  25.713  0.00  0.00    -0.269 N 
ATOM      7  C   UNL     1       0.221   3.556  24.792  0.00  0.00    +0.027 C 
ATOM      8  C   UNL     1      -2.120   3.627  25.550  0.00  0.00    +0.054 C 
ATOM      9  C   UNL     1      -0.843   4.456  25.405  0.00  0.00    +0.018 C 
ATOM     10  C   UNL     1      -0.237   3.164  23.386  0.00  0.00    +0.130 C 
ATOM     11  C   UNL     1       0.475   2.326  25.682  0.00  0.00    +0.114 C 
ATOM     12  C   UNL     1      -1.845   2.437  26.497  0.00  0.00    +0.119 C 
ATOM     13  C   UNL     1      -2.622   3.117  24.193  0.00  0.00    +0.034 A 
ATOM     14  C   UNL     1      -3.938   2.902  23.933  0.00  0.00    +0.004 A 
ATOM     15  C   UNL     1      -1.996   2.295  21.951  0.00  0.00    +0.252 A 
ATOM     16  C   UNL     1      -0.882   0.247  25.562  0.00  0.00    +0.306 C 
ATOM     17  C   UNL     1      -4.326   2.353  22.649  0.00  0.00    +0.015 A 
ATOM     18  C   UNL     1      -3.435   2.046  21.706  0.00  0.00    +0.071 A 
ATOM     30  H   UNL     1      -2.763   0.086  26.436  0.00  0.00    +0.156 HD
ENDROOT
BRANCH  14  19
ATOM      6  N   UNL     1      -6.372   4.804  26.061  0.00  0.00    -0.263 NA
ATOM     19  C   UNL     1      -4.988   3.185  24.936  0.00  0.00    +0.002 A 
ATOM     20  C   UNL     1      -5.562   2.159  25.669  0.00  0.00    +0.011 A 
ATOM     21  C   UNL     1      -5.418   4.477  25.161  0.00  0.00    +0.119 A 
ATOM     23  C   UNL     1      -6.547   2.456  26.604  0.00  0.00    +0.020 A 
ATOM     24  C   UNL     1      -6.913   3.782  26.762  0.00  0.00    +0.111 A 
ENDBRANCH  14  19
BRANCH   5  22
ATOM     22  C   UNL     1      -2.729  -1.362  24.983  0.00  0.00    +0.035 A 
ATOM     25  C   UNL     1      -4.013  -1.239  24.460  0.00  0.00    +0.023 A 
ATOM     26  C   UNL     1      -1.998  -2.530  24.791  0.00  0.00    +0.023 A 
ATOM     27  C   UNL     1      -4.572  -2.294  23.740  0.00  0.00    +0.002 A 
ATOM     28  C   UNL     1      -2.556  -3.586  24.070  0.00  0.00    +0.002 A 
ATOM     29  C   UNL     1      -3.844  -3.468  23.545  0.00  0.00    +0.000 A 
ENDBRANCH   5  22
TORSDOF 2
ENDMDL
MODEL 3
REMARK VINA RESULT:       8.5      2.569      6.174
REMARK  Name = 7051765
REMARK  2 active torsions:
REMARK  status: ('A' for Active; 'I' for Inactive)
REMARK    1  A    between atoms: N_5  and  C_22
REMARK    2  A    between atoms: C_14  and  C_19
REMARK                            x       y       z     vdW  Elec       q    Type
REMARK                         _______ _______ _______ _____ _____    ______ ____
ROOT
ATOM      1  O   UNL     1      -1.455   1.814  21.620  0.00  0.00    -0.268 OA
ATOM      2  O   UNL     1      -4.785  -0.328  24.521  0.00  0.00    -0.252 OA
ATOM      3  N   UNL     1      -0.909   0.782  23.650  0.00  0.00    -0.311 N 
ATOM      4  N   UNL     1      -2.791  -0.844  25.576  0.00  0.00    -0.284 N 
ATOM      5  N   UNL     1      -4.016   1.074  26.199  0.00  0.00    -0.269 N 
ATOM      7  C   UNL     1      -1.129  -1.751  23.965  0.00  0.00    +0.027 C 
ATOM      8  C   UNL     1      -0.379  -0.343  25.839  0.00  0.00    +0.054 C 
ATOM      9  C   UNL     1      -0.027  -1.572  25.000  0.00  0.00    +0.018 C 
ATOM     10  C   UNL     1      -1.112  -0.537  23.035  0.00  0.00    +0.130 C 
ATOM     11  C   UNL     1      -2.496  -1.938  24.648  0.00  0.00    +0.114 C 
ATOM     12  C   UNL     1      -1.725  -0.591  26.558  0.00  0.00    +0.119 C 
ATOM     13  C   UNL     1      -0.465   0.925  24.981  0.00  0.00    +0.034 A 
ATOM     14  C   UNL     1      -0.170   2.159  25.466  0.00  0.00    +0.004 A 
ATOM     15  C   UNL     1      -1.085   1.882  22.792  0.00  0.00    +0.252 A 
ATOM     16  C   UNL     1      -3.935  -0.044  25.368  0.00  0.00    +0.306 C 
ATOM     17  C   UNL     1      -0.342   3.317  24.610  0.00  0.00    +0.015 A 
ATOM     18  C   UNL     1      -0.782   3.217  23.356  0.00  0.00    +0.071 A 
ATOM     30  H   UNL     1      -3.577   1.034  27.110  0.00  0.00    +0.156 HD
ENDROOT
BRANCH  14  19
ATOM      6  N   UNL     1       2.127   2.695  28.384  0.00  0.00    -0.263 NA
ATOM     19  C   UNL     1       0.293   2.360  26.856  0.00  0.00    +0.002 A 
ATOM     20  C   UNL     1      -0.612   2.408  27.905  0.00  0.00    +0.011 A 
ATOM     21  C   UNL     1       1.637   2.508  27.138  0.00  0.00    +0.119 A 
ATOM     23  C   UNL     1      -0.146   2.599  29.200  0.00  0.00    +0.020 A 
ATOM     24  C   UNL     1       1.220   2.736  29.386  0.00  0.00    +0.111 A 
ENDBRANCH  14  19
BRANCH   5  22
ATOM     22  C   UNL     1      -4.699   2.286  25.934  0.00  0.00    +0.035 A 
ATOM     25  C   UNL     1      -3.983   3.406  25.521  0.00  0.00    +0.023 A 
ATOM     26  C   UNL     1      -6.081   2.349  26.087  0.00  0.00    +0.023 A 
ATOM     27  C   UNL     1      -4.655   4.600  25.259  0.00  0.00    +0.002 A 
ATOM     28  C   UNL     1      -6.753   3.542  25.825  0.00  0.00    +0.002 A 
ATOM     29  C   UNL     1      -6.040   4.668  25.411  0.00  0.00    +0.000 A 
ENDBRANCH   5  22
TORSDOF 2
ENDMDL
MODEL 4
REMARK VINA RESULT:       8.5      1.774      5.602
REMARK  Name = 7051765
REMARK  2 active torsions:
REMARK  status: ('A' for Active; 'I' for Inactive)
REMARK    1  A    between atoms: N_5  and  C_22
REMARK    2  A    between atoms: C_14  and  C_19
REMARK                            x       y       z     vdW  Elec       q    Type
REMARK                         _______ _______ _______ _____ _____    ______ ____
ROOT
ATOM      1  O   UNL     1      -1.719   3.111  27.930  0.00  0.00    -0.268 OA
ATOM      2  O   UNL     1      -4.767   2.009  24.244  0.00  0.00    -0.252 OA
ATOM      3  N   UNL     1      -1.116   3.291  25.675  0.00  0.00    -0.311 N 
ATOM      4  N   UNL     1      -2.926   2.868  23.136  0.00  0.00    -0.284 N 
ATOM      5  N   UNL     1      -3.124   0.547  23.511  0.00  0.00    -0.269 N 
ATOM      7  C   UNL     1      -2.201   5.027  24.134  0.00  0.00    +0.027 C 
ATOM      8  C   UNL     1      -0.524   3.466  23.233  0.00  0.00    +0.054 C 
ATOM      9  C   UNL     1      -0.892   4.945  23.361  0.00  0.00    +0.018 C 
ATOM     10  C   UNL     1      -1.956   4.489  25.545  0.00  0.00    +0.130 C 
ATOM     11  C   UNL     1      -3.315   4.254  23.405  0.00  0.00    +0.114 C 
ATOM     12  C   UNL     1      -1.633   2.735  22.445  0.00  0.00    +0.119 C 
ATOM     13  C   UNL     1      -0.331   2.810  24.606  0.00  0.00    +0.034 A 
ATOM     14  C   UNL     1       0.525   1.774  24.809  0.00  0.00    +0.004 A 
ATOM     15  C   UNL     1      -1.068   2.723  26.960  0.00  0.00    +0.252 A 
ATOM     16  C   UNL     1      -3.689   1.811  23.678  0.00  0.00    +0.306 C 
ATOM     17  C   UNL     1       0.599   1.162  26.121  0.00  0.00    +0.015 A 
ATOM     18  C   UNL     1      -0.147   1.579  27.145  0.00  0.00    +0.071 A 
ATOM     30  H   UNL     1      -2.519   0.386  22.716  0.00  0.00    +0.156 HD
ENDROOT
BRANCH  14  19
ATOM      6  N   UNL     1       1.579  -0.257  21.836  0.00  0.00    -0.263 NA
ATOM     19  C   UNL     1       1.365   1.231  23.718  0.00  0.00    +0.002 A 
ATOM     20  C   UNL     1       2.668   1.669  23.543  0.00  0.00    +0.011 A 
ATOM     21  C   UNL     1       0.866   0.279  22.851  0.00  0.00    +0.119 A 
ATOM     23  C   UNL     1       3.432   1.142  22.509  0.00  0.00    +0.020 A 
ATOM     24  C   UNL     1       2.847   0.189  21.690  0.00  0.00    +0.111 A 
ENDBRANCH  14  19
BRANCH   5  22
ATOM     22  C   UNL     1      -3.334  -0.595  24.323  0.00  0.00    +0.035 A 
ATOM     25  C   UNL     1      -3.827  -1.766  23.754  0.00  0.00    +0.023 A 
ATOM     26  C   UNL     1      -3.043  -0.539  25.683  0.00  0.00    +0.023 A 
ATOM     27  C   UNL     1      -4.032  -2.891  24.552  0.00  0.00    +0.002 A 
ATOM     28  C   UNL     1      -3.248  -1.664  26.481  0.00  0.00    +0.002 A 
ATOM     29  C   UNL     1      -3.743  -2.840  25.915  0.00  0.00    +0.000 A 
ENDBRANCH   5  22
TORSDOF 2
ENDMDL
