MODEL 1
REMARK VINA RESULT:      -1.7      0.000      0.000
REMARK  Name = 45783799
REMARK  8 active torsions:
REMARK  status: ('A' for Active; 'I' for Inactive)
REMARK    1  A    between atoms: N_2  and  C_12
REMARK    2  A    between atoms: N_6  and  C_25
REMARK    3  A    between atoms: N_6  and  C_27
REMARK    4  A    between atoms: N_6  and  C_28
REMARK    5  A    between atoms: C_8  and  C_13
REMARK    6  A    between atoms: C_12  and  C_14
REMARK    7  A    between atoms: C_17  and  C_20
REMARK    8  A    between atoms: C_18  and  C_26
REMARK                            x       y       z     vdW  Elec       q    Type
REMARK                         _______ _______ _______ _____ _____    ______ ____
ROOT
ATOM      2  N   UNL     1      -4.577   2.044  25.350  0.00  0.00    -0.287 NA
ATOM      8  C   UNL     1      -4.238   2.753  24.099  0.00  0.00    +0.146 C 
ATOM      9  C   UNL     1      -4.103   4.230  24.512  0.00  0.00    +0.030 C 
ATOM     10  C   UNL     1      -4.443   4.261  25.995  0.00  0.00    +0.017 C 
ATOM     11  C   UNL     1      -5.273   3.010  26.198  0.00  0.00    +0.085 C 
ENDROOT
BRANCH   8  13
ATOM      1  O   UNL     1      -3.029   2.052  22.095  0.00  0.00    -0.336 OA
ATOM      3  N   UNL     1      -1.846   1.867  23.988  0.00  0.00    -0.190 NA
ATOM      4  N   UNL     1      -1.776   1.548  21.724  0.00  0.00    -0.056 NA
ATOM     13  C   UNL     1      -2.986   2.212  23.443  0.00  0.00    +0.245 A 
ATOM     17  C   UNL     1      -1.136   1.467  22.894  0.00  0.00    +0.204 A 
BRANCH  17  20
ATOM      5  N   UNL     1       2.464   1.332  23.819  0.00  0.00    -0.240 NA
ATOM     20  C   UNL     1       0.213   0.991  23.004  0.00  0.00    +0.041 A 
ATOM     22  C   UNL     1       0.594  -0.219  22.435  0.00  0.00    +0.016 A 
ATOM     23  C   UNL     1       1.176   1.723  23.679  0.00  0.00    +0.124 A 
ATOM     24  C   UNL     1       1.909  -0.654  22.557  0.00  0.00    +0.044 A 
ATOM     25  C   UNL     1       2.798   0.150  23.253  0.00  0.00    +0.121 A 
BRANCH  25   6
ATOM      6  N   UNL     1       4.133  -0.307  23.369  0.00  0.00    -0.321 N 
ATOM     27  C   UNL     1       5.236   0.586  23.090  0.00  0.00    +0.130 C 
ATOM     28  C   UNL     1       4.402  -1.672  23.762  0.00  0.00    +0.130 C 
ENDBRANCH  25   6
ENDBRANCH  17  20
ENDBRANCH   8  13
BRANCH   2  12
ATOM     12  C   UNL     1      -5.365   0.837  25.131  0.00  0.00    +0.120 C 
BRANCH  12  14
ATOM     14  C   UNL     1      -4.498  -0.346  24.796  0.00  0.00    -0.032 A 
ATOM     15  C   UNL     1      -3.193  -0.416  25.283  0.00  0.00    +0.023 A 
ATOM     16  C   UNL     1      -5.000  -1.374  23.998  0.00  0.00    +0.005 A 
ATOM     18  C   UNL     1      -2.390  -1.515  24.973  0.00  0.00    +0.052 A 
ATOM     19  C   UNL     1      -4.199  -2.473  23.687  0.00  0.00    +0.002 A 
ATOM     21  C   UNL     1      -2.893  -2.543  24.175  0.00  0.00    +0.019 A 
BRANCH  18  26
ATOM      7  N   UNL     1       0.032  -1.648  25.878  0.00  0.00    -0.191 NA
ATOM     26  C   UNL     1      -1.054  -1.588  25.473  0.00  0.00    +0.099 C 
ENDBRANCH  18  26
ENDBRANCH  12  14
ENDBRANCH   2  12
TORSDOF 6
ENDMDL
MODEL 2
REMARK VINA RESULT:      -1.0     13.346     16.149
REMARK  Name = 45783799
REMARK  8 active torsions:
REMARK  status: ('A' for Active; 'I' for Inactive)
REMARK    1  A    between atoms: N_2  and  C_12
REMARK    2  A    between atoms: N_6  and  C_25
REMARK    3  A    between atoms: N_6  and  C_27
REMARK    4  A    between atoms: N_6  and  C_28
REMARK    5  A    between atoms: C_8  and  C_13
REMARK    6  A    between atoms: C_12  and  C_14
REMARK    7  A    between atoms: C_17  and  C_20
REMARK    8  A    between atoms: C_18  and  C_26
REMARK                            x       y       z     vdW  Elec       q    Type
REMARK                         _______ _______ _______ _____ _____    ______ ____
ROOT
ATOM      2  N   UNL     1      -7.460 -10.767  18.412  0.00  0.00    -0.287 NA
ATOM      8  C   UNL     1      -6.789  -9.632  17.747  0.00  0.00    +0.146 C 
ATOM      9  C   UNL     1      -5.534  -9.367  18.598  0.00  0.00    +0.030 C 
ATOM     10  C   UNL     1      -5.618 -10.358  19.750  0.00  0.00    +0.017 C 
ATOM     11  C   UNL     1      -7.093 -10.694  19.826  0.00  0.00    +0.085 C 
ENDROOT
BRANCH   8  13
ATOM      1  O   UNL     1      -5.344 -10.651  16.060  0.00  0.00    -0.336 OA
ATOM      3  N   UNL     1      -7.106  -9.556  15.215  0.00  0.00    -0.190 NA
ATOM      4  N   UNL     1      -5.253 -10.781  14.668  0.00  0.00    -0.056 NA
ATOM     13  C   UNL     1      -6.463  -9.917  16.296  0.00  0.00    +0.245 A 
ATOM     17  C   UNL     1      -6.326 -10.109  14.241  0.00  0.00    +0.204 A 
BRANCH  17  20
ATOM      5  N   UNL     1      -8.199 -10.373  11.039  0.00  0.00    -0.240 NA
ATOM     20  C   UNL     1      -6.648  -9.973  12.849  0.00  0.00    +0.041 A 
ATOM     22  C   UNL     1      -5.774  -9.340  11.972  0.00  0.00    +0.016 A 
ATOM     23  C   UNL     1      -7.836 -10.468  12.339  0.00  0.00    +0.124 A 
ATOM     24  C   UNL     1      -6.113  -9.223  10.628  0.00  0.00    +0.044 A 
ATOM     25  C   UNL     1      -7.326  -9.751  10.215  0.00  0.00    +0.121 A 
BRANCH  25   6
ATOM      6  N   UNL     1      -7.656  -9.624   8.844  0.00  0.00    -0.321 N 
ATOM     27  C   UNL     1      -7.367  -8.396   8.136  0.00  0.00    +0.130 C 
ATOM     28  C   UNL     1      -8.289 -10.719   8.144  0.00  0.00    +0.130 C 
ENDBRANCH  25   6
ENDBRANCH  17  20
ENDBRANCH   8  13
BRANCH   2  12
ATOM     12  C   UNL     1      -8.905 -10.773  18.220  0.00  0.00    +0.120 C 
BRANCH  12  14
ATOM     14  C   UNL     1      -9.360  -9.629  17.355  0.00  0.00    -0.032 A 
ATOM     15  C   UNL     1      -9.683  -9.850  16.017  0.00  0.00    +0.023 A 
ATOM     16  C   UNL     1      -9.459  -8.346  17.893  0.00  0.00    +0.005 A 
ATOM     18  C   UNL     1     -10.107  -8.788  15.216  0.00  0.00    +0.052 A 
ATOM     19  C   UNL     1      -9.883  -7.284  17.094  0.00  0.00    +0.002 A 
ATOM     21  C   UNL     1     -10.206  -7.505  15.755  0.00  0.00    +0.019 A 
BRANCH  18  26
ATOM      7  N   UNL     1     -10.711  -9.197  12.732  0.00  0.00    -0.191 NA
ATOM     26  C   UNL     1     -10.439  -9.014  13.845  0.00  0.00    +0.099 C 
ENDBRANCH  18  26
ENDBRANCH  12  14
ENDBRANCH   2  12
TORSDOF 6
ENDMDL
MODEL 3
REMARK VINA RESULT:       0.4      1.783      3.597
REMARK  Name = 45783799
REMARK  8 active torsions:
REMARK  status: ('A' for Active; 'I' for Inactive)
REMARK    1  A    between atoms: N_2  and  C_12
REMARK    2  A    between atoms: N_6  and  C_25
REMARK    3  A    between atoms: N_6  and  C_27
REMARK    4  A    between atoms: N_6  and  C_28
REMARK    5  A    between atoms: C_8  and  C_13
REMARK    6  A    between atoms: C_12  and  C_14
REMARK    7  A    between atoms: C_17  and  C_20
REMARK    8  A    between atoms: C_18  and  C_26
REMARK                            x       y       z     vdW  Elec       q    Type
REMARK                         _______ _______ _______ _____ _____    ______ ____
ROOT
ATOM      2  N   UNL     1      -5.047   2.807  25.137  0.00  0.00    -0.287 NA
ATOM      8  C   UNL     1      -4.395   1.487  25.259  0.00  0.00    +0.146 C 
ATOM      9  C   UNL     1      -5.479   0.476  24.843  0.00  0.00    +0.030 C 
ATOM     10  C   UNL     1      -6.719   1.314  24.564  0.00  0.00    +0.017 C 
ATOM     11  C   UNL     1      -6.476   2.584  25.353  0.00  0.00    +0.085 C 
ENDROOT
BRANCH   8  13
ATOM      1  O   UNL     1      -3.228   1.813  23.137  0.00  0.00    -0.336 OA
ATOM      3  N   UNL     1      -1.959   0.917  24.751  0.00  0.00    -0.190 NA
ATOM      4  N   UNL     1      -1.962   1.613  22.572  0.00  0.00    -0.056 NA
ATOM     13  C   UNL     1      -3.140   1.378  24.421  0.00  0.00    +0.245 A 
ATOM     17  C   UNL     1      -1.271   1.082  23.584  0.00  0.00    +0.204 A 
BRANCH  17  20
ATOM      5  N   UNL     1       2.438   1.352  23.532  0.00  0.00    -0.240 NA
ATOM     20  C   UNL     1       0.109   0.708  23.464  0.00  0.00    +0.041 A 
ATOM     22  C   UNL     1       0.472  -0.603  23.173  0.00  0.00    +0.016 A 
ATOM     23  C   UNL     1       1.120   1.639  23.632  0.00  0.00    +0.124 A 
ATOM     24  C   UNL     1       1.817  -0.937  23.062  0.00  0.00    +0.044 A 
ATOM     25  C   UNL     1       2.753   0.068  23.249  0.00  0.00    +0.121 A 
BRANCH  25   6
ATOM      6  N   UNL     1       4.119  -0.288  23.133  0.00  0.00    -0.321 N 
ATOM     27  C   UNL     1       4.612  -1.498  23.754  0.00  0.00    +0.130 C 
ATOM     28  C   UNL     1       5.031   0.559  22.397  0.00  0.00    +0.130 C 
ENDBRANCH  25   6
ENDBRANCH  17  20
ENDBRANCH   8  13
BRANCH   2  12
ATOM     12  C   UNL     1      -4.503   3.804  26.050  0.00  0.00    +0.120 C 
BRANCH  12  14
ATOM     14  C   UNL     1      -3.063   4.118  25.744  0.00  0.00    -0.032 A 
ATOM     15  C   UNL     1      -2.042   3.424  26.392  0.00  0.00    +0.023 A 
ATOM     16  C   UNL     1      -2.750   5.104  24.808  0.00  0.00    +0.005 A 
ATOM     18  C   UNL     1      -0.708   3.715  26.106  0.00  0.00    +0.052 A 
ATOM     19  C   UNL     1      -1.417   5.396  24.520  0.00  0.00    +0.002 A 
ATOM     21  C   UNL     1      -0.396   4.701  25.170  0.00  0.00    +0.019 A 
BRANCH  18  26
ATOM      7  N   UNL     1       1.189   2.426  27.307  0.00  0.00    -0.191 NA
ATOM     26  C   UNL     1       0.338   3.004  26.769  0.00  0.00    +0.099 C 
ENDBRANCH  18  26
ENDBRANCH  12  14
ENDBRANCH   2  12
TORSDOF 6
ENDMDL
MODEL 4
REMARK VINA RESULT:       1.6      1.742      4.245
REMARK  Name = 45783799
REMARK  8 active torsions:
REMARK  status: ('A' for Active; 'I' for Inactive)
REMARK    1  A    between atoms: N_2  and  C_12
REMARK    2  A    between atoms: N_6  and  C_25
REMARK    3  A    between atoms: N_6  and  C_27
REMARK    4  A    between atoms: N_6  and  C_28
REMARK    5  A    between atoms: C_8  and  C_13
REMARK    6  A    between atoms: C_12  and  C_14
REMARK    7  A    between atoms: C_17  and  C_20
REMARK    8  A    between atoms: C_18  and  C_26
REMARK                            x       y       z     vdW  Elec       q    Type
REMARK                         _______ _______ _______ _____ _____    ______ ____
ROOT
ATOM      2  N   UNL     1      -3.561  -0.808  24.578  0.00  0.00    -0.287 NA
ATOM      8  C   UNL     1      -2.357  -1.659  24.654  0.00  0.00    +0.146 C 
ATOM      9  C   UNL     1      -2.719  -2.922  23.851  0.00  0.00    +0.030 C 
ATOM     10  C   UNL     1      -4.163  -2.716  23.416  0.00  0.00    +0.017 C 
ATOM     11  C   UNL     1      -4.698  -1.713  24.418  0.00  0.00    +0.085 C 
ENDROOT
BRANCH   8  13
ATOM      1  O   UNL     1      -1.321   0.143  23.369  0.00  0.00    -0.336 OA
ATOM      3  N   UNL     1       0.142  -1.279  24.294  0.00  0.00    -0.190 NA
ATOM      4  N   UNL     1      -0.048   0.600  23.004  0.00  0.00    -0.056 NA
ATOM     13  C   UNL     1      -1.118  -0.966  24.127  0.00  0.00    +0.245 A 
ATOM     17  C   UNL     1       0.760  -0.290  23.586  0.00  0.00    +0.204 A 
BRANCH  17  20
ATOM      5  N   UNL     1       4.340  -1.275  23.801  0.00  0.00    -0.240 NA
ATOM     20  C   UNL     1       2.190  -0.218  23.482  0.00  0.00    +0.041 A 
ATOM     22  C   UNL     1       2.814   0.921  22.984  0.00  0.00    +0.016 A 
ATOM     23  C   UNL     1       2.989  -1.278  23.873  0.00  0.00    +0.124 A 
ATOM     24  C   UNL     1       4.201   0.963  22.895  0.00  0.00    +0.044 A 
ATOM     25  C   UNL     1       4.912  -0.151  23.312  0.00  0.00    +0.121 A 
BRANCH  25   6
ATOM      6  N   UNL     1       6.324  -0.094  23.215  0.00  0.00    -0.321 N 
ATOM     27  C   UNL     1       7.058   0.956  23.887  0.00  0.00    +0.130 C 
ATOM     28  C   UNL     1       7.040  -1.080  22.437  0.00  0.00    +0.130 C 
ENDBRANCH  25   6
ENDBRANCH  17  20
ENDBRANCH   8  13
BRANCH   2  12
ATOM     12  C   UNL     1      -3.717   0.071  25.730  0.00  0.00    +0.120 C 
BRANCH  12  14
ATOM     14  C   UNL     1      -3.805   1.518  25.324  0.00  0.00    -0.032 A 
ATOM     15  C   UNL     1      -2.661   2.315  25.324  0.00  0.00    +0.023 A 
ATOM     16  C   UNL     1      -5.033   2.061  24.944  0.00  0.00    +0.005 A 
ATOM     18  C   UNL     1      -2.743   3.655  24.946  0.00  0.00    +0.052 A 
ATOM     19  C   UNL     1      -5.116   3.401  24.565  0.00  0.00    +0.002 A 
ATOM     21  C   UNL     1      -3.971   4.198  24.566  0.00  0.00    +0.019 A 
BRANCH  18  26
ATOM      7  N   UNL     1      -0.619   5.136  24.943  0.00  0.00    -0.191 NA
ATOM     26  C   UNL     1      -1.571   4.471  24.945  0.00  0.00    +0.099 C 
ENDBRANCH  18  26
ENDBRANCH  12  14
ENDBRANCH   2  12
TORSDOF 6
ENDMDL
