MODEL 1
REMARK VINA RESULT:      -4.6      0.000      0.000
REMARK  Name = 45784308
REMARK  5 active torsions:
REMARK  status: ('A' for Active; 'I' for Inactive)
REMARK    1  A    between atoms: O_1  and  C_18
REMARK    2  A    between atoms: O_1  and  C_20
REMARK    3  A    between atoms: N_2  and  C_8
REMARK    4  A    between atoms: C_5  and  C_8
REMARK    5  A    between atoms: C_9  and  C_13
REMARK                            x       y       z     vdW  Elec       q    Type
REMARK                         _______ _______ _______ _____ _____    ______ ____
ROOT
ATOM      3  N   UNL     1      -1.912   0.335  24.274  0.00  0.00    -0.341 N 
ATOM      4  N   UNL     1      -0.689   2.190  24.206  0.00  0.00    -0.232 NA
ATOM     13  C   UNL     1      -0.674   0.883  24.078  0.00  0.00    +0.113 A 
ATOM     14  C   UNL     1      -2.783   1.358  24.548  0.00  0.00    +0.070 A 
ATOM     15  C   UNL     1      -1.996   2.505  24.499  0.00  0.00    +0.089 A 
ATOM     16  C   UNL     1      -4.151   1.378  24.825  0.00  0.00    +0.073 A 
ATOM     17  C   UNL     1      -2.591   3.755  24.739  0.00  0.00    +0.033 A 
ATOM     18  C   UNL     1      -4.726   2.630  25.062  0.00  0.00    +0.122 A 
ATOM     19  C   UNL     1      -3.963   3.798  25.020  0.00  0.00    +0.048 A 
ATOM     21  H   UNL     1      -2.147  -0.648  24.227  0.00  0.00    +0.167 HD
ENDROOT
BRANCH  13   9
ATOM      2  N   UNL     1       2.665   0.082  22.799  0.00  0.00    -0.301 NA
ATOM      9  C   UNL     1       0.523   0.020  23.752  0.00  0.00    +0.070 C 
ATOM     10  C   UNL     1       1.846   0.798  23.779  0.00  0.00    +0.095 C 
ATOM     11  C   UNL     1       1.766  -0.180  21.674  0.00  0.00    +0.085 C 
ATOM     12  C   UNL     1       0.487  -0.640  22.363  0.00  0.00    +0.028 C 
BRANCH   2   8
ATOM      8  C   UNL     1       3.844   0.837  22.401  0.00  0.00    +0.088 C 
BRANCH   8   5
ATOM      5  C   UNL     1       5.098   0.170  22.863  0.00  0.00    +0.003 C 
ATOM      6  C   UNL     1       5.589   0.420  24.259  0.00  0.00    +0.005 C 
ATOM      7  C   UNL     1       5.013  -0.917  23.895  0.00  0.00    +0.005 C 
ENDBRANCH   8   5
ENDBRANCH   2   8
ENDBRANCH  13   9
BRANCH  18   1
ATOM      1  O   UNL     1      -6.060   2.710  25.338  0.00  0.00    -0.495 OA
ATOM     20  C   UNL     1      -6.552   1.886  26.392  0.00  0.00    +0.277 C 
ENDBRANCH  18   1
TORSDOF 4
ENDMDL
MODEL 2
REMARK VINA RESULT:      -4.2     15.114     16.662
REMARK  Name = 45784308
REMARK  5 active torsions:
REMARK  status: ('A' for Active; 'I' for Inactive)
REMARK    1  A    between atoms: O_1  and  C_18
REMARK    2  A    between atoms: O_1  and  C_20
REMARK    3  A    between atoms: N_2  and  C_8
REMARK    4  A    between atoms: C_5  and  C_8
REMARK    5  A    between atoms: C_9  and  C_13
REMARK                            x       y       z     vdW  Elec       q    Type
REMARK                         _______ _______ _______ _____ _____    ______ ____
ROOT
ATOM      3  N   UNL     1      -6.596 -10.516  14.083  0.00  0.00    -0.341 N 
ATOM      4  N   UNL     1      -8.576  -9.647  13.573  0.00  0.00    -0.232 NA
ATOM     13  C   UNL     1      -7.460 -10.144  13.091  0.00  0.00    +0.113 A 
ATOM     14  C   UNL     1      -7.195 -10.240  15.285  0.00  0.00    +0.070 A 
ATOM     15  C   UNL     1      -8.429  -9.699  14.940  0.00  0.00    +0.089 A 
ATOM     16  C   UNL     1      -6.775 -10.414  16.605  0.00  0.00    +0.073 A 
ATOM     17  C   UNL     1      -9.311  -9.300  15.959  0.00  0.00    +0.033 A 
ATOM     18  C   UNL     1      -7.664 -10.011  17.606  0.00  0.00    +0.122 A 
ATOM     19  C   UNL     1      -8.910  -9.464  17.291  0.00  0.00    +0.048 A 
ATOM     21  H   UNL     1      -5.678 -10.923  13.957  0.00  0.00    +0.167 HD
ENDROOT
BRANCH  13   9
ATOM      2  N   UNL     1      -5.317 -10.176  10.119  0.00  0.00    -0.301 NA
ATOM      9  C   UNL     1      -7.103 -10.316  11.633  0.00  0.00    +0.070 C 
ATOM     10  C   UNL     1      -5.648 -10.757  11.421  0.00  0.00    +0.095 C 
ATOM     11  C   UNL     1      -5.881  -8.826  10.154  0.00  0.00    +0.085 C 
ATOM     12  C   UNL     1      -7.255  -9.049  10.775  0.00  0.00    +0.028 C 
BRANCH   2   8
ATOM      8  C   UNL     1      -3.885 -10.171   9.859  0.00  0.00    +0.088 C 
BRANCH   8   5
ATOM      5  C   UNL     1      -3.125  -9.606  11.015  0.00  0.00    +0.003 C 
ATOM      6  C   UNL     1      -2.024 -10.417  11.635  0.00  0.00    +0.005 C 
ATOM      7  C   UNL     1      -1.694  -9.199  10.823  0.00  0.00    +0.005 C 
ENDBRANCH   8   5
ENDBRANCH   2   8
ENDBRANCH  13   9
BRANCH  18   1
ATOM      1  O   UNL     1      -7.308 -10.156  18.914  0.00  0.00    -0.495 OA
ATOM     20  C   UNL     1      -5.987 -10.627  19.175  0.00  0.00    +0.277 C 
ENDBRANCH  18   1
TORSDOF 4
ENDMDL
MODEL 3
REMARK VINA RESULT:      -3.9      0.816      1.548
REMARK  Name = 45784308
REMARK  5 active torsions:
REMARK  status: ('A' for Active; 'I' for Inactive)
REMARK    1  A    between atoms: O_1  and  C_18
REMARK    2  A    between atoms: O_1  and  C_20
REMARK    3  A    between atoms: N_2  and  C_8
REMARK    4  A    between atoms: C_5  and  C_8
REMARK    5  A    between atoms: C_9  and  C_13
REMARK                            x       y       z     vdW  Elec       q    Type
REMARK                         _______ _______ _______ _____ _____    ______ ____
ROOT
ATOM      3  N   UNL     1      -0.951   1.677  24.068  0.00  0.00    -0.341 N 
ATOM      4  N   UNL     1      -2.035  -0.258  24.223  0.00  0.00    -0.232 NA
ATOM     13  C   UNL     1      -0.879   0.315  23.971  0.00  0.00    +0.113 A 
ATOM     14  C   UNL     1      -2.239   2.005  24.405  0.00  0.00    +0.070 A 
ATOM     15  C   UNL     1      -2.895   0.782  24.496  0.00  0.00    +0.089 A 
ATOM     16  C   UNL     1      -2.867   3.231  24.632  0.00  0.00    +0.073 A 
ATOM     17  C   UNL     1      -4.260   0.759  24.832  0.00  0.00    +0.033 A 
ATOM     18  C   UNL     1      -4.224   3.190  24.964  0.00  0.00    +0.122 A 
ATOM     19  C   UNL     1      -4.910   1.978  25.064  0.00  0.00    +0.048 A 
ATOM     21  H   UNL     1      -0.192   2.329  23.919  0.00  0.00    +0.167 HD
ENDROOT
BRANCH  13   9
ATOM      2  N   UNL     1       2.586   0.012  22.819  0.00  0.00    -0.301 NA
ATOM      9  C   UNL     1       0.414  -0.380  23.612  0.00  0.00    +0.070 C 
ATOM     10  C   UNL     1       1.648   0.505  23.830  0.00  0.00    +0.095 C 
ATOM     11  C   UNL     1       1.778  -0.171  21.612  0.00  0.00    +0.085 C 
ATOM     12  C   UNL     1       0.517  -0.839  22.147  0.00  0.00    +0.028 C 
BRANCH   2   8
ATOM      8  C   UNL     1       3.702   0.921  22.605  0.00  0.00    +0.088 C 
BRANCH   8   5
ATOM      5  C   UNL     1       5.007   0.261  22.912  0.00  0.00    +0.003 C 
ATOM      6  C   UNL     1       5.615   0.437  24.273  0.00  0.00    +0.005 C 
ATOM      7  C   UNL     1       5.037  -0.890  23.875  0.00  0.00    +0.005 C 
ENDBRANCH   8   5
ENDBRANCH   2   8
ENDBRANCH  13   9
BRANCH  18   1
ATOM      1  O   UNL     1      -4.890   4.358  25.197  0.00  0.00    -0.495 OA
ATOM     20  C   UNL     1      -6.209   4.255  25.729  0.00  0.00    +0.277 C 
ENDBRANCH  18   1
TORSDOF 4
ENDMDL
MODEL 4
REMARK VINA RESULT:      -3.5      2.856      7.940
REMARK  Name = 45784308
REMARK  5 active torsions:
REMARK  status: ('A' for Active; 'I' for Inactive)
REMARK    1  A    between atoms: O_1  and  C_18
REMARK    2  A    between atoms: O_1  and  C_20
REMARK    3  A    between atoms: N_2  and  C_8
REMARK    4  A    between atoms: C_5  and  C_8
REMARK    5  A    between atoms: C_9  and  C_13
REMARK                            x       y       z     vdW  Elec       q    Type
REMARK                         _______ _______ _______ _____ _____    ______ ____
ROOT
ATOM      3  N   UNL     1       0.819   1.847  24.789  0.00  0.00    -0.341 N 
ATOM      4  N   UNL     1      -0.649   0.619  23.658  0.00  0.00    -0.232 NA
ATOM     13  C   UNL     1      -0.489   1.472  24.644  0.00  0.00    +0.113 A 
ATOM     14  C   UNL     1       1.550   1.191  23.833  0.00  0.00    +0.070 A 
ATOM     15  C   UNL     1       0.612   0.432  23.140  0.00  0.00    +0.089 A 
ATOM     16  C   UNL     1       2.911   1.197  23.524  0.00  0.00    +0.073 A 
ATOM     17  C   UNL     1       1.039  -0.377  22.072  0.00  0.00    +0.033 A 
ATOM     18  C   UNL     1       3.318   0.388  22.459  0.00  0.00    +0.122 A 
ATOM     19  C   UNL     1       2.401  -0.386  21.745  0.00  0.00    +0.048 A 
ATOM     21  H   UNL     1       1.184   2.493  25.477  0.00  0.00    +0.167 HD
ENDROOT
BRANCH  13   9
ATOM      2  N   UNL     1      -3.581   3.222  25.539  0.00  0.00    -0.301 NA
ATOM      9  C   UNL     1      -1.567   2.020  25.549  0.00  0.00    +0.070 C 
ATOM     10  C   UNL     1      -2.941   2.088  24.870  0.00  0.00    +0.095 C 
ATOM     11  C   UNL     1      -2.539   4.246  25.626  0.00  0.00    +0.085 C 
ATOM     12  C   UNL     1      -1.317   3.448  26.064  0.00  0.00    +0.028 C 
BRANCH   2   8
ATOM      8  C   UNL     1      -4.762   3.693  24.829  0.00  0.00    +0.088 C 
BRANCH   8   5
ATOM      5  C   UNL     1      -6.010   3.109  25.405  0.00  0.00    +0.003 C 
ATOM      6  C   UNL     1      -6.540   1.819  24.848  0.00  0.00    +0.005 C 
ATOM      7  C   UNL     1      -5.924   1.849  26.216  0.00  0.00    +0.005 C 
ENDBRANCH   8   5
ENDBRANCH   2   8
ENDBRANCH  13   9
BRANCH  18   1
ATOM      1  O   UNL     1       4.637   0.354  22.112  0.00  0.00    -0.495 OA
ATOM     20  C   UNL     1       5.573   0.095  23.156  0.00  0.00    +0.277 C 
ENDBRANCH  18   1
TORSDOF 4
ENDMDL
MODEL 5
REMARK VINA RESULT:      -2.3      2.939      7.548
REMARK  Name = 45784308
REMARK  5 active torsions:
REMARK  status: ('A' for Active; 'I' for Inactive)
REMARK    1  A    between atoms: O_1  and  C_18
REMARK    2  A    between atoms: O_1  and  C_20
REMARK    3  A    between atoms: N_2  and  C_8
REMARK    4  A    between atoms: C_5  and  C_8
REMARK    5  A    between atoms: C_9  and  C_13
REMARK                            x       y       z     vdW  Elec       q    Type
REMARK                         _______ _______ _______ _____ _____    ______ ____
ROOT
ATOM      3  N   UNL     1      -0.240  -0.921  23.381  0.00  0.00    -0.341 N 
ATOM      4  N   UNL     1      -0.737   1.183  23.896  0.00  0.00    -0.232 NA
ATOM     13  C   UNL     1      -1.208  -0.037  23.771  0.00  0.00    +0.113 A 
ATOM     14  C   UNL     1       0.932  -0.224  23.244  0.00  0.00    +0.070 A 
ATOM     15  C   UNL     1       0.597   1.086  23.570  0.00  0.00    +0.089 A 
ATOM     16  C   UNL     1       2.220  -0.617  22.873  0.00  0.00    +0.073 A 
ATOM     17  C   UNL     1       1.591   2.078  23.531  0.00  0.00    +0.033 A 
ATOM     18  C   UNL     1       3.196   0.383  22.839  0.00  0.00    +0.122 A 
ATOM     19  C   UNL     1       2.890   1.707  23.162  0.00  0.00    +0.048 A 
ATOM     21  H   UNL     1      -0.364  -1.913  23.221  0.00  0.00    +0.167 HD
ENDROOT
BRANCH  13   9
ATOM      2  N   UNL     1      -4.696   0.232  24.861  0.00  0.00    -0.301 NA
ATOM      9  C   UNL     1      -2.630  -0.486  24.014  0.00  0.00    +0.070 C 
ATOM     10  C   UNL     1      -3.642   0.665  23.942  0.00  0.00    +0.095 C 
ATOM     11  C   UNL     1      -3.986  -0.307  26.022  0.00  0.00    +0.085 C 
ATOM     12  C   UNL     1      -2.878  -1.137  25.385  0.00  0.00    +0.028 C 
BRANCH   2   8
ATOM      8  C   UNL     1      -5.602   1.314  25.219  0.00  0.00    +0.088 C 
BRANCH   8   5
ATOM      5  C   UNL     1      -5.045   2.642  24.822  0.00  0.00    +0.003 C 
ATOM      6  C   UNL     1      -5.537   3.880  25.514  0.00  0.00    +0.005 C 
ATOM      7  C   UNL     1      -4.148   3.376  25.777  0.00  0.00    +0.005 C 
ENDBRANCH   8   5
ENDBRANCH   2   8
ENDBRANCH  13   9
BRANCH  18   1
ATOM      1  O   UNL     1       4.472   0.058  22.483  0.00  0.00    -0.495 OA
ATOM     20  C   UNL     1       5.448   0.040  23.523  0.00  0.00    +0.277 C 
ENDBRANCH  18   1
TORSDOF 4
ENDMDL
MODEL 6
REMARK VINA RESULT:      -1.4     16.212     18.617
REMARK  Name = 45784308
REMARK  5 active torsions:
REMARK  status: ('A' for Active; 'I' for Inactive)
REMARK    1  A    between atoms: O_1  and  C_18
REMARK    2  A    between atoms: O_1  and  C_20
REMARK    3  A    between atoms: N_2  and  C_8
REMARK    4  A    between atoms: C_5  and  C_8
REMARK    5  A    between atoms: C_9  and  C_13
REMARK                            x       y       z     vdW  Elec       q    Type
REMARK                         _______ _______ _______ _____ _____    ______ ____
ROOT
ATOM      3  N   UNL     1      -4.254 -10.543  13.314  0.00  0.00    -0.341 N 
ATOM      4  N   UNL     1      -5.314  -9.860  11.483  0.00  0.00    -0.232 NA
ATOM     13  C   UNL     1      -5.455 -10.382  12.681  0.00  0.00    +0.113 A 
ATOM     14  C   UNL     1      -3.272 -10.096  12.467  0.00  0.00    +0.070 A 
ATOM     15  C   UNL     1      -3.959  -9.674  11.333  0.00  0.00    +0.089 A 
ATOM     16  C   UNL     1      -1.884 -10.025  12.594  0.00  0.00    +0.073 A 
ATOM     17  C   UNL     1      -3.235  -9.149  10.249  0.00  0.00    +0.033 A 
ATOM     18  C   UNL     1      -1.179  -9.500  11.507  0.00  0.00    +0.122 A 
ATOM     19  C   UNL     1      -1.840  -9.069  10.355  0.00  0.00    +0.048 A 
ATOM     21  H   UNL     1      -4.111 -10.924  14.240  0.00  0.00    +0.167 HD
ENDROOT
BRANCH  13   9
ATOM      2  N   UNL     1      -9.056 -10.341  13.356  0.00  0.00    -0.301 NA
ATOM      9  C   UNL     1      -6.752 -10.779  13.346  0.00  0.00    +0.070 C 
ATOM     10  C   UNL     1      -7.968 -10.634  12.421  0.00  0.00    +0.095 C 
ATOM     11  C   UNL     1      -8.492  -9.378  14.303  0.00  0.00    +0.085 C 
ATOM     12  C   UNL     1      -7.115  -9.962  14.597  0.00  0.00    +0.028 C 
BRANCH   2   8
ATOM      8  C   UNL     1     -10.243  -9.828  12.685  0.00  0.00    +0.088 C 
BRANCH   8   5
ATOM      5  C   UNL     1     -10.139  -9.984  11.204  0.00  0.00    +0.003 C 
ATOM      6  C   UNL     1     -10.718  -8.923  10.313  0.00  0.00    +0.005 C 
ATOM      7  C   UNL     1      -9.229  -9.073  10.433  0.00  0.00    +0.005 C 
ENDBRANCH   8   5
ENDBRANCH   2   8
ENDBRANCH  13   9
BRANCH  18   1
ATOM      1  O   UNL     1       0.180  -9.407  11.574  0.00  0.00    -0.495 OA
ATOM     20  C   UNL     1       0.829  -8.670  10.540  0.00  0.00    +0.277 C 
ENDBRANCH  18   1
TORSDOF 4
ENDMDL
MODEL 7
REMARK VINA RESULT:      -1.4      3.083      7.507
REMARK  Name = 45784308
REMARK  5 active torsions:
REMARK  status: ('A' for Active; 'I' for Inactive)
REMARK    1  A    between atoms: O_1  and  C_18
REMARK    2  A    between atoms: O_1  and  C_20
REMARK    3  A    between atoms: N_2  and  C_8
REMARK    4  A    between atoms: C_5  and  C_8
REMARK    5  A    between atoms: C_9  and  C_13
REMARK                            x       y       z     vdW  Elec       q    Type
REMARK                         _______ _______ _______ _____ _____    ______ ____
ROOT
ATOM      3  N   UNL     1       0.902   1.802  24.437  0.00  0.00    -0.341 N 
ATOM      4  N   UNL     1      -0.275   0.533  23.042  0.00  0.00    -0.232 NA
ATOM     13  C   UNL     1      -0.339   1.382  24.044  0.00  0.00    +0.113 A 
ATOM     14  C   UNL     1       1.827   1.183  23.637  0.00  0.00    +0.070 A 
ATOM     15  C   UNL     1       1.069   0.397  22.775  0.00  0.00    +0.089 A 
ATOM     16  C   UNL     1       3.221   1.242  23.595  0.00  0.00    +0.073 A 
ATOM     17  C   UNL     1       1.721  -0.384  21.806  0.00  0.00    +0.033 A 
ATOM     18  C   UNL     1       3.854   0.459  22.626  0.00  0.00    +0.122 A 
ATOM     19  C   UNL     1       3.120  -0.340  21.746  0.00  0.00    +0.048 A 
ATOM     21  H   UNL     1       1.104   2.453  25.185  0.00  0.00    +0.167 HD
ENDROOT
BRANCH  13   9
ATOM      2  N   UNL     1      -3.842   1.350  25.117  0.00  0.00    -0.301 NA
ATOM      9  C   UNL     1      -1.591   1.880  24.727  0.00  0.00    +0.070 C 
ATOM     10  C   UNL     1      -2.511   0.744  25.192  0.00  0.00    +0.095 C 
ATOM     11  C   UNL     1      -3.849   2.090  23.855  0.00  0.00    +0.085 C 
ATOM     12  C   UNL     1      -2.489   2.777  23.858  0.00  0.00    +0.028 C 
BRANCH   2   8
ATOM      8  C   UNL     1      -4.908   0.362  25.186  0.00  0.00    +0.088 C 
BRANCH   8   5
ATOM      5  C   UNL     1      -4.365  -1.028  25.127  0.00  0.00    +0.003 C 
ATOM      6  C   UNL     1      -4.643  -1.874  23.919  0.00  0.00    +0.005 C 
ATOM      7  C   UNL     1      -3.260  -1.344  24.162  0.00  0.00    +0.005 C 
ENDBRANCH   8   5
ENDBRANCH   2   8
ENDBRANCH  13   9
BRANCH  18   1
ATOM      1  O   UNL     1       5.215   0.476  22.538  0.00  0.00    -0.495 OA
ATOM     20  C   UNL     1       5.938  -0.179  23.578  0.00  0.00    +0.277 C 
ENDBRANCH  18   1
TORSDOF 4
ENDMDL
MODEL 8
REMARK VINA RESULT:      -0.9      2.723      7.414
REMARK  Name = 45784308
REMARK  5 active torsions:
REMARK  status: ('A' for Active; 'I' for Inactive)
REMARK    1  A    between atoms: O_1  and  C_18
REMARK    2  A    between atoms: O_1  and  C_20
REMARK    3  A    between atoms: N_2  and  C_8
REMARK    4  A    between atoms: C_5  and  C_8
REMARK    5  A    between atoms: C_9  and  C_13
REMARK                            x       y       z     vdW  Elec       q    Type
REMARK                         _______ _______ _______ _____ _____    ______ ____
ROOT
ATOM      3  N   UNL     1      -1.101   1.333  23.617  0.00  0.00    -0.341 N 
ATOM      4  N   UNL     1      -1.224  -0.886  23.640  0.00  0.00    -0.232 NA
ATOM     13  C   UNL     1      -1.908   0.233  23.710  0.00  0.00    +0.113 A 
ATOM     14  C   UNL     1       0.190   0.893  23.478  0.00  0.00    +0.070 A 
ATOM     15  C   UNL     1       0.087  -0.494  23.495  0.00  0.00    +0.089 A 
ATOM     16  C   UNL     1       1.403   1.571  23.343  0.00  0.00    +0.073 A 
ATOM     17  C   UNL     1       1.253  -1.270  23.372  0.00  0.00    +0.033 A 
ATOM     18  C   UNL     1       2.553   0.784  23.221  0.00  0.00    +0.122 A 
ATOM     19  C   UNL     1       2.481  -0.610  23.235  0.00  0.00    +0.048 A 
ATOM     21  H   UNL     1      -1.400   2.300  23.645  0.00  0.00    +0.167 HD
ENDROOT
BRANCH  13   9
ATOM      2  N   UNL     1      -5.060   1.668  24.907  0.00  0.00    -0.301 NA
ATOM      9  C   UNL     1      -3.404   0.369  23.872  0.00  0.00    +0.070 C 
ATOM     10  C   UNL     1      -3.853   1.820  24.092  0.00  0.00    +0.095 C 
ATOM     11  C   UNL     1      -4.722   0.643  25.895  0.00  0.00    +0.085 C 
ATOM     12  C   UNL     1      -4.000  -0.407  25.059  0.00  0.00    +0.028 C 
BRANCH   2   8
ATOM      8  C   UNL     1      -5.474   2.919  25.526  0.00  0.00    +0.088 C 
BRANCH   8   5
ATOM      5  C   UNL     1      -4.424   3.971  25.380  0.00  0.00    +0.003 C 
ATOM      6  C   UNL     1      -3.808   4.569  26.611  0.00  0.00    +0.005 C 
ATOM      7  C   UNL     1      -3.004   3.646  25.742  0.00  0.00    +0.005 C 
ENDBRANCH   8   5
ENDBRANCH   2   8
ENDBRANCH  13   9
BRANCH  18   1
ATOM      1  O   UNL     1       3.766   1.392  23.086  0.00  0.00    -0.495 OA
ATOM     20  C   UNL     1       4.920   0.597  23.350  0.00  0.00    +0.277 C 
ENDBRANCH  18   1
TORSDOF 4
ENDMDL
