MODEL 1
REMARK VINA RESULT:      -2.9      0.000      0.000
REMARK  Name = 26743177
REMARK  8 active torsions:
REMARK  status: ('A' for Active; 'I' for Inactive)
REMARK    1  A    between atoms: O_3  and  C_24
REMARK    2  A    between atoms: O_3  and  C_25
REMARK    3  A    between atoms: N_6  and  C_22
REMARK    4  A    between atoms: C_8  and  C_12
REMARK    5  A    between atoms: C_9  and  C_14
REMARK    6  A    between atoms: C_12  and  C_15
REMARK    7  A    between atoms: C_14  and  C_16
REMARK    8  A    between atoms: C_23  and  C_24
REMARK                            x       y       z     vdW  Elec       q    Type
REMARK                         _______ _______ _______ _____ _____    ______ ____
ROOT
ATOM      4  N   UNL     1      -4.524   5.179  26.540  0.00  0.00    -0.316 NA
ATOM      8  C   UNL     1      -3.564   2.778  25.119  0.00  0.00    +0.004 C 
ATOM      9  C   UNL     1      -2.616   3.731  25.885  0.00  0.00    +0.012 C 
ATOM     10  C   UNL     1      -4.980   2.899  25.707  0.00  0.00    +0.019 C 
ATOM     11  C   UNL     1      -3.181   5.159  25.956  0.00  0.00    +0.085 C 
ATOM     13  C   UNL     1      -5.458   4.348  25.784  0.00  0.00    +0.081 C 
ATOM     31  H   UNL     1      -4.868   6.139  26.562  0.00  0.00    +0.122 HD
ENDROOT
BRANCH   8  12
ATOM     12  C   UNL     1      -3.582   3.003  23.603  0.00  0.00    +0.100 C 
BRANCH  12  15
ATOM      1  O   UNL     1      -2.587   1.791  21.826  0.00  0.00    -0.276 OA
ATOM      5  N   UNL     1      -3.601   0.535  23.495  0.00  0.00    -0.299 N 
ATOM      6  N   UNL     1      -3.666  -1.892  25.016  0.00  0.00    -0.302 NA
ATOM     15  C   UNL     1      -3.210   1.727  22.889  0.00  0.00    +0.216 C 
ATOM     17  C   UNL     1      -3.272  -0.744  22.867  0.00  0.00    +0.123 C 
ATOM     18  C   UNL     1      -4.452   0.428  24.684  0.00  0.00    +0.123 C 
ATOM     19  C   UNL     1      -2.732  -1.741  23.891  0.00  0.00    +0.103 C 
ATOM     20  C   UNL     1      -3.894  -0.596  25.672  0.00  0.00    +0.103 C 
ATOM     22  C   UNL     1      -3.161  -2.872  25.976  0.00  0.00    +0.105 C 
ENDBRANCH  12  15
ENDBRANCH   8  12
BRANCH   9  14
ATOM     14  C   UNL     1      -1.195   3.744  25.320  0.00  0.00    +0.064 C 
BRANCH  14  16
ATOM      2  O   UNL     1      -0.461   0.223  25.164  0.00  0.00    -0.356 OA
ATOM      7  N   UNL     1      -1.022   1.336  25.778  0.00  0.00    -0.083 NA
ATOM     16  C   UNL     1      -0.734   2.359  24.968  0.00  0.00    +0.084 A 
ATOM     21  C   UNL     1      -0.002   1.956  23.838  0.00  0.00    +0.074 A 
ATOM     23  C   UNL     1       0.144   0.604  24.010  0.00  0.00    +0.175 A 
BRANCH  23  24
ATOM     24  C   UNL     1       0.793  -0.455  23.229  0.00  0.00    +0.306 C 
BRANCH  24   3
ATOM      3  O   UNL     1       1.850   0.090  22.435  0.00  0.00    -0.484 OA
BRANCH   3  25
ATOM     25  C   UNL     1       3.119  -0.066  22.920  0.00  0.00    +0.121 A 
ATOM     26  C   UNL     1       4.028   0.989  22.846  0.00  0.00    +0.045 A 
ATOM     27  C   UNL     1       3.504  -1.279  23.489  0.00  0.00    +0.045 A 
ATOM     28  C   UNL     1       5.322   0.831  23.340  0.00  0.00    +0.004 A 
ATOM     29  C   UNL     1       4.797  -1.438  23.984  0.00  0.00    +0.004 A 
ATOM     30  C   UNL     1       5.707  -0.383  23.909  0.00  0.00    +0.000 A 
ENDBRANCH   3  25
ENDBRANCH  24   3
ENDBRANCH  23  24
ENDBRANCH  14  16
ENDBRANCH   9  14
TORSDOF 7
ENDMDL
MODEL 2
REMARK VINA RESULT:      -2.7      1.664      4.347
REMARK  Name = 26743177
REMARK  8 active torsions:
REMARK  status: ('A' for Active; 'I' for Inactive)
REMARK    1  A    between atoms: O_3  and  C_24
REMARK    2  A    between atoms: O_3  and  C_25
REMARK    3  A    between atoms: N_6  and  C_22
REMARK    4  A    between atoms: C_8  and  C_12
REMARK    5  A    between atoms: C_9  and  C_14
REMARK    6  A    between atoms: C_12  and  C_15
REMARK    7  A    between atoms: C_14  and  C_16
REMARK    8  A    between atoms: C_23  and  C_24
REMARK                            x       y       z     vdW  Elec       q    Type
REMARK                         _______ _______ _______ _____ _____    ______ ____
ROOT
ATOM      4  N   UNL     1      -3.701  -3.424  24.312  0.00  0.00    -0.316 NA
ATOM      8  C   UNL     1      -3.593  -0.475  24.330  0.00  0.00    +0.004 C 
ATOM      9  C   UNL     1      -2.441  -1.357  24.867  0.00  0.00    +0.012 C 
ATOM     10  C   UNL     1      -4.407  -1.282  23.304  0.00  0.00    +0.019 C 
ATOM     11  C   UNL     1      -2.951  -2.723  25.356  0.00  0.00    +0.085 C 
ATOM     13  C   UNL     1      -4.844  -2.642  23.846  0.00  0.00    +0.081 C 
ATOM     31  H   UNL     1      -4.030  -4.318  24.676  0.00  0.00    +0.122 HD
ENDROOT
BRANCH   8  12
ATOM     12  C   UNL     1      -4.505   0.093  25.423  0.00  0.00    +0.100 C 
BRANCH  12  15
ATOM      1  O   UNL     1      -6.327   1.537  24.964  0.00  0.00    -0.276 OA
ATOM      5  N   UNL     1      -4.204   2.394  24.576  0.00  0.00    -0.299 N 
ATOM      6  N   UNL     1      -2.474   4.677  24.512  0.00  0.00    -0.302 NA
ATOM     15  C   UNL     1      -5.101   1.402  24.968  0.00  0.00    +0.216 C 
ATOM     17  C   UNL     1      -4.704   3.693  24.126  0.00  0.00    +0.123 C 
ATOM     18  C   UNL     1      -2.754   2.222  24.444  0.00  0.00    +0.123 C 
ATOM     19  C   UNL     1      -3.914   4.839  24.757  0.00  0.00    +0.103 C 
ATOM     20  C   UNL     1      -1.999   3.398  25.062  0.00  0.00    +0.103 C 
ATOM     22  C   UNL     1      -1.726   5.793  25.088  0.00  0.00    +0.105 C 
ENDBRANCH  12  15
ENDBRANCH   8  12
BRANCH   9  14
ATOM     14  C   UNL     1      -1.618  -0.670  25.957  0.00  0.00    +0.064 C 
BRANCH  14  16
ATOM      2  O   UNL     1       0.756   1.939  25.235  0.00  0.00    -0.356 OA
ATOM      7  N   UNL     1      -0.183   1.323  26.053  0.00  0.00    -0.083 NA
ATOM     16  C   UNL     1      -0.588   0.250  25.367  0.00  0.00    +0.084 A 
ATOM     21  C   UNL     1       0.056   0.137  24.123  0.00  0.00    +0.074 A 
ATOM     23  C   UNL     1       0.890   1.224  24.088  0.00  0.00    +0.175 A 
BRANCH  23  24
ATOM     24  C   UNL     1       1.849   1.737  23.104  0.00  0.00    +0.306 C 
BRANCH  24   3
ATOM      3  O   UNL     1       2.478   0.655  22.412  0.00  0.00    -0.484 OA
BRANCH   3  25
ATOM     25  C   UNL     1       3.604   0.135  22.987  0.00  0.00    +0.121 A 
ATOM     26  C   UNL     1       4.742   0.927  23.131  0.00  0.00    +0.045 A 
ATOM     27  C   UNL     1       3.613  -1.187  23.430  0.00  0.00    +0.045 A 
ATOM     28  C   UNL     1       5.891   0.397  23.718  0.00  0.00    +0.004 A 
ATOM     29  C   UNL     1       4.761  -1.717  24.018  0.00  0.00    +0.004 A 
ATOM     30  C   UNL     1       5.901  -0.925  24.161  0.00  0.00    +0.000 A 
ENDBRANCH   3  25
ENDBRANCH  24   3
ENDBRANCH  23  24
ENDBRANCH  14  16
ENDBRANCH   9  14
TORSDOF 7
ENDMDL
MODEL 3
REMARK VINA RESULT:      -2.3      2.209      6.779
REMARK  Name = 26743177
REMARK  8 active torsions:
REMARK  status: ('A' for Active; 'I' for Inactive)
REMARK    1  A    between atoms: O_3  and  C_24
REMARK    2  A    between atoms: O_3  and  C_25
REMARK    3  A    between atoms: N_6  and  C_22
REMARK    4  A    between atoms: C_8  and  C_12
REMARK    5  A    between atoms: C_9  and  C_14
REMARK    6  A    between atoms: C_12  and  C_15
REMARK    7  A    between atoms: C_14  and  C_16
REMARK    8  A    between atoms: C_23  and  C_24
REMARK                            x       y       z     vdW  Elec       q    Type
REMARK                         _______ _______ _______ _____ _____    ______ ____
ROOT
ATOM      4  N   UNL     1      -1.703  -3.309  25.407  0.00  0.00    -0.316 NA
ATOM      8  C   UNL     1      -1.150  -0.540  24.550  0.00  0.00    +0.004 C 
ATOM      9  C   UNL     1      -2.566  -1.163  24.504  0.00  0.00    +0.012 C 
ATOM     10  C   UNL     1      -0.311  -1.278  25.607  0.00  0.00    +0.019 C 
ATOM     11  C   UNL     1      -2.510  -2.692  24.353  0.00  0.00    +0.085 C 
ATOM     13  C   UNL     1      -0.335  -2.795  25.417  0.00  0.00    +0.081 C 
ATOM     31  H   UNL     1      -1.682  -4.320  25.269  0.00  0.00    +0.122 HD
ENDROOT
BRANCH   8  12
ATOM     12  C   UNL     1      -0.432  -0.527  23.196  0.00  0.00    +0.100 C 
BRANCH  12  15
ATOM      1  O   UNL     1       0.069   1.788  23.281  0.00  0.00    -0.276 OA
ATOM      5  N   UNL     1       1.854   0.356  22.888  0.00  0.00    -0.299 N 
ATOM      6  N   UNL     1       4.652  -0.187  23.184  0.00  0.00    -0.302 NA
ATOM     15  C   UNL     1       0.512   0.648  23.126  0.00  0.00    +0.216 C 
ATOM     17  C   UNL     1       2.833   1.439  22.811  0.00  0.00    +0.123 C 
ATOM     18  C   UNL     1       2.389  -0.971  22.568  0.00  0.00    +0.123 C 
ATOM     19  C   UNL     1       4.093   1.105  23.608  0.00  0.00    +0.103 C 
ATOM     20  C   UNL     1       3.662  -1.259  23.365  0.00  0.00    +0.103 C 
ATOM     22  C   UNL     1       5.875  -0.486  23.925  0.00  0.00    +0.105 C 
ENDBRANCH  12  15
ENDBRANCH   8  12
BRANCH   9  14
ATOM     14  C   UNL     1      -3.457  -0.549  23.424  0.00  0.00    +0.064 C 
BRANCH  14  16
ATOM      2  O   UNL     1      -3.829   3.032  23.448  0.00  0.00    -0.356 OA
ATOM      7  N   UNL     1      -3.384   1.846  22.877  0.00  0.00    -0.083 NA
ATOM     16  C   UNL     1      -3.771   0.888  23.726  0.00  0.00    +0.084 A 
ATOM     21  C   UNL     1      -4.458   1.405  24.837  0.00  0.00    +0.074 A 
ATOM     23  C   UNL     1      -4.467   2.757  24.615  0.00  0.00    +0.175 A 
BRANCH  23  24
ATOM     24  C   UNL     1      -5.004   3.905  25.354  0.00  0.00    +0.306 C 
BRANCH  24   3
ATOM      3  O   UNL     1      -4.049   4.370  26.312  0.00  0.00    -0.484 OA
BRANCH   3  25
ATOM     25  C   UNL     1      -2.731   4.219  25.982  0.00  0.00    +0.121 A 
ATOM     26  C   UNL     1      -2.029   3.094  26.412  0.00  0.00    +0.045 A 
ATOM     27  C   UNL     1      -2.090   5.190  25.213  0.00  0.00    +0.045 A 
ATOM     28  C   UNL     1      -0.684   2.940  26.075  0.00  0.00    +0.004 A 
ATOM     29  C   UNL     1      -0.746   5.036  24.875  0.00  0.00    +0.004 A 
ATOM     30  C   UNL     1      -0.042   3.911  25.307  0.00  0.00    +0.000 A 
ENDBRANCH   3  25
ENDBRANCH  24   3
ENDBRANCH  23  24
ENDBRANCH  14  16
ENDBRANCH   9  14
TORSDOF 7
ENDMDL
MODEL 4
REMARK VINA RESULT:      -2.2      1.979      6.523
REMARK  Name = 26743177
REMARK  8 active torsions:
REMARK  status: ('A' for Active; 'I' for Inactive)
REMARK    1  A    between atoms: O_3  and  C_24
REMARK    2  A    between atoms: O_3  and  C_25
REMARK    3  A    between atoms: N_6  and  C_22
REMARK    4  A    between atoms: C_8  and  C_12
REMARK    5  A    between atoms: C_9  and  C_14
REMARK    6  A    between atoms: C_12  and  C_15
REMARK    7  A    between atoms: C_14  and  C_16
REMARK    8  A    between atoms: C_23  and  C_24
REMARK                            x       y       z     vdW  Elec       q    Type
REMARK                         _______ _______ _______ _____ _____    ______ ____
ROOT
ATOM      4  N   UNL     1      -4.451  -3.434  23.980  0.00  0.00    -0.316 NA
ATOM      8  C   UNL     1      -2.788  -1.257  25.077  0.00  0.00    +0.004 C 
ATOM      9  C   UNL     1      -3.803  -1.038  23.929  0.00  0.00    +0.012 C 
ATOM     10  C   UNL     1      -3.217  -2.485  25.898  0.00  0.00    +0.019 C 
ATOM     11  C   UNL     1      -4.033  -2.325  23.121  0.00  0.00    +0.085 C 
ATOM     13  C   UNL     1      -3.467  -3.714  25.024  0.00  0.00    +0.081 C 
ATOM     31  H   UNL     1      -4.585  -4.270  23.411  0.00  0.00    +0.122 HD
ENDROOT
BRANCH   8  12
ATOM     12  C   UNL     1      -1.336  -1.396  24.607  0.00  0.00    +0.100 C 
BRANCH  12  15
ATOM      1  O   UNL     1      -0.841   0.582  25.816  0.00  0.00    -0.276 OA
ATOM      5  N   UNL     1       0.321   0.262  23.831  0.00  0.00    -0.299 N 
ATOM      6  N   UNL     1       2.724   0.669  22.323  0.00  0.00    -0.302 NA
ATOM     15  C   UNL     1      -0.602  -0.094  24.812  0.00  0.00    +0.216 C 
ATOM     17  C   UNL     1       1.077   1.508  23.960  0.00  0.00    +0.123 C 
ATOM     18  C   UNL     1       0.532  -0.449  22.566  0.00  0.00    +0.123 C 
ATOM     19  C   UNL     1       2.557   1.293  23.644  0.00  0.00    +0.103 C 
ATOM     20  C   UNL     1       2.022  -0.622  22.272  0.00  0.00    +0.103 C 
ATOM     22  C   UNL     1       4.142   0.496  22.012  0.00  0.00    +0.105 C 
ENDBRANCH  12  15
ENDBRANCH   8  12
BRANCH   9  14
ATOM     14  C   UNL     1      -3.419   0.116  23.003  0.00  0.00    +0.064 C 
BRANCH  14  16
ATOM      2  O   UNL     1      -4.129   3.579  23.687  0.00  0.00    -0.356 OA
ATOM      7  N   UNL     1      -3.680   2.556  22.862  0.00  0.00    -0.083 NA
ATOM     16  C   UNL     1      -3.813   1.442  23.588  0.00  0.00    +0.084 A 
ATOM     21  C   UNL     1      -4.338   1.698  24.867  0.00  0.00    +0.074 A 
ATOM     23  C   UNL     1      -4.519   3.055  24.879  0.00  0.00    +0.175 A 
BRANCH  23  24
ATOM     24  C   UNL     1      -5.025   4.004  25.877  0.00  0.00    +0.306 C 
BRANCH  24   3
ATOM      3  O   UNL     1      -3.949   4.510  26.672  0.00  0.00    -0.484 OA
BRANCH   3  25
ATOM     25  C   UNL     1      -2.717   4.538  26.082  0.00  0.00    +0.121 A 
ATOM     26  C   UNL     1      -2.353   5.618  25.278  0.00  0.00    +0.045 A 
ATOM     27  C   UNL     1      -1.822   3.488  26.286  0.00  0.00    +0.045 A 
ATOM     28  C   UNL     1      -1.095   5.647  24.675  0.00  0.00    +0.004 A 
ATOM     29  C   UNL     1      -0.564   3.517  25.685  0.00  0.00    +0.004 A 
ATOM     30  C   UNL     1      -0.201   4.596  24.879  0.00  0.00    +0.000 A 
ENDBRANCH   3  25
ENDBRANCH  24   3
ENDBRANCH  23  24
ENDBRANCH  14  16
ENDBRANCH   9  14
TORSDOF 7
ENDMDL
MODEL 5
REMARK VINA RESULT:      -2.0      1.352      1.982
REMARK  Name = 26743177
REMARK  8 active torsions:
REMARK  status: ('A' for Active; 'I' for Inactive)
REMARK    1  A    between atoms: O_3  and  C_24
REMARK    2  A    between atoms: O_3  and  C_25
REMARK    3  A    between atoms: N_6  and  C_22
REMARK    4  A    between atoms: C_8  and  C_12
REMARK    5  A    between atoms: C_9  and  C_14
REMARK    6  A    between atoms: C_12  and  C_15
REMARK    7  A    between atoms: C_14  and  C_16
REMARK    8  A    between atoms: C_23  and  C_24
REMARK                            x       y       z     vdW  Elec       q    Type
REMARK                         _______ _______ _______ _____ _____    ______ ____
ROOT
ATOM      4  N   UNL     1      -0.509   4.532  23.933  0.00  0.00    -0.316 NA
ATOM      8  C   UNL     1      -2.298   3.834  26.174  0.00  0.00    +0.004 C 
ATOM      9  C   UNL     1      -1.126   2.928  25.725  0.00  0.00    +0.012 C 
ATOM     10  C   UNL     1      -2.001   5.283  25.753  0.00  0.00    +0.019 C 
ATOM     11  C   UNL     1      -0.790   3.128  24.238  0.00  0.00    +0.085 C 
ATOM     13  C   UNL     1      -1.635   5.399  24.273  0.00  0.00    +0.081 C 
ATOM     31  H   UNL     1      -0.300   4.626  22.939  0.00  0.00    +0.122 HD
ENDROOT
BRANCH   8  12
ATOM     12  C   UNL     1      -3.668   3.385  25.652  0.00  0.00    +0.100 C 
BRANCH  12  15
ATOM      1  O   UNL     1      -3.003   3.233  23.383  0.00  0.00    -0.276 OA
ATOM      5  N   UNL     1      -3.942   1.326  24.316  0.00  0.00    -0.299 N 
ATOM      6  N   UNL     1      -4.076  -1.535  24.393  0.00  0.00    -0.302 NA
ATOM     15  C   UNL     1      -3.505   2.649  24.346  0.00  0.00    +0.216 C 
ATOM     17  C   UNL     1      -3.814   0.543  23.087  0.00  0.00    +0.123 C 
ATOM     18  C   UNL     1      -4.661   0.647  25.398  0.00  0.00    +0.123 C 
ATOM     19  C   UNL     1      -3.264  -0.853  23.375  0.00  0.00    +0.103 C 
ATOM     20  C   UNL     1      -4.100  -0.755  25.639  0.00  0.00    +0.103 C 
ATOM     22  C   UNL     1      -3.566  -2.882  24.639  0.00  0.00    +0.105 C 
ENDBRANCH  12  15
ENDBRANCH   8  12
BRANCH   9  14
ATOM     14  C   UNL     1      -1.364   1.448  26.027  0.00  0.00    +0.064 C 
BRANCH  14  16
ATOM      2  O   UNL     1       0.161  -1.251  24.195  0.00  0.00    -0.356 OA
ATOM      7  N   UNL     1      -0.552  -0.747  25.276  0.00  0.00    -0.083 NA
ATOM     16  C   UNL     1      -0.643   0.567  25.047  0.00  0.00    +0.084 A 
ATOM     21  C   UNL     1      -0.014   0.945  23.848  0.00  0.00    +0.074 A 
ATOM     23  C   UNL     1       0.476  -0.234  23.352  0.00  0.00    +0.175 A 
BRANCH  23  24
ATOM     24  C   UNL     1       1.235  -0.592  22.148  0.00  0.00    +0.306 C 
BRANCH  24   3
ATOM      3  O   UNL     1       2.351   0.287  21.985  0.00  0.00    -0.484 OA
BRANCH   3  25
ATOM     25  C   UNL     1       3.463   0.005  22.728  0.00  0.00    +0.121 A 
ATOM     26  C   UNL     1       4.429   0.988  22.939  0.00  0.00    +0.045 A 
ATOM     27  C   UNL     1       3.630  -1.266  23.277  0.00  0.00    +0.045 A 
ATOM     28  C   UNL     1       5.564   0.700  23.697  0.00  0.00    +0.004 A 
ATOM     29  C   UNL     1       4.764  -1.554  24.036  0.00  0.00    +0.004 A 
ATOM     30  C   UNL     1       5.731  -0.571  24.246  0.00  0.00    +0.000 A 
ENDBRANCH   3  25
ENDBRANCH  24   3
ENDBRANCH  23  24
ENDBRANCH  14  16
ENDBRANCH   9  14
TORSDOF 7
ENDMDL
MODEL 6
REMARK VINA RESULT:      -1.7      1.654      2.243
REMARK  Name = 26743177
REMARK  8 active torsions:
REMARK  status: ('A' for Active; 'I' for Inactive)
REMARK    1  A    between atoms: O_3  and  C_24
REMARK    2  A    between atoms: O_3  and  C_25
REMARK    3  A    between atoms: N_6  and  C_22
REMARK    4  A    between atoms: C_8  and  C_12
REMARK    5  A    between atoms: C_9  and  C_14
REMARK    6  A    between atoms: C_12  and  C_15
REMARK    7  A    between atoms: C_14  and  C_16
REMARK    8  A    between atoms: C_23  and  C_24
REMARK                            x       y       z     vdW  Elec       q    Type
REMARK                         _______ _______ _______ _____ _____    ______ ____
ROOT
ATOM      4  N   UNL     1      -5.949   3.406  26.088  0.00  0.00    -0.316 NA
ATOM      8  C   UNL     1      -3.907   1.479  25.178  0.00  0.00    +0.004 C 
ATOM      9  C   UNL     1      -3.701   3.011  25.108  0.00  0.00    +0.012 C 
ATOM     10  C   UNL     1      -4.936   1.160  26.276  0.00  0.00    +0.019 C 
ATOM     11  C   UNL     1      -5.040   3.760  24.996  0.00  0.00    +0.085 C 
ATOM     13  C   UNL     1      -6.223   1.970  26.123  0.00  0.00    +0.081 C 
ATOM     31  H   UNL     1      -6.826   3.914  25.975  0.00  0.00    +0.122 HD
ENDROOT
BRANCH   8  12
ATOM     12  C   UNL     1      -4.318   0.844  23.845  0.00  0.00    +0.100 C 
BRANCH  12  15
ATOM      1  O   UNL     1      -5.081  -1.341  23.334  0.00  0.00    -0.276 OA
ATOM      5  N   UNL     1      -3.248  -1.188  24.752  0.00  0.00    -0.299 N 
ATOM      6  N   UNL     1      -0.806  -2.343  25.708  0.00  0.00    -0.302 NA
ATOM     15  C   UNL     1      -4.257  -0.659  23.950  0.00  0.00    +0.216 C 
ATOM     17  C   UNL     1      -3.120  -2.638  24.901  0.00  0.00    +0.123 C 
ATOM     18  C   UNL     1      -2.341  -0.408  25.598  0.00  0.00    +0.123 C 
ATOM     19  C   UNL     1      -1.664  -3.081  24.770  0.00  0.00    +0.103 C 
ATOM     20  C   UNL     1      -0.899  -0.897  25.459  0.00  0.00    +0.103 C 
ATOM     22  C   UNL     1       0.580  -2.795  25.601  0.00  0.00    +0.105 C 
ENDBRANCH  12  15
ENDBRANCH   8  12
BRANCH   9  14
ATOM     14  C   UNL     1      -2.752   3.438  23.988  0.00  0.00    +0.064 C 
BRANCH  14  16
ATOM      2  O   UNL     1       0.397   1.758  24.460  0.00  0.00    -0.356 OA
ATOM      7  N   UNL     1      -0.538   2.733  24.787  0.00  0.00    -0.083 NA
ATOM     16  C   UNL     1      -1.544   2.548  23.926  0.00  0.00    +0.084 A 
ATOM     21  C   UNL     1      -1.303   1.482  23.043  0.00  0.00    +0.074 A 
ATOM     23  C   UNL     1      -0.070   1.019  23.421  0.00  0.00    +0.175 A 
BRANCH  23  24
ATOM     24  C   UNL     1       0.798  -0.063  22.944  0.00  0.00    +0.306 C 
BRANCH  24   3
ATOM      3  O   UNL     1       1.968   0.475  22.322  0.00  0.00    -0.484 OA
BRANCH   3  25
ATOM     25  C   UNL     1       3.168   0.136  22.883  0.00  0.00    +0.121 A 
ATOM     26  C   UNL     1       3.369  -1.154  23.371  0.00  0.00    +0.045 A 
ATOM     27  C   UNL     1       4.190   1.080  22.965  0.00  0.00    +0.045 A 
ATOM     28  C   UNL     1       4.593  -1.501  23.943  0.00  0.00    +0.004 A 
ATOM     29  C   UNL     1       5.415   0.734  23.536  0.00  0.00    +0.004 A 
ATOM     30  C   UNL     1       5.616  -0.556  24.026  0.00  0.00    +0.000 A 
ENDBRANCH   3  25
ENDBRANCH  24   3
ENDBRANCH  23  24
ENDBRANCH  14  16
ENDBRANCH   9  14
TORSDOF 7
ENDMDL
MODEL 7
REMARK VINA RESULT:      -0.9      1.575      2.151
REMARK  Name = 26743177
REMARK  8 active torsions:
REMARK  status: ('A' for Active; 'I' for Inactive)
REMARK    1  A    between atoms: O_3  and  C_24
REMARK    2  A    between atoms: O_3  and  C_25
REMARK    3  A    between atoms: N_6  and  C_22
REMARK    4  A    between atoms: C_8  and  C_12
REMARK    5  A    between atoms: C_9  and  C_14
REMARK    6  A    between atoms: C_12  and  C_15
REMARK    7  A    between atoms: C_14  and  C_16
REMARK    8  A    between atoms: C_23  and  C_24
REMARK                            x       y       z     vdW  Elec       q    Type
REMARK                         _______ _______ _______ _____ _____    ______ ____
ROOT
ATOM      4  N   UNL     1      -3.811   3.410  22.950  0.00  0.00    -0.316 NA
ATOM      8  C   UNL     1      -3.902   3.526  25.897  0.00  0.00    +0.004 C 
ATOM      9  C   UNL     1      -2.588   3.313  25.109  0.00  0.00    +0.012 C 
ATOM     10  C   UNL     1      -4.919   4.245  24.994  0.00  0.00    +0.019 C 
ATOM     11  C   UNL     1      -2.844   2.651  23.745  0.00  0.00    +0.085 C 
ATOM     13  C   UNL     1      -5.090   3.553  23.642  0.00  0.00    +0.081 C 
ATOM     31  H   UNL     1      -3.961   2.936  22.059  0.00  0.00    +0.122 HD
ENDROOT
BRANCH   8  12
ATOM     12  C   UNL     1      -4.500   2.237  26.471  0.00  0.00    +0.100 C 
BRANCH  12  15
ATOM      1  O   UNL     1      -5.804   1.767  24.549  0.00  0.00    -0.276 OA
ATOM      5  N   UNL     1      -4.408   0.068  25.293  0.00  0.00    -0.299 N 
ATOM      6  N   UNL     1      -2.780  -2.202  24.653  0.00  0.00    -0.302 NA
ATOM     15  C   UNL     1      -4.968   1.342  25.350  0.00  0.00    +0.216 C 
ATOM     17  C   UNL     1      -4.806  -0.857  24.232  0.00  0.00    +0.123 C 
ATOM     18  C   UNL     1      -3.515  -0.512  26.301  0.00  0.00    +0.123 C 
ATOM     19  C   UNL     1      -3.592  -1.549  23.615  0.00  0.00    +0.103 C 
ATOM     20  C   UNL     1      -2.327  -1.217  25.646  0.00  0.00    +0.103 C 
ATOM     22  C   UNL     1      -1.639  -2.891  24.054  0.00  0.00    +0.105 C 
ENDBRANCH  12  15
ENDBRANCH   8  12
BRANCH   9  14
ATOM     14  C   UNL     1      -1.536   2.531  25.896  0.00  0.00    +0.064 C 
BRANCH  14  16
ATOM      2  O   UNL     1       1.350   1.636  23.939  0.00  0.00    -0.356 OA
ATOM      7  N   UNL     1       0.678   2.460  24.833  0.00  0.00    -0.083 NA
ATOM     16  C   UNL     1      -0.526   1.899  24.982  0.00  0.00    +0.084 A 
ATOM     21  C   UNL     1      -0.669   0.730  24.216  0.00  0.00    +0.074 A 
ATOM     23  C   UNL     1       0.537   0.609  23.579  0.00  0.00    +0.175 A 
BRANCH  23  24
ATOM     24  C   UNL     1       1.093  -0.365  22.632  0.00  0.00    +0.306 C 
BRANCH  24   3
ATOM      3  O   UNL     1       2.304   0.134  22.059  0.00  0.00    -0.484 OA
BRANCH   3  25
ATOM     25  C   UNL     1       3.452  -0.094  22.766  0.00  0.00    +0.121 A 
ATOM     26  C   UNL     1       3.659  -1.330  23.378  0.00  0.00    +0.045 A 
ATOM     27  C   UNL     1       4.415   0.908  22.875  0.00  0.00    +0.045 A 
ATOM     28  C   UNL     1       4.830  -1.564  24.099  0.00  0.00    +0.004 A 
ATOM     29  C   UNL     1       5.586   0.675  23.595  0.00  0.00    +0.004 A 
ATOM     30  C   UNL     1       5.794  -0.561  24.208  0.00  0.00    +0.000 A 
ENDBRANCH   3  25
ENDBRANCH  24   3
ENDBRANCH  23  24
ENDBRANCH  14  16
ENDBRANCH   9  14
TORSDOF 7
ENDMDL
MODEL 8
REMARK VINA RESULT:      -0.2      2.358      6.102
REMARK  Name = 26743177
REMARK  8 active torsions:
REMARK  status: ('A' for Active; 'I' for Inactive)
REMARK    1  A    between atoms: O_3  and  C_24
REMARK    2  A    between atoms: O_3  and  C_25
REMARK    3  A    between atoms: N_6  and  C_22
REMARK    4  A    between atoms: C_8  and  C_12
REMARK    5  A    between atoms: C_9  and  C_14
REMARK    6  A    between atoms: C_12  and  C_15
REMARK    7  A    between atoms: C_14  and  C_16
REMARK    8  A    between atoms: C_23  and  C_24
REMARK                            x       y       z     vdW  Elec       q    Type
REMARK                         _______ _______ _______ _____ _____    ______ ____
ROOT
ATOM      4  N   UNL     1       2.457   0.735  22.160  0.00  0.00    -0.316 NA
ATOM      8  C   UNL     1       0.012   0.411  23.781  0.00  0.00    +0.004 C 
ATOM      9  C   UNL     1       0.914   1.666  23.869  0.00  0.00    +0.012 C 
ATOM     10  C   UNL     1       0.205  -0.250  22.406  0.00  0.00    +0.019 C 
ATOM     11  C   UNL     1       2.369   1.348  23.487  0.00  0.00    +0.085 C 
ATOM     13  C   UNL     1       1.677  -0.498  22.078  0.00  0.00    +0.081 C 
ATOM     31  H   UNL     1       3.433   0.531  21.946  0.00  0.00    +0.122 HD
ENDROOT
BRANCH   8  12
ATOM     12  C   UNL     1       0.241  -0.601  24.909  0.00  0.00    +0.100 C 
BRANCH  12  15
ATOM      1  O   UNL     1      -1.242  -0.013  26.661  0.00  0.00    -0.276 OA
ATOM      5  N   UNL     1      -1.881  -1.796  25.318  0.00  0.00    -0.299 N 
ATOM      6  N   UNL     1      -4.002  -3.310  24.128  0.00  0.00    -0.302 NA
ATOM     15  C   UNL     1      -1.024  -0.771  25.713  0.00  0.00    +0.216 C 
ATOM     17  C   UNL     1      -3.131  -2.022  26.044  0.00  0.00    +0.123 C 
ATOM     18  C   UNL     1      -1.590  -2.794  24.284  0.00  0.00    +0.123 C 
ATOM     19  C   UNL     1      -4.299  -2.233  25.083  0.00  0.00    +0.103 C 
ATOM     20  C   UNL     1      -2.790  -2.996  23.358  0.00  0.00    +0.103 C 
ATOM     22  C   UNL     1      -5.137  -3.531  23.233  0.00  0.00    +0.105 C 
ENDBRANCH  12  15
ENDBRANCH   8  12
BRANCH   9  14
ATOM     14  C   UNL     1       0.856   2.351  25.235  0.00  0.00    +0.064 C 
BRANCH  14  16
ATOM      2  O   UNL     1      -1.568   5.006  25.029  0.00  0.00    -0.356 OA
ATOM      7  N   UNL     1      -0.333   4.442  24.732  0.00  0.00    -0.083 NA
ATOM     16  C   UNL     1      -0.340   3.254  25.343  0.00  0.00    +0.084 A 
ATOM     21  C   UNL     1      -1.541   3.015  26.032  0.00  0.00    +0.074 A 
ATOM     23  C   UNL     1      -2.278   4.146  25.804  0.00  0.00    +0.175 A 
BRANCH  23  24
ATOM     24  C   UNL     1      -3.617   4.586  26.213  0.00  0.00    +0.306 C 
BRANCH  24   3
ATOM      3  O   UNL     1      -4.601   4.099  25.297  0.00  0.00    -0.484 OA
BRANCH   3  25
ATOM     25  C   UNL     1      -4.283   2.962  24.607  0.00  0.00    +0.121 A 
ATOM     26  C   UNL     1      -3.543   3.047  23.429  0.00  0.00    +0.045 A 
ATOM     27  C   UNL     1      -4.697   1.719  25.083  0.00  0.00    +0.045 A 
ATOM     28  C   UNL     1      -3.218   1.887  22.724  0.00  0.00    +0.004 A 
ATOM     29  C   UNL     1      -4.371   0.559  24.380  0.00  0.00    +0.004 A 
ATOM     30  C   UNL     1      -3.632   0.644  23.200  0.00  0.00    +0.000 A 
ENDBRANCH   3  25
ENDBRANCH  24   3
ENDBRANCH  23  24
ENDBRANCH  14  16
ENDBRANCH   9  14
TORSDOF 7
ENDMDL
MODEL 9
REMARK VINA RESULT:       0.0      2.365      7.248
REMARK  Name = 26743177
REMARK  8 active torsions:
REMARK  status: ('A' for Active; 'I' for Inactive)
REMARK    1  A    between atoms: O_3  and  C_24
REMARK    2  A    between atoms: O_3  and  C_25
REMARK    3  A    between atoms: N_6  and  C_22
REMARK    4  A    between atoms: C_8  and  C_12
REMARK    5  A    between atoms: C_9  and  C_14
REMARK    6  A    between atoms: C_12  and  C_15
REMARK    7  A    between atoms: C_14  and  C_16
REMARK    8  A    between atoms: C_23  and  C_24
REMARK                            x       y       z     vdW  Elec       q    Type
REMARK                         _______ _______ _______ _____ _____    ______ ____
ROOT
ATOM      4  N   UNL     1      -2.827  -0.775  25.582  0.00  0.00    -0.316 NA
ATOM      8  C   UNL     1       0.016  -0.885  24.799  0.00  0.00    +0.004 C 
ATOM      9  C   UNL     1      -0.610   0.340  25.508  0.00  0.00    +0.012 C 
ATOM     10  C   UNL     1      -0.815  -2.136  25.131  0.00  0.00    +0.019 C 
ATOM     11  C   UNL     1      -2.117   0.454  25.223  0.00  0.00    +0.085 C 
ATOM     13  C   UNL     1      -2.306  -1.935  24.861  0.00  0.00    +0.081 C 
ATOM     31  H   UNL     1      -3.819  -0.665  25.371  0.00  0.00    +0.122 HD
ENDROOT
BRANCH   8  12
ATOM     12  C   UNL     1       0.167  -0.717  23.283  0.00  0.00    +0.100 C 
BRANCH  12  15
ATOM      1  O   UNL     1       0.743   1.540  22.846  0.00  0.00    -0.276 OA
ATOM      5  N   UNL     1       2.492   0.012  22.880  0.00  0.00    -0.299 N 
ATOM      6  N   UNL     1       5.256  -0.513  23.420  0.00  0.00    -0.302 NA
ATOM     15  C   UNL     1       1.153   0.384  22.982  0.00  0.00    +0.216 C 
ATOM     17  C   UNL     1       3.509   1.023  22.595  0.00  0.00    +0.123 C 
ATOM     18  C   UNL     1       2.993  -1.365  22.905  0.00  0.00    +0.123 C 
ATOM     19  C   UNL     1       4.726   0.856  23.504  0.00  0.00    +0.103 C 
ATOM     20  C   UNL     1       4.224  -1.488  23.803  0.00  0.00    +0.103 C 
ATOM     22  C   UNL     1       6.440  -0.659  24.265  0.00  0.00    +0.105 C 
ENDBRANCH  12  15
ENDBRANCH   8  12
BRANCH   9  14
ATOM     14  C   UNL     1       0.100   1.653  25.175  0.00  0.00    +0.064 C 
BRANCH  14  16
ATOM      2  O   UNL     1      -1.640   4.801  25.010  0.00  0.00    -0.356 OA
ATOM      7  N   UNL     1      -0.639   3.926  24.604  0.00  0.00    -0.083 NA
ATOM     16  C   UNL     1      -0.817   2.830  25.348  0.00  0.00    +0.084 A 
ATOM     21  C   UNL     1      -1.904   2.953  26.230  0.00  0.00    +0.074 A 
ATOM     23  C   UNL     1      -2.387   4.210  25.978  0.00  0.00    +0.175 A 
BRANCH  23  24
ATOM     24  C   UNL     1      -3.497   5.000  26.523  0.00  0.00    +0.306 C 
BRANCH  24   3
ATOM      3  O   UNL     1      -4.671   4.822  25.728  0.00  0.00    -0.484 OA
BRANCH   3  25
ATOM     25  C   UNL     1      -4.972   3.539  25.365  0.00  0.00    +0.121 A 
ATOM     26  C   UNL     1      -5.744   2.739  26.206  0.00  0.00    +0.045 A 
ATOM     27  C   UNL     1      -4.508   3.031  24.152  0.00  0.00    +0.045 A 
ATOM     28  C   UNL     1      -6.051   1.430  25.836  0.00  0.00    +0.004 A 
ATOM     29  C   UNL     1      -4.816   1.722  23.781  0.00  0.00    +0.004 A 
ATOM     30  C   UNL     1      -5.587   0.921  24.623  0.00  0.00    +0.000 A 
ENDBRANCH   3  25
ENDBRANCH  24   3
ENDBRANCH  23  24
ENDBRANCH  14  16
ENDBRANCH   9  14
TORSDOF 7
ENDMDL
MODEL 10
REMARK VINA RESULT:       1.0      2.108      6.650
REMARK  Name = 26743177
REMARK  8 active torsions:
REMARK  status: ('A' for Active; 'I' for Inactive)
REMARK    1  A    between atoms: O_3  and  C_24
REMARK    2  A    between atoms: O_3  and  C_25
REMARK    3  A    between atoms: N_6  and  C_22
REMARK    4  A    between atoms: C_8  and  C_12
REMARK    5  A    between atoms: C_9  and  C_14
REMARK    6  A    between atoms: C_12  and  C_15
REMARK    7  A    between atoms: C_14  and  C_16
REMARK    8  A    between atoms: C_23  and  C_24
REMARK                            x       y       z     vdW  Elec       q    Type
REMARK                         _______ _______ _______ _____ _____    ______ ____
ROOT
ATOM      4  N   UNL     1      -4.564  -0.627  24.308  0.00  0.00    -0.316 NA
ATOM      8  C   UNL     1      -2.279  -2.302  25.134  0.00  0.00    +0.004 C 
ATOM      9  C   UNL     1      -2.522  -0.881  25.697  0.00  0.00    +0.012 C 
ATOM     10  C   UNL     1      -3.618  -2.884  24.646  0.00  0.00    +0.019 C 
ATOM     11  C   UNL     1      -3.302  -0.002  24.706  0.00  0.00    +0.085 C 
ATOM     13  C   UNL     1      -4.354  -1.938  23.698  0.00  0.00    +0.081 C 
ATOM     31  H   UNL     1      -5.047  -0.021  23.646  0.00  0.00    +0.122 HD
ENDROOT
BRANCH   8  12
ATOM     12  C   UNL     1      -1.223  -2.361  24.025  0.00  0.00    +0.100 C 
BRANCH  12  15
ATOM      1  O   UNL     1       0.514  -2.708  25.599  0.00  0.00    -0.276 OA
ATOM      5  N   UNL     1       0.914  -1.127  23.947  0.00  0.00    -0.299 N 
ATOM      6  N   UNL     1       2.808   0.207  22.260  0.00  0.00    -0.302 NA
ATOM     15  C   UNL     1       0.144  -2.086  24.601  0.00  0.00    +0.216 C 
ATOM     17  C   UNL     1       2.253  -0.807  24.441  0.00  0.00    +0.123 C 
ATOM     18  C   UNL     1       0.455  -0.278  22.843  0.00  0.00    +0.123 C 
ATOM     19  C   UNL     1       3.263  -0.731  23.296  0.00  0.00    +0.103 C 
ATOM     20  C   UNL     1       1.501  -0.207  21.729  0.00  0.00    +0.103 C 
ATOM     22  C   UNL     1       3.793   0.301  21.184  0.00  0.00    +0.105 C 
ENDBRANCH  12  15
ENDBRANCH   8  12
BRANCH   9  14
ATOM     14  C   UNL     1      -1.234  -0.183  26.136  0.00  0.00    +0.064 C 
BRANCH  14  16
ATOM      2  O   UNL     1      -0.943   2.651  23.934  0.00  0.00    -0.356 OA
ATOM      7  N   UNL     1      -1.059   1.287  24.175  0.00  0.00    -0.083 NA
ATOM     16  C   UNL     1      -1.105   1.174  25.505  0.00  0.00    +0.084 A 
ATOM     21  C   UNL     1      -1.026   2.420  26.151  0.00  0.00    +0.074 A 
ATOM     23  C   UNL     1      -0.925   3.315  25.119  0.00  0.00    +0.175 A 
BRANCH  23  24
ATOM     24  C   UNL     1      -0.806   4.776  25.049  0.00  0.00    +0.306 C 
BRANCH  24   3
ATOM      3  O   UNL     1      -2.101   5.382  25.098  0.00  0.00    -0.484 OA
BRANCH   3  25
ATOM     25  C   UNL     1      -3.172   4.534  25.068  0.00  0.00    +0.121 A 
ATOM     26  C   UNL     1      -3.831   4.199  26.251  0.00  0.00    +0.045 A 
ATOM     27  C   UNL     1      -3.607   4.003  23.854  0.00  0.00    +0.045 A 
ATOM     28  C   UNL     1      -4.924   3.334  26.220  0.00  0.00    +0.004 A 
ATOM     29  C   UNL     1      -4.701   3.139  23.823  0.00  0.00    +0.004 A 
ATOM     30  C   UNL     1      -5.359   2.803  25.006  0.00  0.00    +0.000 A 
ENDBRANCH   3  25
ENDBRANCH  24   3
ENDBRANCH  23  24
ENDBRANCH  14  16
ENDBRANCH   9  14
TORSDOF 7
ENDMDL
