MODEL 1
REMARK VINA RESULT:      -3.5      0.000      0.000
REMARK  Name = 75536642
REMARK  9 active torsions:
REMARK  status: ('A' for Active; 'I' for Inactive)
REMARK    1  A    between atoms: O_3  and  C_10
REMARK    2  A    between atoms: N_6  and  C_9
REMARK    3  A    between atoms: N_6  and  C_14
REMARK    4  A    between atoms: N_7  and  C_13
REMARK    5  A    between atoms: N_8  and  C_22
REMARK    6  A    between atoms: C_11  and  C_13
REMARK    7  A    between atoms: C_14  and  C_15
REMARK    8  A    between atoms: C_16  and  C_19
REMARK    9  A    between atoms: C_28  and  C_29
REMARK                            x       y       z     vdW  Elec       q    Type
REMARK                         _______ _______ _______ _____ _____    ______ ____
ROOT
ATOM      2  O   UNL     1      -6.569   3.312  25.372  0.00  0.00    -0.371 OA
ATOM      9  C   UNL     1      -4.304   3.966  25.166  0.00  0.00    +0.111 C 
ATOM     10  C   UNL     1      -4.513   2.731  24.308  0.00  0.00    +0.164 C 
ATOM     11  C   UNL     1      -5.918   2.244  24.660  0.00  0.00    +0.165 C 
ATOM     12  C   UNL     1      -5.727   4.470  25.339  0.00  0.00    +0.181 C 
ENDROOT
BRANCH  10   3
ATOM      3  O   UNL     1      -4.491   3.143  22.939  0.00  0.00    -0.388 OA
ATOM     31  H   UNL     1      -4.293   4.094  22.925  0.00  0.00    +0.210 HD
ENDBRANCH  10   3
BRANCH   9   6
ATOM      6  N   UNL     1      -3.713   3.629  26.460  0.00  0.00    -0.305 NA
ATOM     30  H   UNL     1      -4.326   3.961  27.204  0.00  0.00    +0.123 HD
BRANCH   6  14
ATOM     14  C   UNL     1      -2.409   4.260  26.621  0.00  0.00    +0.116 C 
BRANCH  14  15
ATOM     15  C   UNL     1      -1.338   3.541  25.842  0.00  0.00    -0.033 A 
ATOM     17  C   UNL     1      -1.249   3.709  24.461  0.00  0.00    +0.007 A 
ATOM     18  C   UNL     1      -0.437   2.707  26.503  0.00  0.00    +0.007 A 
ATOM     20  C   UNL     1      -0.258   3.045  23.739  0.00  0.00    +0.023 A 
ATOM     21  C   UNL     1       0.555   2.041  25.782  0.00  0.00    +0.023 A 
ATOM     22  C   UNL     1       0.644   2.210  24.399  0.00  0.00    +0.033 A 
BRANCH  22   8
ATOM      5  O   UNL     1       0.511  -0.322  22.776  0.00  0.00    -0.276 OA
ATOM      8  N   UNL     1       1.635   1.544  23.678  0.00  0.00    -0.286 N 
ATOM     28  C   UNL     1       1.518   0.360  22.938  0.00  0.00    +0.214 C 
ATOM     29  C   UNL     1       2.828  -0.035  22.304  0.00  0.00    +0.109 C 
ATOM     33  H   UNL     1       2.554   1.979  23.700  0.00  0.00    +0.155 HD
ENDBRANCH  22   8
ENDBRANCH  14  15
ENDBRANCH   6  14
ENDBRANCH   9   6
BRANCH  11  13
ATOM     13  C   UNL     1      -5.929   1.005  25.542  0.00  0.00    +0.138 C 
BRANCH  13   7
ATOM      4  O   UNL     1      -4.943  -1.157  23.931  0.00  0.00    -0.270 OA
ATOM      7  N   UNL     1      -4.627   0.407  25.617  0.00  0.00    -0.309 N 
ATOM     16  C   UNL     1      -4.233  -0.643  24.793  0.00  0.00    +0.244 C 
ATOM     32  H   UNL     1      -4.021   0.729  26.363  0.00  0.00    +0.149 HD
BRANCH  16  19
ATOM      1  F   UNL     1       0.949  -2.638  25.623  0.00  0.00    -0.205 F 
ATOM     19  C   UNL     1      -2.861  -1.171  25.013  0.00  0.00    +0.037 A 
ATOM     23  C   UNL     1      -1.979  -0.492  25.852  0.00  0.00    +0.016 A 
ATOM     24  C   UNL     1      -2.456  -2.345  24.378  0.00  0.00    +0.016 A 
ATOM     25  C   UNL     1      -0.691  -0.987  26.059  0.00  0.00    +0.039 A 
ATOM     26  C   UNL     1      -1.169  -2.840  24.583  0.00  0.00    +0.039 A 
ATOM     27  C   UNL     1      -0.286  -2.161  25.424  0.00  0.00    +0.123 A 
ENDBRANCH  16  19
ENDBRANCH  13   7
ENDBRANCH  11  13
TORSDOF 8
ENDMDL
MODEL 2
REMARK VINA RESULT:      -3.2      2.342      3.575
REMARK  Name = 75536642
REMARK  9 active torsions:
REMARK  status: ('A' for Active; 'I' for Inactive)
REMARK    1  A    between atoms: O_3  and  C_10
REMARK    2  A    between atoms: N_6  and  C_9
REMARK    3  A    between atoms: N_6  and  C_14
REMARK    4  A    between atoms: N_7  and  C_13
REMARK    5  A    between atoms: N_8  and  C_22
REMARK    6  A    between atoms: C_11  and  C_13
REMARK    7  A    between atoms: C_14  and  C_15
REMARK    8  A    between atoms: C_16  and  C_19
REMARK    9  A    between atoms: C_28  and  C_29
REMARK                            x       y       z     vdW  Elec       q    Type
REMARK                         _______ _______ _______ _____ _____    ______ ____
ROOT
ATOM      2  O   UNL     1      -3.238   3.940  26.511  0.00  0.00    -0.371 OA
ATOM      9  C   UNL     1      -1.163   3.136  25.702  0.00  0.00    +0.111 C 
ATOM     10  C   UNL     1      -1.736   4.082  24.661  0.00  0.00    +0.164 C 
ATOM     11  C   UNL     1      -3.154   4.383  25.144  0.00  0.00    +0.165 C 
ATOM     12  C   UNL     1      -1.933   3.542  26.948  0.00  0.00    +0.181 C 
ENDROOT
BRANCH  10   3
ATOM      3  O   UNL     1      -0.965   5.286  24.696  0.00  0.00    -0.388 OA
ATOM     31  H   UNL     1      -0.652   5.404  25.608  0.00  0.00    +0.210 HD
ENDBRANCH  10   3
BRANCH   9   6
ATOM      6  N   UNL     1      -1.427   1.739  25.364  0.00  0.00    -0.305 NA
ATOM     30  H   UNL     1      -0.778   1.142  25.877  0.00  0.00    +0.123 HD
BRANCH   6  14
ATOM     14  C   UNL     1      -1.243   1.502  23.937  0.00  0.00    +0.116 C 
BRANCH  14  15
ATOM     15  C   UNL     1       0.168   1.085  23.615  0.00  0.00    -0.033 A 
ATOM     17  C   UNL     1       0.438  -0.230  23.237  0.00  0.00    +0.007 A 
ATOM     18  C   UNL     1       1.205   2.015  23.694  0.00  0.00    +0.007 A 
ATOM     20  C   UNL     1       1.744  -0.616  22.938  0.00  0.00    +0.023 A 
ATOM     21  C   UNL     1       2.512   1.629  23.395  0.00  0.00    +0.023 A 
ATOM     22  C   UNL     1       2.781   0.313  23.017  0.00  0.00    +0.033 A 
BRANCH  22   8
ATOM      5  O   UNL     1       5.313   0.584  24.624  0.00  0.00    -0.276 OA
ATOM      8  N   UNL     1       4.089  -0.072  22.720  0.00  0.00    -0.286 N 
ATOM     28  C   UNL     1       5.236   0.080  23.508  0.00  0.00    +0.214 C 
ATOM     29  C   UNL     1       6.463  -0.470  22.824  0.00  0.00    +0.109 C 
ATOM     33  H   UNL     1       4.214  -0.518  21.814  0.00  0.00    +0.155 HD
ENDBRANCH  22   8
ENDBRANCH  14  15
ENDBRANCH   6  14
ENDBRANCH   9   6
BRANCH  11  13
ATOM     13  C   UNL     1      -4.233   3.669  24.343  0.00  0.00    +0.138 C 
BRANCH  13   7
ATOM      4  O   UNL     1      -5.646   1.625  25.782  0.00  0.00    -0.270 OA
ATOM      7  N   UNL     1      -3.989   2.256  24.285  0.00  0.00    -0.309 N 
ATOM     16  C   UNL     1      -4.726   1.334  25.021  0.00  0.00    +0.244 C 
ATOM     32  H   UNL     1      -3.190   1.955  23.739  0.00  0.00    +0.149 HD
BRANCH  16  19
ATOM      1  F   UNL     1      -3.237  -4.050  24.455  0.00  0.00    -0.205 F 
ATOM     19  C   UNL     1      -4.332  -0.091  24.871  0.00  0.00    +0.037 A 
ATOM     23  C   UNL     1      -4.652  -0.784  23.704  0.00  0.00    +0.016 A 
ATOM     24  C   UNL     1      -3.643  -0.736  25.899  0.00  0.00    +0.016 A 
ATOM     25  C   UNL     1      -4.283  -2.122  23.563  0.00  0.00    +0.039 A 
ATOM     26  C   UNL     1      -3.274  -2.073  25.758  0.00  0.00    +0.039 A 
ATOM     27  C   UNL     1      -3.593  -2.766  24.590  0.00  0.00    +0.123 A 
ENDBRANCH  16  19
ENDBRANCH  13   7
ENDBRANCH  11  13
TORSDOF 8
ENDMDL
MODEL 3
REMARK VINA RESULT:      -3.0      2.597      5.944
REMARK  Name = 75536642
REMARK  9 active torsions:
REMARK  status: ('A' for Active; 'I' for Inactive)
REMARK    1  A    between atoms: O_3  and  C_10
REMARK    2  A    between atoms: N_6  and  C_9
REMARK    3  A    between atoms: N_6  and  C_14
REMARK    4  A    between atoms: N_7  and  C_13
REMARK    5  A    between atoms: N_8  and  C_22
REMARK    6  A    between atoms: C_11  and  C_13
REMARK    7  A    between atoms: C_14  and  C_15
REMARK    8  A    between atoms: C_16  and  C_19
REMARK    9  A    between atoms: C_28  and  C_29
REMARK                            x       y       z     vdW  Elec       q    Type
REMARK                         _______ _______ _______ _____ _____    ______ ____
ROOT
ATOM      2  O   UNL     1      -2.279  -0.680  25.984  0.00  0.00    -0.371 OA
ATOM      9  C   UNL     1      -3.440  -2.344  24.764  0.00  0.00    +0.111 C 
ATOM     10  C   UNL     1      -1.955  -2.527  24.506  0.00  0.00    +0.164 C 
ATOM     11  C   UNL     1      -1.295  -1.301  25.136  0.00  0.00    +0.165 C 
ATOM     12  C   UNL     1      -3.434  -1.525  26.044  0.00  0.00    +0.181 C 
ENDROOT
BRANCH  10   3
ATOM      3  O   UNL     1      -1.530  -3.698  25.207  0.00  0.00    -0.388 OA
ATOM     31  H   UNL     1      -1.586  -4.444  24.587  0.00  0.00    +0.210 HD
ENDBRANCH  10   3
BRANCH   9   6
ATOM      6  N   UNL     1      -4.089  -1.609  23.682  0.00  0.00    -0.305 NA
ATOM     30  H   UNL     1      -3.383  -1.095  23.155  0.00  0.00    +0.123 HD
BRANCH   6  14
ATOM     14  C   UNL     1      -5.061  -0.656  24.204  0.00  0.00    +0.116 C 
BRANCH  14  15
ATOM     15  C   UNL     1      -4.483   0.730  24.318  0.00  0.00    -0.033 A 
ATOM     17  C   UNL     1      -3.494   1.148  23.427  0.00  0.00    +0.007 A 
ATOM     18  C   UNL     1      -4.936   1.595  25.313  0.00  0.00    +0.007 A 
ATOM     20  C   UNL     1      -2.958   2.431  23.531  0.00  0.00    +0.023 A 
ATOM     21  C   UNL     1      -4.400   2.879  25.418  0.00  0.00    +0.023 A 
ATOM     22  C   UNL     1      -3.411   3.297  24.527  0.00  0.00    +0.033 A 
BRANCH  22   8
ATOM      5  O   UNL     1      -0.645   4.202  25.300  0.00  0.00    -0.276 OA
ATOM      8  N   UNL     1      -2.875   4.580  24.633  0.00  0.00    -0.286 N 
ATOM     28  C   UNL     1      -1.573   4.946  25.001  0.00  0.00    +0.214 C 
ATOM     29  C   UNL     1      -1.391   6.443  24.995  0.00  0.00    +0.109 C 
ATOM     33  H   UNL     1      -3.517   5.338  24.415  0.00  0.00    +0.155 HD
ENDBRANCH  22   8
ENDBRANCH  14  15
ENDBRANCH   6  14
ENDBRANCH   9   6
BRANCH  11  13
ATOM     13  C   UNL     1      -0.824  -0.273  24.118  0.00  0.00    +0.138 C 
BRANCH  13   7
ATOM      4  O   UNL     1       0.881  -0.458  21.816  0.00  0.00    -0.270 OA
ATOM      7  N   UNL     1       0.607  -0.173  24.102  0.00  0.00    -0.309 N 
ATOM     16  C   UNL     1       1.356  -0.276  22.935  0.00  0.00    +0.244 C 
ATOM     32  H   UNL     1       1.068  -0.105  25.003  0.00  0.00    +0.149 HD
BRANCH  16  19
ATOM      1  F   UNL     1       6.928   0.094  23.519  0.00  0.00    -0.205 F 
ATOM     19  C   UNL     1       2.831  -0.178  23.090  0.00  0.00    +0.037 A 
ATOM     23  C   UNL     1       3.549  -1.251  23.616  0.00  0.00    +0.016 A 
ATOM     24  C   UNL     1       3.496   0.987  22.709  0.00  0.00    +0.016 A 
ATOM     25  C   UNL     1       4.934  -1.160  23.762  0.00  0.00    +0.039 A 
ATOM     26  C   UNL     1       4.880   1.079  22.855  0.00  0.00    +0.039 A 
ATOM     27  C   UNL     1       5.599   0.006  23.381  0.00  0.00    +0.123 A 
ENDBRANCH  16  19
ENDBRANCH  13   7
ENDBRANCH  11  13
TORSDOF 8
ENDMDL
MODEL 4
REMARK VINA RESULT:      -1.0      2.597      5.105
REMARK  Name = 75536642
REMARK  9 active torsions:
REMARK  status: ('A' for Active; 'I' for Inactive)
REMARK    1  A    between atoms: O_3  and  C_10
REMARK    2  A    between atoms: N_6  and  C_9
REMARK    3  A    between atoms: N_6  and  C_14
REMARK    4  A    between atoms: N_7  and  C_13
REMARK    5  A    between atoms: N_8  and  C_22
REMARK    6  A    between atoms: C_11  and  C_13
REMARK    7  A    between atoms: C_14  and  C_15
REMARK    8  A    between atoms: C_16  and  C_19
REMARK    9  A    between atoms: C_28  and  C_29
REMARK                            x       y       z     vdW  Elec       q    Type
REMARK                         _______ _______ _______ _____ _____    ______ ____
ROOT
ATOM      2  O   UNL     1      -3.900  -1.240  23.370  0.00  0.00    -0.371 OA
ATOM      9  C   UNL     1      -2.107  -1.320  24.913  0.00  0.00    +0.111 C 
ATOM     10  C   UNL     1      -3.401  -1.461  25.694  0.00  0.00    +0.164 C 
ATOM     11  C   UNL     1      -4.505  -1.181  24.675  0.00  0.00    +0.165 C 
ATOM     12  C   UNL     1      -2.549  -1.695  23.507  0.00  0.00    +0.181 C 
ENDROOT
BRANCH  10   3
ATOM      3  O   UNL     1      -3.502  -2.819  26.130  0.00  0.00    -0.388 OA
ATOM     31  H   UNL     1      -2.743  -2.994  26.711  0.00  0.00    +0.210 HD
ENDBRANCH  10   3
BRANCH   9   6
ATOM      6  N   UNL     1      -1.602   0.050  24.949  0.00  0.00    -0.305 NA
ATOM     30  H   UNL     1      -2.330   0.667  25.308  0.00  0.00    +0.123 HD
BRANCH   6  14
ATOM     14  C   UNL     1      -1.228   0.506  23.616  0.00  0.00    +0.116 C 
BRANCH  14  15
ATOM     15  C   UNL     1       0.266   0.506  23.421  0.00  0.00    -0.033 A 
ATOM     17  C   UNL     1       1.025   1.592  23.855  0.00  0.00    +0.007 A 
ATOM     18  C   UNL     1       0.889  -0.579  22.806  0.00  0.00    +0.007 A 
ATOM     20  C   UNL     1       2.408   1.593  23.675  0.00  0.00    +0.023 A 
ATOM     21  C   UNL     1       2.272  -0.579  22.625  0.00  0.00    +0.023 A 
ATOM     22  C   UNL     1       3.032   0.508  23.060  0.00  0.00    +0.033 A 
BRANCH  22   8
ATOM      5  O   UNL     1       5.166  -1.221  24.294  0.00  0.00    -0.276 OA
ATOM      8  N   UNL     1       4.415   0.509  22.879  0.00  0.00    -0.286 N 
ATOM     28  C   UNL     1       5.367  -0.322  23.484  0.00  0.00    +0.214 C 
ATOM     29  C   UNL     1       6.766  -0.000  23.020  0.00  0.00    +0.109 C 
ATOM     33  H   UNL     1       4.767   1.204  22.225  0.00  0.00    +0.155 HD
ENDBRANCH  22   8
ENDBRANCH  14  15
ENDBRANCH   6  14
ENDBRANCH   9   6
BRANCH  11  13
ATOM     13  C   UNL     1      -5.152   0.186  24.840  0.00  0.00    +0.138 C 
BRANCH  13   7
ATOM      4  O   UNL     1      -5.365   2.777  26.057  0.00  0.00    -0.270 OA
ATOM      7  N   UNL     1      -4.174   1.234  24.799  0.00  0.00    -0.309 N 
ATOM     16  C   UNL     1      -4.362   2.465  25.419  0.00  0.00    +0.244 C 
ATOM     32  H   UNL     1      -3.358   1.071  24.219  0.00  0.00    +0.149 HD
BRANCH  16  19
ATOM      1  F   UNL     1      -0.220   6.207  24.820  0.00  0.00    -0.205 F 
ATOM     19  C   UNL     1      -3.266   3.455  25.261  0.00  0.00    +0.037 A 
ATOM     23  C   UNL     1      -1.992   3.169  25.750  0.00  0.00    +0.016 A 
ATOM     24  C   UNL     1      -3.512   4.671  24.623  0.00  0.00    +0.016 A 
ATOM     25  C   UNL     1      -0.962   4.099  25.602  0.00  0.00    +0.039 A 
ATOM     26  C   UNL     1      -2.483   5.601  24.475  0.00  0.00    +0.039 A 
ATOM     27  C   UNL     1      -1.208   5.315  24.964  0.00  0.00    +0.123 A 
ENDBRANCH  16  19
ENDBRANCH  13   7
ENDBRANCH  11  13
TORSDOF 8
ENDMDL
MODEL 5
REMARK VINA RESULT:       0.1      2.979      5.452
REMARK  Name = 75536642
REMARK  9 active torsions:
REMARK  status: ('A' for Active; 'I' for Inactive)
REMARK    1  A    between atoms: O_3  and  C_10
REMARK    2  A    between atoms: N_6  and  C_9
REMARK    3  A    between atoms: N_6  and  C_14
REMARK    4  A    between atoms: N_7  and  C_13
REMARK    5  A    between atoms: N_8  and  C_22
REMARK    6  A    between atoms: C_11  and  C_13
REMARK    7  A    between atoms: C_14  and  C_15
REMARK    8  A    between atoms: C_16  and  C_19
REMARK    9  A    between atoms: C_28  and  C_29
REMARK                            x       y       z     vdW  Elec       q    Type
REMARK                         _______ _______ _______ _____ _____    ______ ____
ROOT
ATOM      2  O   UNL     1      -1.586  -2.827  24.678  0.00  0.00    -0.371 OA
ATOM      9  C   UNL     1      -0.746  -0.616  24.770  0.00  0.00    +0.111 C 
ATOM     10  C   UNL     1      -1.546  -0.864  26.036  0.00  0.00    +0.164 C 
ATOM     11  C   UNL     1      -2.231  -2.211  25.807  0.00  0.00    +0.165 C 
ATOM     12  C   UNL     1      -0.454  -2.032  24.303  0.00  0.00    +0.181 C 
ENDROOT
BRANCH  10   3
ATOM      3  O   UNL     1      -0.622  -0.989  27.119  0.00  0.00    -0.388 OA
ATOM     31  H   UNL     1      -0.363  -0.091  27.385  0.00  0.00    +0.210 HD
ENDBRANCH  10   3
BRANCH   9   6
ATOM      6  N   UNL     1      -1.528   0.108  23.771  0.00  0.00    -0.305 NA
ATOM     30  H   UNL     1      -1.706  -0.505  22.975  0.00  0.00    +0.123 HD
BRANCH   6  14
ATOM     14  C   UNL     1      -0.812   1.285  23.295  0.00  0.00    +0.116 C 
BRANCH  14  15
ATOM     15  C   UNL     1       0.656   1.008  23.100  0.00  0.00    -0.033 A 
ATOM     17  C   UNL     1       1.063  -0.059  22.299  0.00  0.00    +0.007 A 
ATOM     18  C   UNL     1       1.607   1.817  23.719  0.00  0.00    +0.007 A 
ATOM     20  C   UNL     1       2.421  -0.317  22.117  0.00  0.00    +0.023 A 
ATOM     21  C   UNL     1       2.966   1.560  23.538  0.00  0.00    +0.023 A 
ATOM     22  C   UNL     1       3.373   0.493  22.736  0.00  0.00    +0.033 A 
BRANCH  22   8
ATOM      5  O   UNL     1       5.437  -0.554  24.663  0.00  0.00    -0.276 OA
ATOM      8  N   UNL     1       4.732   0.235  22.556  0.00  0.00    -0.286 N 
ATOM     28  C   UNL     1       5.652  -0.253  23.493  0.00  0.00    +0.214 C 
ATOM     29  C   UNL     1       7.033  -0.393  22.902  0.00  0.00    +0.109 C 
ATOM     33  H   UNL     1       5.091   0.430  21.624  0.00  0.00    +0.155 HD
ENDBRANCH  22   8
ENDBRANCH  14  15
ENDBRANCH   6  14
ENDBRANCH   9   6
BRANCH  11  13
ATOM     13  C   UNL     1      -3.718  -2.094  25.503  0.00  0.00    +0.138 C 
BRANCH  13   7
ATOM      4  O   UNL     1      -4.229  -0.250  23.362  0.00  0.00    -0.270 OA
ATOM      7  N   UNL     1      -4.170  -0.738  25.630  0.00  0.00    -0.309 N 
ATOM     16  C   UNL     1      -4.391   0.088  24.533  0.00  0.00    +0.244 C 
ATOM     32  H   UNL     1      -4.245  -0.371  26.572  0.00  0.00    +0.149 HD
BRANCH  16  19
ATOM      1  F   UNL     1      -6.057   5.328  25.667  0.00  0.00    -0.205 F 
ATOM     19  C   UNL     1      -4.833   1.475  24.833  0.00  0.00    +0.037 A 
ATOM     23  C   UNL     1      -5.982   1.692  25.592  0.00  0.00    +0.016 A 
ATOM     24  C   UNL     1      -4.097   2.559  24.355  0.00  0.00    +0.016 A 
ATOM     25  C   UNL     1      -6.397   2.994  25.874  0.00  0.00    +0.039 A 
ATOM     26  C   UNL     1      -4.511   3.861  24.636  0.00  0.00    +0.039 A 
ATOM     27  C   UNL     1      -5.661   4.078  25.396  0.00  0.00    +0.123 A 
ENDBRANCH  16  19
ENDBRANCH  13   7
ENDBRANCH  11  13
TORSDOF 8
ENDMDL
MODEL 6
REMARK VINA RESULT:       0.2      1.336      1.771
REMARK  Name = 75536642
REMARK  9 active torsions:
REMARK  status: ('A' for Active; 'I' for Inactive)
REMARK    1  A    between atoms: O_3  and  C_10
REMARK    2  A    between atoms: N_6  and  C_9
REMARK    3  A    between atoms: N_6  and  C_14
REMARK    4  A    between atoms: N_7  and  C_13
REMARK    5  A    between atoms: N_8  and  C_22
REMARK    6  A    between atoms: C_11  and  C_13
REMARK    7  A    between atoms: C_14  and  C_15
REMARK    8  A    between atoms: C_16  and  C_19
REMARK    9  A    between atoms: C_28  and  C_29
REMARK                            x       y       z     vdW  Elec       q    Type
REMARK                         _______ _______ _______ _____ _____    ______ ____
ROOT
ATOM      2  O   UNL     1      -4.585   2.529  25.951  0.00  0.00    -0.371 OA
ATOM      9  C   UNL     1      -4.332   4.866  25.675  0.00  0.00    +0.111 C 
ATOM     10  C   UNL     1      -5.453   4.407  24.761  0.00  0.00    +0.164 C 
ATOM     11  C   UNL     1      -5.411   2.881  24.825  0.00  0.00    +0.165 C 
ATOM     12  C   UNL     1      -4.255   3.721  26.672  0.00  0.00    +0.181 C 
ENDROOT
BRANCH  10   3
ATOM      3  O   UNL     1      -6.687   4.864  25.321  0.00  0.00    -0.388 OA
ATOM     31  H   UNL     1      -6.984   4.192  25.957  0.00  0.00    +0.210 HD
ENDBRANCH  10   3
BRANCH   9   6
ATOM      6  N   UNL     1      -3.071   5.009  24.952  0.00  0.00    -0.305 NA
ATOM     30  H   UNL     1      -3.102   4.439  24.107  0.00  0.00    +0.123 HD
BRANCH   6  14
ATOM     14  C   UNL     1      -1.946   4.564  25.766  0.00  0.00    +0.116 C 
BRANCH  14  15
ATOM     15  C   UNL     1      -1.118   3.523  25.060  0.00  0.00    -0.033 A 
ATOM     17  C   UNL     1      -1.396   3.194  23.733  0.00  0.00    +0.007 A 
ATOM     18  C   UNL     1      -0.074   2.888  25.732  0.00  0.00    +0.007 A 
ATOM     20  C   UNL     1      -0.630   2.231  23.078  0.00  0.00    +0.023 A 
ATOM     21  C   UNL     1       0.693   1.924  25.077  0.00  0.00    +0.023 A 
ATOM     22  C   UNL     1       0.414   1.595  23.749  0.00  0.00    +0.033 A 
BRANCH  22   8
ATOM      5  O   UNL     1       3.387   1.432  23.304  0.00  0.00    -0.276 OA
ATOM      8  N   UNL     1       1.180   0.631  23.095  0.00  0.00    -0.286 N 
ATOM     28  C   UNL     1       2.569   0.605  22.914  0.00  0.00    +0.214 C 
ATOM     29  C   UNL     1       3.011  -0.616  22.148  0.00  0.00    +0.109 C 
ATOM     33  H   UNL     1       0.655  -0.147  22.702  0.00  0.00    +0.155 HD
ENDBRANCH  22   8
ENDBRANCH  14  15
ENDBRANCH   6  14
ENDBRANCH   9   6
BRANCH  11  13
ATOM     13  C   UNL     1      -4.822   2.236  23.580  0.00  0.00    +0.138 C 
BRANCH  13   7
ATOM      4  O   UNL     1      -5.227  -0.517  24.285  0.00  0.00    -0.270 OA
ATOM      7  N   UNL     1      -3.806   1.281  23.919  0.00  0.00    -0.309 N 
ATOM     16  C   UNL     1      -4.095  -0.039  24.251  0.00  0.00    +0.244 C 
ATOM     32  H   UNL     1      -2.858   1.632  23.990  0.00  0.00    +0.149 HD
BRANCH  16  19
ATOM      1  F   UNL     1       0.292  -3.278  25.587  0.00  0.00    -0.205 F 
ATOM     19  C   UNL     1      -2.934  -0.896  24.604  0.00  0.00    +0.037 A 
ATOM     23  C   UNL     1      -2.896  -2.225  24.185  0.00  0.00    +0.016 A 
ATOM     24  C   UNL     1      -1.883  -0.371  25.357  0.00  0.00    +0.016 A 
ATOM     25  C   UNL     1      -1.806  -3.031  24.517  0.00  0.00    +0.039 A 
ATOM     26  C   UNL     1      -0.794  -1.176  25.689  0.00  0.00    +0.039 A 
ATOM     27  C   UNL     1      -0.755  -2.506  25.269  0.00  0.00    +0.123 A 
ENDBRANCH  16  19
ENDBRANCH  13   7
ENDBRANCH  11  13
TORSDOF 8
ENDMDL
