MODEL 1
REMARK VINA RESULT:      -0.5      0.000      0.000
REMARK  Name = 40777258
REMARK  7 active torsions:
REMARK  status: ('A' for Active; 'I' for Inactive)
REMARK    1  A    between atoms: S_2  and  N_7
REMARK    2  A    between atoms: S_2  and  C_22
REMARK    3  A    between atoms: N_7  and  C_17
REMARK    4  A    between atoms: C_11  and  C_18
REMARK    5  A    between atoms: C_12  and  C_17
REMARK    6  A    between atoms: C_20  and  C_23
REMARK    7  A    between atoms: C_21  and  C_24
REMARK                            x       y       z     vdW  Elec       q    Type
REMARK                         _______ _______ _______ _____ _____    ______ ____
ROOT
ATOM      6  N   UNL     1      -1.878  -2.167  23.736  0.00  0.00    -0.297 NA
ATOM     10  C   UNL     1      -3.503  -1.837  25.745  0.00  0.00    +0.002 C 
ATOM     11  C   UNL     1      -3.850  -0.850  24.596  0.00  0.00    +0.055 C 
ATOM     12  C   UNL     1      -1.105  -2.033  24.998  0.00  0.00    +0.072 C 
ATOM     13  C   UNL     1      -2.032  -1.632  26.165  0.00  0.00    +0.024 C 
ATOM     14  C   UNL     1      -3.611  -3.260  25.157  0.00  0.00    +0.019 C 
ATOM     15  C   UNL     1      -2.725  -0.966  23.528  0.00  0.00    +0.094 C 
ATOM     16  C   UNL     1      -2.769  -3.344  23.872  0.00  0.00    +0.085 C 
ENDROOT
BRANCH  11  18
ATOM      8  N   UNL     1      -5.379   0.847  25.470  0.00  0.00    -0.237 NA
ATOM      9  N   UNL     1      -4.762   3.172  25.626  0.00  0.00    -0.232 NA
ATOM     18  C   UNL     1      -4.156   0.596  24.959  0.00  0.00    +0.050 A 
ATOM     19  C   UNL     1      -3.195   1.566  24.755  0.00  0.00    +0.052 A 
ATOM     20  C   UNL     1      -3.558   2.849  25.111  0.00  0.00    +0.076 A 
ATOM     21  C   UNL     1      -5.612   2.139  25.777  0.00  0.00    +0.127 A 
ATOM     24  C   UNL     1      -6.955   2.456  26.342  0.00  0.00    +0.088 C 
BRANCH  20  23
ATOM      1 BR   UNL     1      -0.550   2.276  26.036  0.00  0.00    -0.050 Br
ATOM     23  C   UNL     1      -2.644   3.954  24.946  0.00  0.00    +0.014 A 
ATOM     26  C   UNL     1      -1.298   3.863  25.303  0.00  0.00    +0.027 A 
ATOM     27  C   UNL     1      -3.144   5.142  24.412  0.00  0.00    +0.011 A 
ATOM     30  C   UNL     1      -0.453   4.957  25.125  0.00  0.00    +0.016 A 
ATOM     31  C   UNL     1      -2.298   6.237  24.233  0.00  0.00    +0.001 A 
ATOM     32  C   UNL     1      -0.953   6.145  24.590  0.00  0.00    +0.001 A 
ENDBRANCH  20  23
ENDBRANCH  11  18
BRANCH  12  17
ATOM     17  C   UNL     1       0.081  -1.076  24.856  0.00  0.00    +0.124 C 
BRANCH  17   7
ATOM      7  N   UNL     1       0.759  -1.332  23.575  0.00  0.00    -0.188 NA
ATOM     33  H   UNL     1       1.285  -2.214  23.553  0.00  0.00    +0.148 HD
BRANCH   7   2
ATOM      2  S   UNL     1       1.513  -0.056  22.736  0.00  0.00    +0.065 S 
ATOM      4  O   UNL     1       1.076   1.209  23.295  0.00  0.00    -0.153 OA
ATOM      5  O   UNL     1       1.407  -0.298  21.309  0.00  0.00    -0.153 OA
BRANCH   2  22
ATOM      3  S   UNL     1       4.248   1.001  22.740  0.00  0.00    -0.077 S 
ATOM     22  C   UNL     1       3.210  -0.289  23.173  0.00  0.00    +0.142 A 
ATOM     25  C   UNL     1       3.889  -1.311  23.802  0.00  0.00    +0.036 A 
ATOM     28  C   UNL     1       5.279  -1.028  23.930  0.00  0.00    +0.010 A 
ATOM     29  C   UNL     1       5.610   0.197  23.394  0.00  0.00    +0.047 A 
ENDBRANCH   2  22
ENDBRANCH   7   2
ENDBRANCH  17   7
ENDBRANCH  12  17
TORSDOF 6
ENDMDL
MODEL 2
REMARK VINA RESULT:      -0.1      1.535      5.031
REMARK  Name = 40777258
REMARK  7 active torsions:
REMARK  status: ('A' for Active; 'I' for Inactive)
REMARK    1  A    between atoms: S_2  and  N_7
REMARK    2  A    between atoms: S_2  and  C_22
REMARK    3  A    between atoms: N_7  and  C_17
REMARK    4  A    between atoms: C_11  and  C_18
REMARK    5  A    between atoms: C_12  and  C_17
REMARK    6  A    between atoms: C_20  and  C_23
REMARK    7  A    between atoms: C_21  and  C_24
REMARK                            x       y       z     vdW  Elec       q    Type
REMARK                         _______ _______ _______ _____ _____    ______ ____
ROOT
ATOM      6  N   UNL     1      -0.220   4.093  25.421  0.00  0.00    -0.297 NA
ATOM     10  C   UNL     1      -2.271   4.172  23.817  0.00  0.00    +0.002 C 
ATOM     11  C   UNL     1      -2.705   3.704  25.234  0.00  0.00    +0.055 C 
ATOM     12  C   UNL     1       0.093   3.373  24.159  0.00  0.00    +0.072 C 
ATOM     13  C   UNL     1      -1.171   3.230  23.285  0.00  0.00    +0.024 C 
ATOM     14  C   UNL     1      -1.631   5.567  23.986  0.00  0.00    +0.019 C 
ATOM     15  C   UNL     1      -1.411   3.488  26.069  0.00  0.00    +0.094 C 
ATOM     16  C   UNL     1      -0.544   5.497  25.074  0.00  0.00    +0.085 C 
ENDROOT
BRANCH  11  18
ATOM      8  N   UNL     1      -4.889   2.784  25.839  0.00  0.00    -0.237 NA
ATOM      9  N   UNL     1      -5.424   0.451  25.554  0.00  0.00    -0.232 NA
ATOM     18  C   UNL     1      -3.663   2.525  25.339  0.00  0.00    +0.050 A 
ATOM     19  C   UNL     1      -3.250   1.274  24.930  0.00  0.00    +0.052 A 
ATOM     20  C   UNL     1      -4.181   0.265  25.061  0.00  0.00    +0.076 A 
ATOM     21  C   UNL     1      -5.707   1.716  25.918  0.00  0.00    +0.127 A 
ATOM     24  C   UNL     1      -7.071   1.961  26.470  0.00  0.00    +0.088 C 
BRANCH  20  23
ATOM      1 BR   UNL     1      -1.416  -0.879  26.192  0.00  0.00    -0.050 Br
ATOM     23  C   UNL     1      -3.873  -1.090  24.671  0.00  0.00    +0.014 A 
ATOM     26  C   UNL     1      -2.704  -1.732  25.083  0.00  0.00    +0.027 A 
ATOM     27  C   UNL     1      -4.785  -1.760  23.857  0.00  0.00    +0.011 A 
ATOM     30  C   UNL     1      -2.448  -3.042  24.681  0.00  0.00    +0.016 A 
ATOM     31  C   UNL     1      -4.530  -3.072  23.455  0.00  0.00    +0.001 A 
ATOM     32  C   UNL     1      -3.362  -3.713  23.867  0.00  0.00    +0.001 A 
ENDBRANCH  20  23
ENDBRANCH  11  18
BRANCH  12  17
ATOM     17  C   UNL     1       0.769   2.022  24.410  0.00  0.00    +0.124 C 
BRANCH  17   7
ATOM      7  N   UNL     1       1.444   1.583  23.178  0.00  0.00    -0.188 NA
ATOM     33  H   UNL     1       1.225   2.159  22.356  0.00  0.00    +0.148 HD
BRANCH   7   2
ATOM      2  S   UNL     1       1.605  -0.078  22.836  0.00  0.00    +0.065 S 
ATOM      4  O   UNL     1       1.443  -0.291  21.411  0.00  0.00    -0.153 OA
ATOM      5  O   UNL     1       0.808  -0.836  23.782  0.00  0.00    -0.153 OA
BRANCH   2  22
ATOM      3  S   UNL     1       4.367   0.904  22.820  0.00  0.00    -0.077 S 
ATOM     22  C   UNL     1       3.300  -0.367  23.243  0.00  0.00    +0.142 A 
ATOM     25  C   UNL     1       3.960  -1.420  23.840  0.00  0.00    +0.036 A 
ATOM     28  C   UNL     1       5.360  -1.178  23.952  0.00  0.00    +0.010 A 
ATOM     29  C   UNL     1       5.716   0.049  23.436  0.00  0.00    +0.047 A 
ENDBRANCH   2  22
ENDBRANCH   7   2
ENDBRANCH  17   7
ENDBRANCH  12  17
TORSDOF 6
ENDMDL
