MODEL 1
REMARK VINA RESULT:      -6.3      0.000      0.000
REMARK  Name = 56774170
REMARK  11 active torsions:
REMARK  status: ('A' for Active; 'I' for Inactive)
REMARK    1  A    between atoms: N_3  and  C_8
REMARK    2  A    between atoms: N_5  and  C_18
REMARK    3  A    between atoms: C_6  and  C_11
REMARK    4  A    between atoms: C_6  and  C_12
REMARK    5  A    between atoms: C_7  and  C_10
REMARK    6  A    between atoms: C_10  and  C_13
REMARK    7  A    between atoms: C_16  and  C_17
REMARK    8  A    between atoms: C_17  and  C_19
REMARK    9  A    between atoms: C_18  and  C_22
REMARK   10  A    between atoms: C_19  and  C_20
REMARK   11  A    between atoms: C_19  and  C_21
REMARK                            x       y       z     vdW  Elec       q    Type
REMARK                         _______ _______ _______ _____ _____    ______ ____
ROOT
ATOM      6  C   UNL     1      -3.349  -1.675  24.525  0.00  0.00    -0.013 C 
ATOM      7  C   UNL     1      -3.978  -0.722  25.562  0.00  0.00    +0.004 C 
ATOM      8  C   UNL     1      -1.983  -1.342  25.162  0.00  0.00    +0.081 C 
ATOM      9  C   UNL     1      -2.610  -0.011  25.626  0.00  0.00    +0.027 C 
ATOM     11  C   UNL     1      -3.546  -1.229  23.094  0.00  0.00    +0.013 C 
ATOM     12  C   UNL     1      -3.719  -3.141  24.663  0.00  0.00    +0.013 C 
ENDROOT
BRANCH   8   3
ATOM      2  O   UNL     1      -0.114   0.856  25.057  0.00  0.00    -0.253 OA
ATOM      3  N   UNL     1      -0.867  -1.172  24.222  0.00  0.00    -0.296 N 
ATOM      5  N   UNL     1       0.958  -0.146  23.257  0.00  0.00    -0.300 N 
ATOM     14  C   UNL     1      -0.013  -0.067  24.251  0.00  0.00    +0.300 C 
ATOM     23  H   UNL     1      -0.692  -1.873  23.506  0.00  0.00    +0.151 HD
ATOM     24  H   UNL     1       0.968  -0.955  22.644  0.00  0.00    +0.150 HD
BRANCH   5  18
ATOM     18  C   UNL     1       1.966   0.872  23.071  0.00  0.00    +0.102 C 
ATOM     22  C   UNL     1       3.271   0.276  22.587  0.00  0.00    +0.024 C 
ENDBRANCH   5  18
ENDBRANCH   8   3
BRANCH   7  10
ATOM     10  C   UNL     1      -5.142   0.159  25.091  0.00  0.00    +0.063 C 
BRANCH  10  13
ATOM      1  O   UNL     1      -4.880   3.673  25.672  0.00  0.00    -0.359 OA
ATOM      4  N   UNL     1      -5.486   2.438  25.865  0.00  0.00    -0.083 NA
ATOM     13  C   UNL     1      -4.776   1.585  25.123  0.00  0.00    +0.084 A 
ATOM     15  C   UNL     1      -3.719   2.218  24.445  0.00  0.00    +0.071 A 
ATOM     16  C   UNL     1      -3.829   3.530  24.824  0.00  0.00    +0.138 A 
BRANCH  16  17
ATOM     17  C   UNL     1      -3.050   4.781  24.499  0.00  0.00    +0.080 C 
BRANCH  17  19
ATOM     19  C   UNL     1      -1.769   4.953  25.341  0.00  0.00    -0.010 C 
ATOM     20  C   UNL     1      -1.434   3.692  26.142  0.00  0.00    +0.007 C 
ATOM     21  C   UNL     1      -0.594   5.311  24.429  0.00  0.00    +0.007 C 
ENDBRANCH  17  19
ENDBRANCH  16  17
ENDBRANCH  10  13
ENDBRANCH   7  10
TORSDOF 6
ENDMDL
MODEL 2
REMARK VINA RESULT:      -5.5      2.848      5.457
REMARK  Name = 56774170
REMARK  11 active torsions:
REMARK  status: ('A' for Active; 'I' for Inactive)
REMARK    1  A    between atoms: N_3  and  C_8
REMARK    2  A    between atoms: N_5  and  C_18
REMARK    3  A    between atoms: C_6  and  C_11
REMARK    4  A    between atoms: C_6  and  C_12
REMARK    5  A    between atoms: C_7  and  C_10
REMARK    6  A    between atoms: C_10  and  C_13
REMARK    7  A    between atoms: C_16  and  C_17
REMARK    8  A    between atoms: C_17  and  C_19
REMARK    9  A    between atoms: C_18  and  C_22
REMARK   10  A    between atoms: C_19  and  C_20
REMARK   11  A    between atoms: C_19  and  C_21
REMARK                            x       y       z     vdW  Elec       q    Type
REMARK                         _______ _______ _______ _____ _____    ______ ____
ROOT
ATOM      6  C   UNL     1      -1.507   3.881  25.159  0.00  0.00    -0.013 C 
ATOM      7  C   UNL     1      -1.812   3.148  23.836  0.00  0.00    +0.004 C 
ATOM      8  C   UNL     1      -0.406   2.826  25.402  0.00  0.00    +0.081 C 
ATOM      9  C   UNL     1      -1.219   1.882  24.490  0.00  0.00    +0.027 C 
ATOM     11  C   UNL     1      -2.662   3.878  26.134  0.00  0.00    +0.013 C 
ATOM     12  C   UNL     1      -0.951   5.287  25.024  0.00  0.00    +0.013 C 
ENDROOT
BRANCH   8   3
ATOM      2  O   UNL     1       1.737   3.392  27.252  0.00  0.00    -0.253 OA
ATOM      3  N   UNL     1      -0.279   2.346  26.783  0.00  0.00    -0.296 N 
ATOM      5  N   UNL     1       0.682   2.094  28.863  0.00  0.00    -0.300 N 
ATOM     14  C   UNL     1       0.801   2.676  27.605  0.00  0.00    +0.300 C 
ATOM     23  H   UNL     1      -0.993   1.740  27.180  0.00  0.00    +0.151 HD
ATOM     24  H   UNL     1      -0.134   1.525  29.066  0.00  0.00    +0.150 HD
BRANCH   5  18
ATOM     18  C   UNL     1       1.669   2.277  29.902  0.00  0.00    +0.102 C 
ATOM     22  C   UNL     1       3.014   2.667  29.326  0.00  0.00    +0.024 C 
ENDBRANCH   5  18
ENDBRANCH   8   3
BRANCH   7  10
ATOM     10  C   UNL     1      -3.284   3.031  23.422  0.00  0.00    +0.063 C 
BRANCH  10  13
ATOM      1  O   UNL     1      -5.155   0.272  24.704  0.00  0.00    -0.359 OA
ATOM      4  N   UNL     1      -4.907   1.633  24.572  0.00  0.00    -0.083 NA
ATOM     13  C   UNL     1      -3.833   1.713  23.782  0.00  0.00    +0.084 A 
ATOM     15  C   UNL     1      -3.364   0.447  23.388  0.00  0.00    +0.071 A 
ATOM     16  C   UNL     1      -4.229  -0.424  23.996  0.00  0.00    +0.138 A 
BRANCH  16  17
ATOM     17  C   UNL     1      -4.347  -1.928  24.027  0.00  0.00    +0.080 C 
BRANCH  17  19
ATOM     19  C   UNL     1      -3.341  -2.612  24.975  0.00  0.00    -0.010 C 
ATOM     20  C   UNL     1      -1.974  -2.810  24.315  0.00  0.00    +0.007 C 
ATOM     21  C   UNL     1      -3.182  -1.780  26.249  0.00  0.00    +0.007 C 
ENDBRANCH  17  19
ENDBRANCH  16  17
ENDBRANCH  10  13
ENDBRANCH   7  10
TORSDOF 6
ENDMDL
MODEL 3
REMARK VINA RESULT:      -5.4      1.693      4.690
REMARK  Name = 56774170
REMARK  11 active torsions:
REMARK  status: ('A' for Active; 'I' for Inactive)
REMARK    1  A    between atoms: N_3  and  C_8
REMARK    2  A    between atoms: N_5  and  C_18
REMARK    3  A    between atoms: C_6  and  C_11
REMARK    4  A    between atoms: C_6  and  C_12
REMARK    5  A    between atoms: C_7  and  C_10
REMARK    6  A    between atoms: C_10  and  C_13
REMARK    7  A    between atoms: C_16  and  C_17
REMARK    8  A    between atoms: C_17  and  C_19
REMARK    9  A    between atoms: C_18  and  C_22
REMARK   10  A    between atoms: C_19  and  C_20
REMARK   11  A    between atoms: C_19  and  C_21
REMARK                            x       y       z     vdW  Elec       q    Type
REMARK                         _______ _______ _______ _____ _____    ______ ____
ROOT
ATOM      6  C   UNL     1      -3.212  -2.032  24.841  0.00  0.00    -0.013 C 
ATOM      7  C   UNL     1      -1.999  -1.693  23.949  0.00  0.00    +0.004 C 
ATOM      8  C   UNL     1      -4.057  -1.151  23.896  0.00  0.00    +0.081 C 
ATOM      9  C   UNL     1      -2.750  -0.407  23.549  0.00  0.00    +0.027 C 
ATOM     11  C   UNL     1      -3.073  -1.541  26.265  0.00  0.00    +0.013 C 
ATOM     12  C   UNL     1      -3.652  -3.485  24.838  0.00  0.00    +0.013 C 
ENDROOT
BRANCH   8   3
ATOM      2  O   UNL     1      -3.662   1.489  24.994  0.00  0.00    -0.253 OA
ATOM      3  N   UNL     1      -5.064  -0.303  24.546  0.00  0.00    -0.296 N 
ATOM      5  N   UNL     1      -5.899   1.561  25.613  0.00  0.00    -0.300 N 
ATOM     14  C   UNL     1      -4.775   0.968  25.048  0.00  0.00    +0.300 C 
ATOM     23  H   UNL     1      -6.019  -0.635  24.651  0.00  0.00    +0.151 HD
ATOM     24  H   UNL     1      -6.780   1.056  25.601  0.00  0.00    +0.150 HD
BRANCH   5  18
ATOM     18  C   UNL     1      -5.870   2.878  26.206  0.00  0.00    +0.102 C 
ATOM     22  C   UNL     1      -5.610   3.948  25.165  0.00  0.00    +0.024 C 
ENDBRANCH   5  18
ENDBRANCH   8   3
BRANCH   7  10
ATOM     10  C   UNL     1      -0.654  -1.464  24.650  0.00  0.00    +0.063 C 
BRANCH  10  13
ATOM      1  O   UNL     1       0.674   1.789  24.010  0.00  0.00    -0.359 OA
ATOM      4  N   UNL     1       0.555   0.433  23.729  0.00  0.00    -0.083 NA
ATOM     13  C   UNL     1      -0.291  -0.037  24.649  0.00  0.00    +0.084 A 
ATOM     15  C   UNL     1      -0.735   0.965  25.530  0.00  0.00    +0.071 A 
ATOM     16  C   UNL     1      -0.099   2.094  25.084  0.00  0.00    +0.138 A 
BRANCH  16  17
ATOM     17  C   UNL     1      -0.091   3.534  25.533  0.00  0.00    +0.080 C 
BRANCH  17  19
ATOM     19  C   UNL     1      -1.362   4.315  25.144  0.00  0.00    -0.010 C 
ATOM     20  C   UNL     1      -2.413   4.292  26.257  0.00  0.00    +0.007 C 
ATOM     21  C   UNL     1      -0.998   5.763  24.809  0.00  0.00    +0.007 C 
ENDBRANCH  17  19
ENDBRANCH  16  17
ENDBRANCH  10  13
ENDBRANCH   7  10
TORSDOF 6
ENDMDL
MODEL 4
REMARK VINA RESULT:      -4.9      1.633      4.734
REMARK  Name = 56774170
REMARK  11 active torsions:
REMARK  status: ('A' for Active; 'I' for Inactive)
REMARK    1  A    between atoms: N_3  and  C_8
REMARK    2  A    between atoms: N_5  and  C_18
REMARK    3  A    between atoms: C_6  and  C_11
REMARK    4  A    between atoms: C_6  and  C_12
REMARK    5  A    between atoms: C_7  and  C_10
REMARK    6  A    between atoms: C_10  and  C_13
REMARK    7  A    between atoms: C_16  and  C_17
REMARK    8  A    between atoms: C_17  and  C_19
REMARK    9  A    between atoms: C_18  and  C_22
REMARK   10  A    between atoms: C_19  and  C_20
REMARK   11  A    between atoms: C_19  and  C_21
REMARK                            x       y       z     vdW  Elec       q    Type
REMARK                         _______ _______ _______ _____ _____    ______ ____
ROOT
ATOM      6  C   UNL     1      -2.053   4.246  25.100  0.00  0.00    -0.013 C 
ATOM      7  C   UNL     1      -3.392   3.866  24.433  0.00  0.00    +0.004 C 
ATOM      8  C   UNL     1      -1.359   3.745  23.817  0.00  0.00    +0.081 C 
ATOM      9  C   UNL     1      -2.595   2.848  23.591  0.00  0.00    +0.027 C 
ATOM     11  C   UNL     1      -1.764   3.470  26.365  0.00  0.00    +0.013 C 
ATOM     12  C   UNL     1      -1.834   5.729  25.345  0.00  0.00    +0.013 C 
ENDROOT
BRANCH   8   3
ATOM      2  O   UNL     1      -0.749   1.095  22.847  0.00  0.00    -0.253 OA
ATOM      3  N   UNL     1      -0.114   2.992  24.019  0.00  0.00    -0.296 N 
ATOM      5  N   UNL     1       1.347   1.219  23.840  0.00  0.00    -0.300 N 
ATOM     14  C   UNL     1       0.088   1.709  23.507  0.00  0.00    +0.300 C 
ATOM     23  H   UNL     1       0.647   3.400  24.557  0.00  0.00    +0.151 HD
ATOM     24  H   UNL     1       1.975   1.804  24.381  0.00  0.00    +0.150 HD
BRANCH   5  18
ATOM     18  C   UNL     1       1.806  -0.089  23.432  0.00  0.00    +0.102 C 
ATOM     22  C   UNL     1       2.836   0.006  22.326  0.00  0.00    +0.024 C 
ENDBRANCH   5  18
ENDBRANCH   8   3
BRANCH   7  10
ATOM     10  C   UNL     1      -4.474   3.253  25.331  0.00  0.00    +0.063 C 
BRANCH  10  13
ATOM      1  O   UNL     1      -5.886   0.079  24.502  0.00  0.00    -0.359 OA
ATOM      4  N   UNL     1      -5.996   1.418  24.858  0.00  0.00    -0.083 NA
ATOM     13  C   UNL     1      -4.738   1.852  24.964  0.00  0.00    +0.084 A 
ATOM     15  C   UNL     1      -3.799   0.842  24.689  0.00  0.00    +0.071 A 
ATOM     16  C   UNL     1      -4.573  -0.252  24.405  0.00  0.00    +0.138 A 
BRANCH  16  17
ATOM     17  C   UNL     1      -4.264  -1.680  24.024  0.00  0.00    +0.080 C 
BRANCH  17  19
ATOM     19  C   UNL     1      -3.248  -2.368  24.958  0.00  0.00    -0.010 C 
ATOM     20  C   UNL     1      -1.831  -2.344  24.381  0.00  0.00    +0.007 C 
ATOM     21  C   UNL     1      -3.259  -1.685  26.327  0.00  0.00    +0.007 C 
ENDBRANCH  17  19
ENDBRANCH  16  17
ENDBRANCH  10  13
ENDBRANCH   7  10
TORSDOF 6
ENDMDL
MODEL 5
REMARK VINA RESULT:      -4.7      1.979      5.452
REMARK  Name = 56774170
REMARK  11 active torsions:
REMARK  status: ('A' for Active; 'I' for Inactive)
REMARK    1  A    between atoms: N_3  and  C_8
REMARK    2  A    between atoms: N_5  and  C_18
REMARK    3  A    between atoms: C_6  and  C_11
REMARK    4  A    between atoms: C_6  and  C_12
REMARK    5  A    between atoms: C_7  and  C_10
REMARK    6  A    between atoms: C_10  and  C_13
REMARK    7  A    between atoms: C_16  and  C_17
REMARK    8  A    between atoms: C_17  and  C_19
REMARK    9  A    between atoms: C_18  and  C_22
REMARK   10  A    between atoms: C_19  and  C_20
REMARK   11  A    between atoms: C_19  and  C_21
REMARK                            x       y       z     vdW  Elec       q    Type
REMARK                         _______ _______ _______ _____ _____    ______ ____
ROOT
ATOM      6  C   UNL     1      -4.483   3.811  25.042  0.00  0.00    -0.013 C 
ATOM      7  C   UNL     1      -3.298   4.169  25.963  0.00  0.00    +0.004 C 
ATOM      8  C   UNL     1      -4.709   2.576  25.940  0.00  0.00    +0.081 C 
ATOM      9  C   UNL     1      -3.213   2.668  26.310  0.00  0.00    +0.027 C 
ATOM     11  C   UNL     1      -4.077   3.533  23.613  0.00  0.00    +0.013 C 
ATOM     12  C   UNL     1      -5.655   4.775  25.066  0.00  0.00    +0.013 C 
ENDROOT
BRANCH   8   3
ATOM      2  O   UNL     1      -2.919   0.475  25.094  0.00  0.00    -0.253 OA
ATOM      3  N   UNL     1      -5.067   1.336  25.239  0.00  0.00    -0.296 N 
ATOM      5  N   UNL     1      -4.721  -0.702  24.220  0.00  0.00    -0.300 N 
ATOM     14  C   UNL     1      -4.124   0.375  24.870  0.00  0.00    +0.300 C 
ATOM     23  H   UNL     1      -6.037   1.149  24.997  0.00  0.00    +0.151 HD
ATOM     24  H   UNL     1      -5.727  -0.701  24.090  0.00  0.00    +0.150 HD
BRANCH   5  18
ATOM     18  C   UNL     1      -3.965  -1.833  23.734  0.00  0.00    +0.102 C 
ATOM     22  C   UNL     1      -3.539  -2.743  24.867  0.00  0.00    +0.024 C 
ENDBRANCH   5  18
ENDBRANCH   8   3
BRANCH   7  10
ATOM     10  C   UNL     1      -2.043   4.750  25.299  0.00  0.00    +0.063 C 
BRANCH  10  13
ATOM      1  O   UNL     1       0.555   2.347  25.776  0.00  0.00    -0.359 OA
ATOM      4  N   UNL     1      -0.351   3.287  26.251  0.00  0.00    -0.083 NA
ATOM     13  C   UNL     1      -0.992   3.728  25.166  0.00  0.00    +0.084 A 
ATOM     15  C   UNL     1      -0.537   3.109  23.988  0.00  0.00    +0.071 A 
ATOM     16  C   UNL     1       0.435   2.250  24.428  0.00  0.00    +0.138 A 
BRANCH  16  17
ATOM     17  C   UNL     1       1.351   1.268  23.738  0.00  0.00    +0.080 C 
BRANCH  17  19
ATOM     19  C   UNL     1       0.607   0.156  22.971  0.00  0.00    -0.010 C 
ATOM     20  C   UNL     1       1.509  -0.535  21.945  0.00  0.00    +0.007 C 
ATOM     21  C   UNL     1       0.062  -0.879  23.957  0.00  0.00    +0.007 C 
ENDBRANCH  17  19
ENDBRANCH  16  17
ENDBRANCH  10  13
ENDBRANCH   7  10
TORSDOF 6
ENDMDL
MODEL 6
REMARK VINA RESULT:      -4.5      1.961      2.948
REMARK  Name = 56774170
REMARK  11 active torsions:
REMARK  status: ('A' for Active; 'I' for Inactive)
REMARK    1  A    between atoms: N_3  and  C_8
REMARK    2  A    between atoms: N_5  and  C_18
REMARK    3  A    between atoms: C_6  and  C_11
REMARK    4  A    between atoms: C_6  and  C_12
REMARK    5  A    between atoms: C_7  and  C_10
REMARK    6  A    between atoms: C_10  and  C_13
REMARK    7  A    between atoms: C_16  and  C_17
REMARK    8  A    between atoms: C_17  and  C_19
REMARK    9  A    between atoms: C_18  and  C_22
REMARK   10  A    between atoms: C_19  and  C_20
REMARK   11  A    between atoms: C_19  and  C_21
REMARK                            x       y       z     vdW  Elec       q    Type
REMARK                         _______ _______ _______ _____ _____    ______ ____
ROOT
ATOM      6  C   UNL     1      -1.307   0.229  23.749  0.00  0.00    -0.013 C 
ATOM      7  C   UNL     1      -2.113  -1.061  24.010  0.00  0.00    +0.004 C 
ATOM      8  C   UNL     1      -0.143  -0.680  23.302  0.00  0.00    +0.081 C 
ATOM      9  C   UNL     1      -0.760  -1.778  24.194  0.00  0.00    +0.027 C 
ATOM     11  C   UNL     1      -1.070   1.057  24.992  0.00  0.00    +0.013 C 
ATOM     12  C   UNL     1      -1.822   1.116  22.630  0.00  0.00    +0.013 C 
ENDROOT
BRANCH   8   3
ATOM      2  O   UNL     1       2.126  -0.106  21.612  0.00  0.00    -0.253 OA
ATOM      3  N   UNL     1       1.196  -0.256  23.730  0.00  0.00    -0.296 N 
ATOM      5  N   UNL     1       3.397   0.385  23.492  0.00  0.00    -0.300 N 
ATOM     14  C   UNL     1       2.234  -0.000  22.832  0.00  0.00    +0.300 C 
ATOM     23  H   UNL     1       1.402  -0.141  24.720  0.00  0.00    +0.151 HD
ATOM     24  H   UNL     1       3.387   0.454  24.505  0.00  0.00    +0.150 HD
BRANCH   5  18
ATOM     18  C   UNL     1       4.619   0.707  22.792  0.00  0.00    +0.102 C 
ATOM     22  C   UNL     1       5.814   0.019  23.419  0.00  0.00    +0.024 C 
ENDBRANCH   5  18
ENDBRANCH   8   3
BRANCH   7  10
ATOM     10  C   UNL     1      -3.027  -1.081  25.242  0.00  0.00    +0.063 C 
BRANCH  10  13
ATOM      1  O   UNL     1      -5.851   1.050  24.758  0.00  0.00    -0.359 OA
ATOM      4  N   UNL     1      -5.193  -0.166  24.626  0.00  0.00    -0.083 NA
ATOM     13  C   UNL     1      -4.002   0.021  25.198  0.00  0.00    +0.084 A 
ATOM     15  C   UNL     1      -3.851   1.325  25.704  0.00  0.00    +0.071 A 
ATOM     16  C   UNL     1      -5.042   1.930  25.401  0.00  0.00    +0.138 A 
BRANCH  16  17
ATOM     17  C   UNL     1      -5.599   3.314  25.632  0.00  0.00    +0.080 C 
BRANCH  17  19
ATOM     19  C   UNL     1      -4.606   4.448  25.307  0.00  0.00    -0.010 C 
ATOM     20  C   UNL     1      -3.469   4.526  26.328  0.00  0.00    +0.007 C 
ATOM     21  C   UNL     1      -4.027   4.243  23.906  0.00  0.00    +0.007 C 
ENDBRANCH  17  19
ENDBRANCH  16  17
ENDBRANCH  10  13
ENDBRANCH   7  10
TORSDOF 6
ENDMDL
MODEL 7
REMARK VINA RESULT:      -4.3      1.653      6.517
REMARK  Name = 56774170
REMARK  11 active torsions:
REMARK  status: ('A' for Active; 'I' for Inactive)
REMARK    1  A    between atoms: N_3  and  C_8
REMARK    2  A    between atoms: N_5  and  C_18
REMARK    3  A    between atoms: C_6  and  C_11
REMARK    4  A    between atoms: C_6  and  C_12
REMARK    5  A    between atoms: C_7  and  C_10
REMARK    6  A    between atoms: C_10  and  C_13
REMARK    7  A    between atoms: C_16  and  C_17
REMARK    8  A    between atoms: C_17  and  C_19
REMARK    9  A    between atoms: C_18  and  C_22
REMARK   10  A    between atoms: C_19  and  C_20
REMARK   11  A    between atoms: C_19  and  C_21
REMARK                            x       y       z     vdW  Elec       q    Type
REMARK                         _______ _______ _______ _____ _____    ______ ____
ROOT
ATOM      6  C   UNL     1      -1.437   4.178  24.808  0.00  0.00    -0.013 C 
ATOM      7  C   UNL     1      -0.421   3.021  24.920  0.00  0.00    +0.004 C 
ATOM      8  C   UNL     1      -1.936   3.773  26.211  0.00  0.00    +0.081 C 
ATOM      9  C   UNL     1      -1.402   2.357  25.908  0.00  0.00    +0.027 C 
ATOM     11  C   UNL     1      -2.422   4.012  23.674  0.00  0.00    +0.013 C 
ATOM     12  C   UNL     1      -0.846   5.576  24.777  0.00  0.00    +0.013 C 
ENDROOT
BRANCH   8   3
ATOM      2  O   UNL     1      -3.873   1.788  25.413  0.00  0.00    -0.253 OA
ATOM      3  N   UNL     1      -3.391   3.825  26.408  0.00  0.00    -0.296 N 
ATOM      5  N   UNL     1      -5.576   3.101  26.291  0.00  0.00    -0.300 N 
ATOM     14  C   UNL     1      -4.250   2.809  25.985  0.00  0.00    +0.300 C 
ATOM     23  H   UNL     1      -3.815   4.628  26.866  0.00  0.00    +0.151 HD
ATOM     24  H   UNL     1      -5.789   3.967  26.776  0.00  0.00    +0.150 HD
BRANCH   5  18
ATOM     18  C   UNL     1      -6.665   2.212  25.959  0.00  0.00    +0.102 C 
ATOM     22  C   UNL     1      -6.440   1.535  24.623  0.00  0.00    +0.024 C 
ENDBRANCH   5  18
ENDBRANCH   8   3
BRANCH   7  10
ATOM     10  C   UNL     1      -0.138   2.210  23.649  0.00  0.00    +0.063 C 
BRANCH  10  13
ATOM      1  O   UNL     1       0.142  -1.306  24.205  0.00  0.00    -0.359 OA
ATOM      4  N   UNL     1       0.692  -0.048  24.000  0.00  0.00    -0.083 NA
ATOM     13  C   UNL     1      -0.355   0.772  23.878  0.00  0.00    +0.084 A 
ATOM     15  C   UNL     1      -1.581   0.094  23.995  0.00  0.00    +0.071 A 
ATOM     16  C   UNL     1      -1.212  -1.210  24.200  0.00  0.00    +0.138 A 
BRANCH  16  17
ATOM     17  C   UNL     1      -1.980  -2.492  24.410  0.00  0.00    +0.080 C 
BRANCH  17  19
ATOM     19  C   UNL     1      -3.399  -2.283  24.977  0.00  0.00    -0.010 C 
ATOM     20  C   UNL     1      -3.399  -1.364  26.201  0.00  0.00    +0.007 C 
ATOM     21  C   UNL     1      -4.308  -1.698  23.894  0.00  0.00    +0.007 C 
ENDBRANCH  17  19
ENDBRANCH  16  17
ENDBRANCH  10  13
ENDBRANCH   7  10
TORSDOF 6
ENDMDL
MODEL 8
REMARK VINA RESULT:      -3.9      1.944      6.117
REMARK  Name = 56774170
REMARK  11 active torsions:
REMARK  status: ('A' for Active; 'I' for Inactive)
REMARK    1  A    between atoms: N_3  and  C_8
REMARK    2  A    between atoms: N_5  and  C_18
REMARK    3  A    between atoms: C_6  and  C_11
REMARK    4  A    between atoms: C_6  and  C_12
REMARK    5  A    between atoms: C_7  and  C_10
REMARK    6  A    between atoms: C_10  and  C_13
REMARK    7  A    between atoms: C_16  and  C_17
REMARK    8  A    between atoms: C_17  and  C_19
REMARK    9  A    between atoms: C_18  and  C_22
REMARK   10  A    between atoms: C_19  and  C_20
REMARK   11  A    between atoms: C_19  and  C_21
REMARK                            x       y       z     vdW  Elec       q    Type
REMARK                         _______ _______ _______ _____ _____    ______ ____
ROOT
ATOM      6  C   UNL     1      -3.328  -1.411  24.646  0.00  0.00    -0.013 C 
ATOM      7  C   UNL     1      -2.004  -1.047  23.941  0.00  0.00    +0.004 C 
ATOM      8  C   UNL     1      -3.960  -0.210  23.911  0.00  0.00    +0.081 C 
ATOM      9  C   UNL     1      -2.542   0.395  23.841  0.00  0.00    +0.027 C 
ATOM     11  C   UNL     1      -3.259  -1.312  26.153  0.00  0.00    +0.013 C 
ATOM     12  C   UNL     1      -3.948  -2.737  24.245  0.00  0.00    +0.013 C 
ENDROOT
BRANCH   8   3
ATOM      2  O   UNL     1      -4.182   2.667  23.960  0.00  0.00    -0.253 OA
ATOM      3  N   UNL     1      -4.905   0.592  24.698  0.00  0.00    -0.296 N 
ATOM      5  N   UNL     1      -5.921   2.503  25.491  0.00  0.00    -0.300 N 
ATOM     14  C   UNL     1      -4.936   1.987  24.654  0.00  0.00    +0.300 C 
ATOM     23  H   UNL     1      -5.573   0.134  25.313  0.00  0.00    +0.151 HD
ATOM     24  H   UNL     1      -6.503   1.860  26.018  0.00  0.00    +0.150 HD
BRANCH   5  18
ATOM     18  C   UNL     1      -6.160   3.921  25.630  0.00  0.00    +0.102 C 
ATOM     22  C   UNL     1      -4.865   4.686  25.803  0.00  0.00    +0.024 C 
ENDBRANCH   5  18
ENDBRANCH   8   3
BRANCH   7  10
ATOM     10  C   UNL     1      -0.711  -1.199  24.753  0.00  0.00    +0.063 C 
BRANCH  10  13
ATOM      1  O   UNL     1       1.498   1.422  23.753  0.00  0.00    -0.359 OA
ATOM      4  N   UNL     1       0.362   0.953  24.400  0.00  0.00    -0.083 NA
ATOM     13  C   UNL     1       0.367  -0.366  24.195  0.00  0.00    +0.084 A 
ATOM     15  C   UNL     1       1.471  -0.785  23.432  0.00  0.00    +0.071 A 
ATOM     16  C   UNL     1       2.151   0.379  23.180  0.00  0.00    +0.138 A 
BRANCH  16  17
ATOM     17  C   UNL     1       3.418   0.706  22.427  0.00  0.00    +0.080 C 
BRANCH  17  19
ATOM     19  C   UNL     1       4.662  -0.040  22.949  0.00  0.00    -0.010 C 
ATOM     20  C   UNL     1       5.516   0.839  23.867  0.00  0.00    +0.007 C 
ATOM     21  C   UNL     1       4.233  -1.303  23.698  0.00  0.00    +0.007 C 
ENDBRANCH  17  19
ENDBRANCH  16  17
ENDBRANCH  10  13
ENDBRANCH   7  10
TORSDOF 6
ENDMDL
MODEL 9
REMARK VINA RESULT:      -3.6      1.889      4.838
REMARK  Name = 56774170
REMARK  11 active torsions:
REMARK  status: ('A' for Active; 'I' for Inactive)
REMARK    1  A    between atoms: N_3  and  C_8
REMARK    2  A    between atoms: N_5  and  C_18
REMARK    3  A    between atoms: C_6  and  C_11
REMARK    4  A    between atoms: C_6  and  C_12
REMARK    5  A    between atoms: C_7  and  C_10
REMARK    6  A    between atoms: C_10  and  C_13
REMARK    7  A    between atoms: C_16  and  C_17
REMARK    8  A    between atoms: C_17  and  C_19
REMARK    9  A    between atoms: C_18  and  C_22
REMARK   10  A    between atoms: C_19  and  C_20
REMARK   11  A    between atoms: C_19  and  C_21
REMARK                            x       y       z     vdW  Elec       q    Type
REMARK                         _______ _______ _______ _____ _____    ______ ____
ROOT
ATOM      6  C   UNL     1      -0.403   2.926  24.528  0.00  0.00    -0.013 C 
ATOM      7  C   UNL     1      -1.791   2.910  23.853  0.00  0.00    +0.004 C 
ATOM      8  C   UNL     1       0.059   1.949  23.427  0.00  0.00    +0.081 C 
ATOM      9  C   UNL     1      -1.418   1.522  23.294  0.00  0.00    +0.027 C 
ATOM     11  C   UNL     1      -0.411   2.388  25.941  0.00  0.00    +0.013 C 
ATOM     12  C   UNL     1       0.338   4.250  24.486  0.00  0.00    +0.013 C 
ENDROOT
BRANCH   8   3
ATOM      2  O   UNL     1       2.576   1.170  22.247  0.00  0.00    -0.253 OA
ATOM      3  N   UNL     1       0.948   0.866  23.870  0.00  0.00    -0.296 N 
ATOM      5  N   UNL     1       2.803  -0.501  23.844  0.00  0.00    -0.300 N 
ATOM     14  C   UNL     1       2.152   0.564  23.230  0.00  0.00    +0.300 C 
ATOM     23  H   UNL     1       0.694   0.294  24.671  0.00  0.00    +0.151 HD
ATOM     24  H   UNL     1       2.379  -0.932  24.660  0.00  0.00    +0.150 HD
BRANCH   5  18
ATOM     18  C   UNL     1       4.071  -1.013  23.376  0.00  0.00    +0.102 C 
ATOM     22  C   UNL     1       5.222  -0.146  23.840  0.00  0.00    +0.024 C 
ENDBRANCH   5  18
ENDBRANCH   8   3
BRANCH   7  10
ATOM     10  C   UNL     1      -3.019   2.928  24.771  0.00  0.00    +0.063 C 
BRANCH  10  13
ATOM      1  O   UNL     1      -4.935  -0.063  25.146  0.00  0.00    -0.359 OA
ATOM      4  N   UNL     1      -4.810   1.285  24.832  0.00  0.00    -0.083 NA
ATOM     13  C   UNL     1      -3.518   1.565  25.018  0.00  0.00    +0.084 A 
ATOM     15  C   UNL     1      -2.784   0.444  25.445  0.00  0.00    +0.071 A 
ATOM     16  C   UNL     1      -3.722  -0.553  25.510  0.00  0.00    +0.138 A 
BRANCH  16  17
ATOM     17  C   UNL     1      -3.670  -2.013  25.887  0.00  0.00    +0.080 C 
BRANCH  17  19
ATOM     19  C   UNL     1      -3.286  -2.945  24.720  0.00  0.00    -0.010 C 
ATOM     20  C   UNL     1      -4.234  -2.793  23.528  0.00  0.00    +0.007 C 
ATOM     21  C   UNL     1      -1.850  -2.656  24.277  0.00  0.00    +0.007 C 
ENDBRANCH  17  19
ENDBRANCH  16  17
ENDBRANCH  10  13
ENDBRANCH   7  10
TORSDOF 6
ENDMDL
