MODEL 1
REMARK VINA RESULT:       5.6      0.000      0.000
REMARK  Name = 11942696
REMARK  6 active torsions:
REMARK  status: ('A' for Active; 'I' for Inactive)
REMARK    1  A    between atoms: N_4  and  C_11
REMARK    2  A    between atoms: N_5  and  C_12
REMARK    3  A    between atoms: N_6  and  C_18
REMARK    4  A    between atoms: C_17  and  C_21
REMARK    5  A    between atoms: C_18  and  C_22
REMARK    6  A    between atoms: C_27  and  C_29
REMARK                            x       y       z     vdW  Elec       q    Type
REMARK                         _______ _______ _______ _____ _____    ______ ____
ROOT
ATOM      4  N   UNL     1      -5.124   1.510  24.265  0.00  0.00    -0.306 N 
ATOM      7  N   UNL     1      -3.070   0.433  24.156  0.00  0.00    -0.214 NA
ATOM      8  N   UNL     1      -5.103  -0.792  24.569  0.00  0.00    -0.223 NA
ATOM     15  C   UNL     1      -4.400   0.333  24.333  0.00  0.00    +0.216 A 
ATOM     17  C   UNL     1      -2.396  -0.733  24.228  0.00  0.00    +0.076 A 
ATOM     19  C   UNL     1      -4.367  -1.921  24.628  0.00  0.00    +0.116 A 
ATOM     20  C   UNL     1      -2.997  -1.953  24.465  0.00  0.00    +0.048 A 
ATOM     35  H   UNL     1      -6.118   1.448  24.450  0.00  0.00    +0.149 HD
ENDROOT
BRANCH   4  11
ATOM      1  O   UNL     1      -4.306   3.818  26.158  0.00  0.00    -0.370 OA
ATOM      2  O   UNL     1      -2.349   3.821  23.729  0.00  0.00    -0.370 OA
ATOM      9  C   UNL     1      -3.066   2.780  24.413  0.00  0.00    +0.171 C 
ATOM     10  C   UNL     1      -3.072   3.133  25.888  0.00  0.00    +0.171 C 
ATOM     11  C   UNL     1      -4.525   2.804  24.021  0.00  0.00    +0.130 C 
ATOM     12  C   UNL     1      -1.902   4.077  26.046  0.00  0.00    +0.131 C 
ATOM     13  C   UNL     1      -5.106   3.839  24.967  0.00  0.00    +0.185 C 
ATOM     14  C   UNL     1      -1.854   4.763  24.692  0.00  0.00    +0.185 C 
BRANCH  12   5
ATOM      3  O   UNL     1      -1.001   3.057  28.590  0.00  0.00    -0.253 OA
ATOM      5  N   UNL     1      -0.680   3.355  26.310  0.00  0.00    -0.292 N 
ATOM      6  N   UNL     1       0.901   2.233  27.549  0.00  0.00    -0.296 N 
ATOM     16  C   UNL     1      -0.323   2.897  27.577  0.00  0.00    +0.300 C 
ATOM     36  H   UNL     1      -0.083   3.112  25.526  0.00  0.00    +0.151 HD
ATOM     37  H   UNL     1       1.382   2.134  26.659  0.00  0.00    +0.151 HD
BRANCH   6  18
ATOM     18  C   UNL     1       1.507   1.659  28.725  0.00  0.00    +0.132 C 
BRANCH  18  22
ATOM     22  C   UNL     1       2.306   2.707  29.426  0.00  0.00    -0.016 C 
ATOM     28  C   UNL     1       3.070   3.607  28.797  0.00  0.00    +0.005 C 
ENDBRANCH  18  22
ENDBRANCH   6  18
ENDBRANCH  12   5
ENDBRANCH   4  11
BRANCH  17  21
ATOM     21  C   UNL     1      -0.969  -0.630  24.039  0.00  0.00    +0.001 A 
ATOM     23  C   UNL     1      -0.123  -1.612  24.556  0.00  0.00    +0.010 A 
ATOM     24  C   UNL     1      -0.435   0.452  23.338  0.00  0.00    +0.010 A 
ATOM     25  C   UNL     1       1.255  -1.512  24.373  0.00  0.00    +0.009 A 
ATOM     26  C   UNL     1       0.945   0.552  23.155  0.00  0.00    +0.009 A 
ATOM     27  C   UNL     1       1.790  -0.431  23.672  0.00  0.00    -0.018 A 
BRANCH  27  29
ATOM     29  C   UNL     1       3.220  -0.326  23.482  0.00  0.00    -0.018 A 
ATOM     30  C   UNL     1       3.761   0.793  22.851  0.00  0.00    +0.008 A 
ATOM     31  C   UNL     1       4.059  -1.346  23.932  0.00  0.00    +0.008 A 
ATOM     32  C   UNL     1       5.140   0.893  22.669  0.00  0.00    +0.001 A 
ATOM     33  C   UNL     1       5.439  -1.246  23.750  0.00  0.00    +0.001 A 
ATOM     34  C   UNL     1       5.979  -0.126  23.118  0.00  0.00    +0.000 A 
ENDBRANCH  27  29
ENDBRANCH  17  21
TORSDOF 6
ENDMDL
