MODEL 1
REMARK VINA RESULT:      -4.3      0.000      0.000
REMARK  Name = 11913299
REMARK  8 active torsions:
REMARK  status: ('A' for Active; 'I' for Inactive)
REMARK    1  A    between atoms: O_5  and  C_26
REMARK    2  A    between atoms: N_7  and  C_13
REMARK    3  A    between atoms: N_8  and  C_14
REMARK    4  A    between atoms: C_17  and  C_19
REMARK    5  A    between atoms: C_19  and  C_20
REMARK    6  A    between atoms: C_20  and  C_21
REMARK    7  A    between atoms: C_21  and  C_26
REMARK    8  A    between atoms: C_22  and  C_25
REMARK                            x       y       z     vdW  Elec       q    Type
REMARK                         _______ _______ _______ _____ _____    ______ ____
ROOT
ATOM      1  O   UNL     1      -1.352  -1.262  26.493  0.00  0.00    -0.370 OA
ATOM      2  O   UNL     1      -2.703  -2.181  23.834  0.00  0.00    -0.370 OA
ATOM     11  C   UNL     1      -1.952  -1.012  24.204  0.00  0.00    +0.171 C 
ATOM     12  C   UNL     1      -2.333  -0.663  25.630  0.00  0.00    +0.171 C 
ATOM     13  C   UNL     1      -0.478  -1.340  24.288  0.00  0.00    +0.130 C 
ATOM     14  C   UNL     1      -3.677  -1.325  25.825  0.00  0.00    +0.130 C 
ATOM     15  C   UNL     1      -0.350  -1.905  25.692  0.00  0.00    +0.185 C 
ATOM     16  C   UNL     1      -3.591  -2.530  24.906  0.00  0.00    +0.185 C 
ENDROOT
BRANCH  14   8
ATOM      8  N   UNL     1      -4.734  -0.439  25.389  0.00  0.00    -0.306 N 
ATOM      9  N   UNL     1      -3.297   1.383  25.297  0.00  0.00    -0.211 NA
ATOM     10  N   UNL     1      -5.629   1.599  24.727  0.00  0.00    -0.223 NA
ATOM     18  C   UNL     1      -4.545   0.906  25.127  0.00  0.00    +0.216 A 
ATOM     22  C   UNL     1      -3.149   2.698  25.031  0.00  0.00    +0.111 A 
ATOM     23  C   UNL     1      -5.409   2.907  24.480  0.00  0.00    +0.116 A 
ATOM     24  C   UNL     1      -4.178   3.517  24.614  0.00  0.00    +0.051 A 
ATOM     31  H   UNL     1      -5.659  -0.815  25.214  0.00  0.00    +0.149 HD
BRANCH  22  25
ATOM      4  O   UNL     1      -0.925   2.321  25.744  0.00  0.00    -0.461 OA
ATOM     25  C   UNL     1      -1.814   3.202  25.215  0.00  0.00    +0.153 A 
ATOM     27  C   UNL     1      -1.208   4.413  24.972  0.00  0.00    +0.051 A 
ATOM     28  C   UNL     1       0.140   4.266  25.378  0.00  0.00    +0.042 A 
ATOM     29  C   UNL     1       0.262   2.976  25.840  0.00  0.00    +0.196 A 
ENDBRANCH  22  25
ENDBRANCH  14   8
BRANCH  13   7
ATOM      3  O   UNL     1       1.062  -0.624  21.973  0.00  0.00    -0.276 OA
ATOM      7  N   UNL     1       0.330  -0.155  24.125  0.00  0.00    -0.308 N 
ATOM     17  C   UNL     1       1.041   0.104  22.962  0.00  0.00    +0.213 C 
ATOM     30  H   UNL     1       0.423   0.481  24.912  0.00  0.00    +0.149 HD
BRANCH  17  19
ATOM     19  C   UNL     1       1.830   1.399  23.061  0.00  0.00    +0.096 C 
BRANCH  19  20
ATOM     20  C   UNL     1       3.303   1.252  22.683  0.00  0.00    +0.020 C 
BRANCH  20  21
ATOM     21  C   UNL     1       3.885  -0.094  23.119  0.00  0.00    +0.121 C 
BRANCH  21  26
ATOM      6  O   UNL     1       6.314  -0.232  23.034  0.00  0.00    -0.251 OA
ATOM     26  C   UNL     1       5.294   0.046  23.648  0.00  0.00    +0.305 C 
BRANCH  26   5
ATOM      5  O   UNL     1       5.301   0.531  24.918  0.00  0.00    -0.481 OA
ATOM     32  H   UNL     1       6.207   0.563  25.292  0.00  0.00    +0.295 HD
ENDBRANCH  26   5
ENDBRANCH  21  26
ENDBRANCH  20  21
ENDBRANCH  19  20
ENDBRANCH  17  19
ENDBRANCH  13   7
TORSDOF 8
ENDMDL
MODEL 2
REMARK VINA RESULT:      -1.9      2.927      6.961
REMARK  Name = 11913299
REMARK  8 active torsions:
REMARK  status: ('A' for Active; 'I' for Inactive)
REMARK    1  A    between atoms: O_5  and  C_26
REMARK    2  A    between atoms: N_7  and  C_13
REMARK    3  A    between atoms: N_8  and  C_14
REMARK    4  A    between atoms: C_17  and  C_19
REMARK    5  A    between atoms: C_19  and  C_20
REMARK    6  A    between atoms: C_20  and  C_21
REMARK    7  A    between atoms: C_21  and  C_26
REMARK    8  A    between atoms: C_22  and  C_25
REMARK                            x       y       z     vdW  Elec       q    Type
REMARK                         _______ _______ _______ _____ _____    ______ ____
ROOT
ATOM      1  O   UNL     1      -2.286   3.266  26.653  0.00  0.00    -0.370 OA
ATOM      2  O   UNL     1      -1.408   5.195  24.363  0.00  0.00    -0.370 OA
ATOM     11  C   UNL     1      -2.240   4.023  24.398  0.00  0.00    +0.171 C 
ATOM     12  C   UNL     1      -1.622   3.061  25.395  0.00  0.00    +0.171 C 
ATOM     13  C   UNL     1      -3.589   4.354  24.995  0.00  0.00    +0.130 C 
ATOM     14  C   UNL     1      -0.180   3.499  25.486  0.00  0.00    +0.130 C 
ATOM     15  C   UNL     1      -3.321   4.247  26.485  0.00  0.00    +0.185 C 
ATOM     16  C   UNL     1      -0.266   4.988  25.208  0.00  0.00    +0.185 C 
ENDROOT
BRANCH  14   8
ATOM      8  N   UNL     1       0.603   2.844  24.462  0.00  0.00    -0.306 N 
ATOM      9  N   UNL     1      -0.457   0.808  24.821  0.00  0.00    -0.211 NA
ATOM     10  N   UNL     1       1.267   1.044  23.152  0.00  0.00    -0.223 NA
ATOM     18  C   UNL     1       0.465   1.507  24.131  0.00  0.00    +0.216 A 
ATOM     22  C   UNL     1      -0.565  -0.490  24.472  0.00  0.00    +0.111 A 
ATOM     23  C   UNL     1       1.105  -0.262  22.856  0.00  0.00    +0.116 A 
ATOM     24  C   UNL     1       0.196  -1.086  23.487  0.00  0.00    +0.051 A 
ATOM     31  H   UNL     1       1.258   3.387  23.911  0.00  0.00    +0.149 HD
BRANCH  22  25
ATOM      4  O   UNL     1      -2.065  -2.315  24.574  0.00  0.00    -0.461 OA
ATOM     25  C   UNL     1      -1.551  -1.232  25.213  0.00  0.00    +0.153 A 
ATOM     27  C   UNL     1      -2.113  -1.094  26.460  0.00  0.00    +0.051 A 
ATOM     28  C   UNL     1      -3.033  -2.161  26.597  0.00  0.00    +0.042 A 
ATOM     29  C   UNL     1      -2.967  -2.875  25.423  0.00  0.00    +0.196 A 
ENDBRANCH  22  25
ENDBRANCH  14   8
BRANCH  13   7
ATOM      3  O   UNL     1      -5.740   3.319  26.589  0.00  0.00    -0.276 OA
ATOM      7  N   UNL     1      -4.592   3.406  24.574  0.00  0.00    -0.308 N 
ATOM     17  C   UNL     1      -5.598   2.964  25.423  0.00  0.00    +0.213 C 
ATOM     30  H   UNL     1      -4.524   3.009  23.642  0.00  0.00    +0.149 HD
BRANCH  17  19
ATOM     19  C   UNL     1      -6.502   1.949  24.743  0.00  0.00    +0.096 C 
BRANCH  19  20
ATOM     20  C   UNL     1      -5.949   0.525  24.759  0.00  0.00    +0.020 C 
BRANCH  20  21
ATOM     21  C   UNL     1      -4.422   0.493  24.847  0.00  0.00    +0.121 C 
BRANCH  21  26
ATOM      6  O   UNL     1      -3.195   1.251  22.886  0.00  0.00    -0.251 OA
ATOM     26  C   UNL     1      -3.783   0.361  23.484  0.00  0.00    +0.305 C 
BRANCH  26   5
ATOM      5  O   UNL     1      -3.937  -0.894  22.983  0.00  0.00    -0.481 OA
ATOM     32  H   UNL     1      -4.727  -0.961  22.405  0.00  0.00    +0.295 HD
ENDBRANCH  26   5
ENDBRANCH  21  26
ENDBRANCH  20  21
ENDBRANCH  19  20
ENDBRANCH  17  19
ENDBRANCH  13   7
TORSDOF 8
ENDMDL
MODEL 3
REMARK VINA RESULT:      -1.3     14.257     18.730
REMARK  Name = 11913299
REMARK  8 active torsions:
REMARK  status: ('A' for Active; 'I' for Inactive)
REMARK    1  A    between atoms: O_5  and  C_26
REMARK    2  A    between atoms: N_7  and  C_13
REMARK    3  A    between atoms: N_8  and  C_14
REMARK    4  A    between atoms: C_17  and  C_19
REMARK    5  A    between atoms: C_19  and  C_20
REMARK    6  A    between atoms: C_20  and  C_21
REMARK    7  A    between atoms: C_21  and  C_26
REMARK    8  A    between atoms: C_22  and  C_25
REMARK                            x       y       z     vdW  Elec       q    Type
REMARK                         _______ _______ _______ _____ _____    ______ ____
ROOT
ATOM      1  O   UNL     1      11.466  -5.938  32.863  0.00  0.00    -0.370 OA
ATOM      2  O   UNL     1      12.836  -7.339  30.435  0.00  0.00    -0.370 OA
ATOM     11  C   UNL     1      12.085  -7.829  31.559  0.00  0.00    +0.171 C 
ATOM     12  C   UNL     1      12.456  -6.974  32.756  0.00  0.00    +0.171 C 
ATOM     13  C   UNL     1      10.610  -7.564  31.362  0.00  0.00    +0.130 C 
ATOM     14  C   UNL     1      13.796  -6.383  32.386  0.00  0.00    +0.130 C 
ATOM     15  C   UNL     1      10.468  -6.133  31.851  0.00  0.00    +0.185 C 
ATOM     16  C   UNL     1      13.714  -6.292  30.874  0.00  0.00    +0.185 C 
ENDROOT
BRANCH  14   8
ATOM      8  N   UNL     1      14.859  -7.282  32.776  0.00  0.00    -0.306 N 
ATOM      9  N   UNL     1      15.442  -7.702  30.568  0.00  0.00    -0.211 NA
ATOM     10  N   UNL     1      16.625  -8.741  32.393  0.00  0.00    -0.223 NA
ATOM     18  C   UNL     1      15.677  -7.937  31.873  0.00  0.00    +0.216 A 
ATOM     22  C   UNL     1      16.259  -8.356  29.716  0.00  0.00    +0.111 A 
ATOM     23  C   UNL     1      17.404  -9.363  31.484  0.00  0.00    +0.116 A 
ATOM     24  C   UNL     1      17.268  -9.206  30.120  0.00  0.00    +0.051 A 
ATOM     31  H   UNL     1      15.064  -7.414  33.760  0.00  0.00    +0.149 HD
BRANCH  22  25
ATOM      4  O   UNL     1      16.328  -9.114  27.477  0.00  0.00    -0.461 OA
ATOM     25  C   UNL     1      16.004  -8.102  28.322  0.00  0.00    +0.153 A 
ATOM     27  C   UNL     1      15.491  -7.034  27.624  0.00  0.00    +0.051 A 
ATOM     28  C   UNL     1      15.501  -7.415  26.261  0.00  0.00    +0.042 A 
ATOM     29  C   UNL     1      16.019  -8.689  26.224  0.00  0.00    +0.196 A 
ENDBRANCH  22  25
ENDBRANCH  14   8
BRANCH  13   7
ATOM      3  O   UNL     1      10.450 -10.415  31.061  0.00  0.00    -0.276 OA
ATOM      7  N   UNL     1       9.808  -8.468  32.150  0.00  0.00    -0.308 N 
ATOM     17  C   UNL     1       9.798  -9.838  31.927  0.00  0.00    +0.213 C 
ATOM     30  H   UNL     1       9.188  -8.079  32.855  0.00  0.00    +0.149 HD
BRANCH  17  19
ATOM     19  C   UNL     1       8.849 -10.555  32.873  0.00  0.00    +0.096 C 
BRANCH  19  20
ATOM     20  C   UNL     1       7.373 -10.334  32.548  0.00  0.00    +0.020 C 
BRANCH  20  21
ATOM     21  C   UNL     1       7.173  -9.468  31.303  0.00  0.00    +0.121 C 
BRANCH  21  26
ATOM      6  O   UNL     1       6.757  -7.489  32.658  0.00  0.00    -0.251 OA
ATOM     26  C   UNL     1       6.549  -8.133  31.639  0.00  0.00    +0.305 C 
BRANCH  26   5
ATOM      5  O   UNL     1       5.708  -7.716  30.656  0.00  0.00    -0.481 OA
ATOM     32  H   UNL     1       6.136  -7.063  30.063  0.00  0.00    +0.295 HD
ENDBRANCH  26   5
ENDBRANCH  21  26
ENDBRANCH  20  21
ENDBRANCH  19  20
ENDBRANCH  17  19
ENDBRANCH  13   7
TORSDOF 8
ENDMDL
MODEL 4
REMARK VINA RESULT:      -1.1      2.590      5.671
REMARK  Name = 11913299
REMARK  8 active torsions:
REMARK  status: ('A' for Active; 'I' for Inactive)
REMARK    1  A    between atoms: O_5  and  C_26
REMARK    2  A    between atoms: N_7  and  C_13
REMARK    3  A    between atoms: N_8  and  C_14
REMARK    4  A    between atoms: C_17  and  C_19
REMARK    5  A    between atoms: C_19  and  C_20
REMARK    6  A    between atoms: C_20  and  C_21
REMARK    7  A    between atoms: C_21  and  C_26
REMARK    8  A    between atoms: C_22  and  C_25
REMARK                            x       y       z     vdW  Elec       q    Type
REMARK                         _______ _______ _______ _____ _____    ______ ____
ROOT
ATOM      1  O   UNL     1      -0.313   1.164  25.836  0.00  0.00    -0.370 OA
ATOM      2  O   UNL     1       0.562   0.191  23.003  0.00  0.00    -0.370 OA
ATOM     11  C   UNL     1      -0.661   0.744  23.520  0.00  0.00    +0.171 C 
ATOM     12  C   UNL     1      -0.848   0.193  24.920  0.00  0.00    +0.171 C 
ATOM     13  C   UNL     1      -0.515   2.234  23.727  0.00  0.00    +0.130 C 
ATOM     14  C   UNL     1      -0.010  -1.063  24.939  0.00  0.00    +0.130 C 
ATOM     15  C   UNL     1       0.134   2.311  25.097  0.00  0.00    +0.185 C 
ATOM     16  C   UNL     1       1.101  -0.736  23.957  0.00  0.00    +0.185 C 
ENDROOT
BRANCH  14   8
ATOM      8  N   UNL     1      -0.786  -2.184  24.459  0.00  0.00    -0.306 N 
ATOM      9  N   UNL     1      -2.783  -1.019  24.684  0.00  0.00    -0.211 NA
ATOM     10  N   UNL     1      -2.743  -3.288  23.870  0.00  0.00    -0.223 NA
ATOM     18  C   UNL     1      -2.164  -2.162  24.333  0.00  0.00    +0.216 A 
ATOM     22  C   UNL     1      -4.125  -1.033  24.546  0.00  0.00    +0.111 A 
ATOM     23  C   UNL     1      -4.086  -3.231  23.758  0.00  0.00    +0.116 A 
ATOM     24  C   UNL     1      -4.838  -2.120  24.083  0.00  0.00    +0.051 A 
ATOM     31  H   UNL     1      -0.311  -3.024  24.148  0.00  0.00    +0.149 HD
BRANCH  22  25
ATOM      4  O   UNL     1      -5.990   0.406  24.343  0.00  0.00    -0.461 OA
ATOM     25  C   UNL     1      -4.781   0.191  24.923  0.00  0.00    +0.153 A 
ATOM     27  C   UNL     1      -4.457   1.230  25.763  0.00  0.00    +0.051 A 
ATOM     28  C   UNL     1      -5.536   2.143  25.694  0.00  0.00    +0.042 A 
ATOM     29  C   UNL     1      -6.444   1.596  24.817  0.00  0.00    +0.196 A 
ENDBRANCH  22  25
ENDBRANCH  14   8
BRANCH  13   7
ATOM      3  O   UNL     1      -2.594   1.905  21.775  0.00  0.00    -0.276 OA
ATOM      7  N   UNL     1      -1.802   2.889  23.722  0.00  0.00    -0.308 N 
ATOM     17  C   UNL     1      -2.745   2.664  22.729  0.00  0.00    +0.213 C 
ATOM     30  H   UNL     1      -1.997   3.580  24.440  0.00  0.00    +0.149 HD
BRANCH  17  19
ATOM     19  C   UNL     1      -3.997   3.498  22.943  0.00  0.00    +0.096 C 
BRANCH  19  20
ATOM     20  C   UNL     1      -3.737   4.829  23.646  0.00  0.00    +0.020 C 
BRANCH  20  21
ATOM     21  C   UNL     1      -3.926   4.734  25.162  0.00  0.00    +0.121 C 
BRANCH  21  26
ATOM      6  O   UNL     1      -2.430   3.764  26.818  0.00  0.00    -0.251 OA
ATOM     26  C   UNL     1      -2.613   4.528  25.881  0.00  0.00    +0.305 C 
BRANCH  26   5
ATOM      5  O   UNL     1      -1.631   5.307  25.355  0.00  0.00    -0.481 OA
ATOM     32  H   UNL     1      -1.902   6.248  25.302  0.00  0.00    +0.295 HD
ENDBRANCH  26   5
ENDBRANCH  21  26
ENDBRANCH  20  21
ENDBRANCH  19  20
ENDBRANCH  17  19
ENDBRANCH  13   7
TORSDOF 8
ENDMDL
MODEL 5
REMARK VINA RESULT:      -0.8      1.444      3.897
REMARK  Name = 11913299
REMARK  8 active torsions:
REMARK  status: ('A' for Active; 'I' for Inactive)
REMARK    1  A    between atoms: O_5  and  C_26
REMARK    2  A    between atoms: N_7  and  C_13
REMARK    3  A    between atoms: N_8  and  C_14
REMARK    4  A    between atoms: C_17  and  C_19
REMARK    5  A    between atoms: C_19  and  C_20
REMARK    6  A    between atoms: C_20  and  C_21
REMARK    7  A    between atoms: C_21  and  C_26
REMARK    8  A    between atoms: C_22  and  C_25
REMARK                            x       y       z     vdW  Elec       q    Type
REMARK                         _______ _______ _______ _____ _____    ______ ____
ROOT
ATOM      1  O   UNL     1      -0.904   4.078  23.986  0.00  0.00    -0.370 OA
ATOM      2  O   UNL     1      -2.067   3.352  26.790  0.00  0.00    -0.370 OA
ATOM     11  C   UNL     1      -1.732   2.570  25.630  0.00  0.00    +0.171 C 
ATOM     12  C   UNL     1      -2.095   3.395  24.410  0.00  0.00    +0.171 C 
ATOM     13  C   UNL     1      -0.233   2.401  25.526  0.00  0.00    +0.130 C 
ATOM     14  C   UNL     1      -3.113   4.386  24.924  0.00  0.00    +0.130 C 
ATOM     15  C   UNL     1       0.191   3.680  24.825  0.00  0.00    +0.185 C 
ATOM     16  C   UNL     1      -2.695   4.572  26.371  0.00  0.00    +0.185 C 
ENDROOT
BRANCH  14   8
ATOM      8  N   UNL     1      -4.439   3.813  24.857  0.00  0.00    -0.306 N 
ATOM      9  N   UNL     1      -3.607   1.645  24.860  0.00  0.00    -0.211 NA
ATOM     10  N   UNL     1      -5.977   2.075  24.764  0.00  0.00    -0.223 NA
ATOM     18  C   UNL     1      -4.685   2.452  24.825  0.00  0.00    +0.216 A 
ATOM     22  C   UNL     1      -3.883   0.325  24.829  0.00  0.00    +0.111 A 
ATOM     23  C   UNL     1      -6.179   0.741  24.736  0.00  0.00    +0.116 A 
ATOM     24  C   UNL     1      -5.162  -0.190  24.768  0.00  0.00    +0.051 A 
ATOM     31  H   UNL     1      -5.248   4.424  24.883  0.00  0.00    +0.149 HD
BRANCH  22  25
ATOM      4  O   UNL     1      -2.022  -0.510  26.026  0.00  0.00    -0.461 OA
ATOM     25  C   UNL     1      -2.728  -0.533  24.866  0.00  0.00    +0.153 A 
ATOM     27  C   UNL     1      -2.153  -1.400  23.967  0.00  0.00    +0.051 A 
ATOM     28  C   UNL     1      -1.020  -1.945  24.617  0.00  0.00    +0.042 A 
ATOM     29  C   UNL     1      -0.984  -1.372  25.867  0.00  0.00    +0.196 A 
ENDBRANCH  22  25
ENDBRANCH  14   8
BRANCH  13   7
ATOM      3  O   UNL     1       1.843   2.216  23.552  0.00  0.00    -0.276 OA
ATOM      7  N   UNL     1       0.107   1.238  24.742  0.00  0.00    -0.308 N 
ATOM     17  C   UNL     1       1.133   1.247  23.808  0.00  0.00    +0.213 C 
ATOM     30  H   UNL     1      -0.463   0.403  24.841  0.00  0.00    +0.149 HD
BRANCH  17  19
ATOM     19  C   UNL     1       1.263  -0.093  23.102  0.00  0.00    +0.096 C 
BRANCH  19  20
ATOM     20  C   UNL     1       2.482  -0.189  22.185  0.00  0.00    +0.020 C 
BRANCH  20  21
ATOM     21  C   UNL     1       3.663   0.638  22.696  0.00  0.00    +0.121 C 
BRANCH  21  26
ATOM      6  O   UNL     1       5.866   0.069  23.559  0.00  0.00    -0.251 OA
ATOM     26  C   UNL     1       4.688  -0.219  23.401  0.00  0.00    +0.305 C 
BRANCH  26   5
ATOM      5  O   UNL     1       4.140  -1.378  23.852  0.00  0.00    -0.481 OA
ATOM     32  H   UNL     1       3.938  -1.337  24.811  0.00  0.00    +0.295 HD
ENDBRANCH  26   5
ENDBRANCH  21  26
ENDBRANCH  20  21
ENDBRANCH  19  20
ENDBRANCH  17  19
ENDBRANCH  13   7
TORSDOF 8
ENDMDL
MODEL 6
REMARK VINA RESULT:      -0.8      2.063      4.815
REMARK  Name = 11913299
REMARK  8 active torsions:
REMARK  status: ('A' for Active; 'I' for Inactive)
REMARK    1  A    between atoms: O_5  and  C_26
REMARK    2  A    between atoms: N_7  and  C_13
REMARK    3  A    between atoms: N_8  and  C_14
REMARK    4  A    between atoms: C_17  and  C_19
REMARK    5  A    between atoms: C_19  and  C_20
REMARK    6  A    between atoms: C_20  and  C_21
REMARK    7  A    between atoms: C_21  and  C_26
REMARK    8  A    between atoms: C_22  and  C_25
REMARK                            x       y       z     vdW  Elec       q    Type
REMARK                         _______ _______ _______ _____ _____    ______ ____
ROOT
ATOM      1  O   UNL     1      -1.296   2.899  23.154  0.00  0.00    -0.370 OA
ATOM      2  O   UNL     1      -0.974   4.572  25.769  0.00  0.00    -0.370 OA
ATOM     11  C   UNL     1      -1.169   3.170  25.515  0.00  0.00    +0.171 C 
ATOM     12  C   UNL     1      -2.109   3.053  24.330  0.00  0.00    +0.171 C 
ATOM     13  C   UNL     1       0.117   2.541  25.027  0.00  0.00    +0.130 C 
ATOM     14  C   UNL     1      -2.830   4.379  24.298  0.00  0.00    +0.130 C 
ATOM     15  C   UNL     1       0.086   2.847  23.540  0.00  0.00    +0.185 C 
ATOM     16  C   UNL     1      -1.800   5.332  24.875  0.00  0.00    +0.185 C 
ENDROOT
BRANCH  14   8
ATOM      8  N   UNL     1      -3.997   4.329  25.151  0.00  0.00    -0.306 N 
ATOM      9  N   UNL     1      -4.192   2.027  24.908  0.00  0.00    -0.211 NA
ATOM     10  N   UNL     1      -5.743   3.278  26.265  0.00  0.00    -0.223 NA
ATOM     18  C   UNL     1      -4.673   3.160  25.454  0.00  0.00    +0.216 A 
ATOM     22  C   UNL     1      -4.874   0.908  25.226  0.00  0.00    +0.111 A 
ATOM     23  C   UNL     1      -6.377   2.119  26.540  0.00  0.00    +0.116 A 
ATOM     24  C   UNL     1      -5.984   0.892  26.046  0.00  0.00    +0.051 A 
ATOM     31  H   UNL     1      -4.324   5.177  25.600  0.00  0.00    +0.149 HD
BRANCH  22  25
ATOM      4  O   UNL     1      -4.088  -1.304  25.515  0.00  0.00    -0.461 OA
ATOM     25  C   UNL     1      -4.356  -0.300  24.640  0.00  0.00    +0.153 A 
ATOM     27  C   UNL     1      -4.057  -0.687  23.355  0.00  0.00    +0.051 A 
ATOM     28  C   UNL     1      -3.575  -2.014  23.446  0.00  0.00    +0.042 A 
ATOM     29  C   UNL     1      -3.613  -2.344  24.781  0.00  0.00    +0.196 A 
ENDBRANCH  22  25
ENDBRANCH  14   8
BRANCH  13   7
ATOM      3  O   UNL     1      -1.992   0.994  26.212  0.00  0.00    -0.276 OA
ATOM      7  N   UNL     1       0.125   1.118  25.268  0.00  0.00    -0.308 N 
ATOM     17  C   UNL     1      -0.948   0.458  25.849  0.00  0.00    +0.213 C 
ATOM     30  H   UNL     1       0.970   0.595  25.055  0.00  0.00    +0.149 HD
BRANCH  17  19
ATOM     19  C   UNL     1      -0.671  -1.027  26.017  0.00  0.00    +0.096 C 
BRANCH  19  20
ATOM     20  C   UNL     1      -0.018  -1.673  24.796  0.00  0.00    +0.020 C 
BRANCH  20  21
ATOM     21  C   UNL     1      -0.316  -0.910  23.504  0.00  0.00    +0.121 C 
BRANCH  21  26
ATOM      6  O   UNL     1       1.041  -0.493  21.526  0.00  0.00    -0.251 OA
ATOM     26  C   UNL     1       0.947  -0.577  22.743  0.00  0.00    +0.305 C 
BRANCH  26   5
ATOM      5  O   UNL     1       1.995  -0.374  23.585  0.00  0.00    -0.481 OA
ATOM     32  H   UNL     1       2.152  -1.149  24.165  0.00  0.00    +0.295 HD
ENDBRANCH  26   5
ENDBRANCH  21  26
ENDBRANCH  20  21
ENDBRANCH  19  20
ENDBRANCH  17  19
ENDBRANCH  13   7
TORSDOF 8
ENDMDL
MODEL 7
REMARK VINA RESULT:      -0.4      2.760      7.264
REMARK  Name = 11913299
REMARK  8 active torsions:
REMARK  status: ('A' for Active; 'I' for Inactive)
REMARK    1  A    between atoms: O_5  and  C_26
REMARK    2  A    between atoms: N_7  and  C_13
REMARK    3  A    between atoms: N_8  and  C_14
REMARK    4  A    between atoms: C_17  and  C_19
REMARK    5  A    between atoms: C_19  and  C_20
REMARK    6  A    between atoms: C_20  and  C_21
REMARK    7  A    between atoms: C_21  and  C_26
REMARK    8  A    between atoms: C_22  and  C_25
REMARK                            x       y       z     vdW  Elec       q    Type
REMARK                         _______ _______ _______ _____ _____    ______ ____
ROOT
ATOM      1  O   UNL     1      -1.796   3.278  26.637  0.00  0.00    -0.370 OA
ATOM      2  O   UNL     1      -1.305   4.760  23.935  0.00  0.00    -0.370 OA
ATOM     11  C   UNL     1      -1.920   3.504  24.271  0.00  0.00    +0.171 C 
ATOM     12  C   UNL     1      -1.128   2.908  25.419  0.00  0.00    +0.171 C 
ATOM     13  C   UNL     1      -3.296   3.733  24.854  0.00  0.00    +0.130 C 
ATOM     14  C   UNL     1       0.218   3.589  25.332  0.00  0.00    +0.130 C 
ATOM     15  C   UNL     1      -2.989   4.010  26.315  0.00  0.00    +0.185 C 
ATOM     16  C   UNL     1      -0.131   4.942  24.740  0.00  0.00    +0.185 C 
ENDROOT
BRANCH  14   8
ATOM      8  N   UNL     1       1.085   2.859  24.435  0.00  0.00    -0.306 N 
ATOM      9  N   UNL     1      -0.189   0.926  24.623  0.00  0.00    -0.211 NA
ATOM     10  N   UNL     1       1.779   0.996  23.233  0.00  0.00    -0.223 NA
ATOM     18  C   UNL     1       0.883   1.536  24.082  0.00  0.00    +0.216 A 
ATOM     22  C   UNL     1      -0.356  -0.361  24.256  0.00  0.00    +0.111 A 
ATOM     23  C   UNL     1       1.551  -0.293  22.910  0.00  0.00    +0.116 A 
ATOM     24  C   UNL     1       0.489  -1.030  23.394  0.00  0.00    +0.051 A 
ATOM     31  H   UNL     1       1.861   3.338  23.991  0.00  0.00    +0.149 HD
BRANCH  22  25
ATOM      4  O   UNL     1      -1.999  -2.058  24.130  0.00  0.00    -0.461 OA
ATOM     25  C   UNL     1      -1.503  -1.009  24.837  0.00  0.00    +0.153 A 
ATOM     27  C   UNL     1      -2.239  -0.803  25.980  0.00  0.00    +0.051 A 
ATOM     28  C   UNL     1      -3.254  -1.790  25.976  0.00  0.00    +0.042 A 
ATOM     29  C   UNL     1      -3.065  -2.528  24.830  0.00  0.00    +0.196 A 
ENDBRANCH  22  25
ENDBRANCH  14   8
BRANCH  13   7
ATOM      3  O   UNL     1      -2.943   1.615  22.949  0.00  0.00    -0.276 OA
ATOM      7  N   UNL     1      -4.125   2.561  24.707  0.00  0.00    -0.308 N 
ATOM     17  C   UNL     1      -3.872   1.588  23.751  0.00  0.00    +0.213 C 
ATOM     30  H   UNL     1      -4.954   2.478  25.288  0.00  0.00    +0.149 HD
BRANCH  17  19
ATOM     19  C   UNL     1      -4.910   0.478  23.789  0.00  0.00    +0.096 C 
BRANCH  19  20
ATOM     20  C   UNL     1      -5.811   0.521  25.022  0.00  0.00    +0.020 C 
BRANCH  20  21
ATOM     21  C   UNL     1      -6.725   1.748  25.034  0.00  0.00    +0.121 C 
BRANCH  21  26
ATOM      6  O   UNL     1      -6.140   2.336  27.322  0.00  0.00    -0.251 OA
ATOM     26  C   UNL     1      -6.402   2.681  26.178  0.00  0.00    +0.305 C 
BRANCH  26   5
ATOM      5  O   UNL     1      -6.434   3.981  25.783  0.00  0.00    -0.481 OA
ATOM     32  H   UNL     1      -5.846   4.143  25.015  0.00  0.00    +0.295 HD
ENDBRANCH  26   5
ENDBRANCH  21  26
ENDBRANCH  20  21
ENDBRANCH  19  20
ENDBRANCH  17  19
ENDBRANCH  13   7
TORSDOF 8
ENDMDL
