MODEL 1
REMARK VINA RESULT:      -5.8      0.000      0.000
REMARK  Name = 38027267
REMARK  12 active torsions:
REMARK  status: ('A' for Active; 'I' for Inactive)
REMARK    1  A    between atoms: N_3  and  C_15
REMARK    2  A    between atoms: N_4  and  C_14
REMARK    3  A    between atoms: N_5  and  C_25
REMARK    4  A    between atoms: C_6  and  C_10
REMARK    5  A    between atoms: C_7  and  C_14
REMARK    6  A    between atoms: C_9  and  C_13
REMARK    7  A    between atoms: C_10  and  C_16
REMARK    8  A    between atoms: C_10  and  C_17
REMARK    9  A    between atoms: C_11  and  C_20
REMARK   10  A    between atoms: C_13  and  C_21
REMARK   11  A    between atoms: C_25  and  C_26
REMARK   12  A    between atoms: C_25  and  C_27
REMARK                            x       y       z     vdW  Elec       q    Type
REMARK                         _______ _______ _______ _____ _____    ______ ____
ROOT
ATOM      6  C   UNL     1      -1.002   0.734  24.574  0.00  0.00    +0.000 C 
ATOM      7  C   UNL     1      -0.220  -0.554  24.213  0.00  0.00    +0.032 C 
ATOM      8  C   UNL     1      -2.038   0.443  25.669  0.00  0.00    +0.012 C 
ATOM      9  C   UNL     1      -3.049  -0.638  25.243  0.00  0.00    +0.023 C 
ATOM     11  C   UNL     1      -2.362  -1.839  24.625  0.00  0.00    -0.073 C 
ATOM     12  C   UNL     1      -1.092  -1.786  24.183  0.00  0.00    -0.022 C 
ATOM     20  C   UNL     1      -3.152  -3.117  24.569  0.00  0.00    +0.039 C 
ENDROOT
BRANCH   6  10
ATOM     10  C   UNL     1      -0.067   1.859  25.030  0.00  0.00    -0.013 C 
ATOM     16  C   UNL     1      -0.205   3.071  24.114  0.00  0.00    +0.007 C 
ATOM     17  C   UNL     1      -0.359   2.239  26.478  0.00  0.00    +0.007 C 
ENDBRANCH   6  10
BRANCH   9  13
ATOM     13  C   UNL     1      -4.106  -0.063  24.295  0.00  0.00    +0.103 C 
BRANCH  13  21
ATOM      1  O   UNL     1      -5.610   1.210  25.699  0.00  0.00    -0.276 OA
ATOM      3  N   UNL     1      -4.185   2.326  24.242  0.00  0.00    -0.312 N 
ATOM     21  C   UNL     1      -4.732   1.201  24.840  0.00  0.00    +0.214 C 
ATOM     28  H   UNL     1      -3.432   2.211  23.570  0.00  0.00    +0.149 HD
BRANCH   3  15
ATOM     15  C   UNL     1      -4.594   3.670  24.568  0.00  0.00    +0.073 C 
ATOM     18  C   UNL     1      -3.571   4.697  24.102  0.00  0.00    +0.022 C 
ATOM     19  C   UNL     1      -4.644   3.900  26.073  0.00  0.00    +0.022 C 
ATOM     22  C   UNL     1      -2.506   4.701  25.195  0.00  0.00    +0.002 C 
ATOM     23  C   UNL     1      -3.205   4.229  26.470  0.00  0.00    +0.002 C 
ENDBRANCH   3  15
ENDBRANCH  13  21
ENDBRANCH   9  13
BRANCH   7  14
ATOM     14  C   UNL     1       0.500  -0.404  22.867  0.00  0.00    +0.113 C 
BRANCH  14   4
ATOM      2  O   UNL     1       2.766   1.367  23.102  0.00  0.00    -0.253 OA
ATOM      4  N   UNL     1       1.875  -0.776  22.983  0.00  0.00    -0.299 N 
ATOM      5  N   UNL     1       4.160  -0.485  23.193  0.00  0.00    -0.297 N 
ATOM     24  C   UNL     1       2.923   0.147  23.094  0.00  0.00    +0.300 C 
ATOM     29  H   UNL     1       2.107  -1.762  23.057  0.00  0.00    +0.150 HD
ATOM     30  H   UNL     1       4.195  -1.495  23.097  0.00  0.00    +0.150 HD
BRANCH   5  25
ATOM     25  C   UNL     1       5.403   0.241  23.317  0.00  0.00    +0.068 C 
ATOM     26  C   UNL     1       6.558  -0.590  22.770  0.00  0.00    +0.027 C 
ATOM     27  C   UNL     1       5.647   0.639  24.766  0.00  0.00    +0.027 C 
ENDBRANCH   5  25
ENDBRANCH  14   4
ENDBRANCH   7  14
TORSDOF 7
ENDMDL
MODEL 2
REMARK VINA RESULT:      -3.6      1.422      3.341
REMARK  Name = 38027267
REMARK  12 active torsions:
REMARK  status: ('A' for Active; 'I' for Inactive)
REMARK    1  A    between atoms: N_3  and  C_15
REMARK    2  A    between atoms: N_4  and  C_14
REMARK    3  A    between atoms: N_5  and  C_25
REMARK    4  A    between atoms: C_6  and  C_10
REMARK    5  A    between atoms: C_7  and  C_14
REMARK    6  A    between atoms: C_9  and  C_13
REMARK    7  A    between atoms: C_10  and  C_16
REMARK    8  A    between atoms: C_10  and  C_17
REMARK    9  A    between atoms: C_11  and  C_20
REMARK   10  A    between atoms: C_13  and  C_21
REMARK   11  A    between atoms: C_25  and  C_26
REMARK   12  A    between atoms: C_25  and  C_27
REMARK                            x       y       z     vdW  Elec       q    Type
REMARK                         _______ _______ _______ _____ _____    ______ ____
ROOT
ATOM      6  C   UNL     1      -3.221  -0.625  24.849  0.00  0.00    +0.000 C 
ATOM      7  C   UNL     1      -2.040   0.032  24.090  0.00  0.00    +0.032 C 
ATOM      8  C   UNL     1      -4.543  -0.364  24.113  0.00  0.00    +0.012 C 
ATOM      9  C   UNL     1      -4.838   1.140  23.959  0.00  0.00    +0.023 C 
ATOM     11  C   UNL     1      -3.626   1.904  23.465  0.00  0.00    -0.073 C 
ATOM     12  C   UNL     1      -2.386   1.387  23.519  0.00  0.00    -0.022 C 
ATOM     20  C   UNL     1      -3.879   3.259  22.864  0.00  0.00    +0.039 C 
ENDROOT
BRANCH   6  10
ATOM     10  C   UNL     1      -3.014  -2.133  25.027  0.00  0.00    -0.013 C 
ATOM     16  C   UNL     1      -4.071  -2.911  24.250  0.00  0.00    +0.007 C 
ATOM     17  C   UNL     1      -1.611  -2.533  24.583  0.00  0.00    +0.007 C 
ENDBRANCH   6  10
BRANCH   9  13
ATOM     13  C   UNL     1      -5.366   1.735  25.268  0.00  0.00    +0.103 C 
BRANCH  13  21
ATOM      1  O   UNL     1      -5.182   4.140  25.458  0.00  0.00    -0.276 OA
ATOM      3  N   UNL     1      -3.413   2.799  26.146  0.00  0.00    -0.312 N 
ATOM     21  C   UNL     1      -4.675   3.033  25.622  0.00  0.00    +0.214 C 
ATOM     28  H   UNL     1      -3.103   1.841  26.279  0.00  0.00    +0.149 HD
BRANCH   3  15
ATOM     15  C   UNL     1      -2.527   3.856  26.570  0.00  0.00    +0.073 C 
ATOM     18  C   UNL     1      -2.651   5.084  25.679  0.00  0.00    +0.022 C 
ATOM     19  C   UNL     1      -1.063   3.468  26.411  0.00  0.00    +0.022 C 
ATOM     22  C   UNL     1      -1.779   4.769  24.467  0.00  0.00    +0.002 C 
ATOM     23  C   UNL     1      -0.734   3.762  24.947  0.00  0.00    +0.002 C 
ENDBRANCH   3  15
ENDBRANCH  13  21
ENDBRANCH   9  13
BRANCH   7  14
ATOM     14  C   UNL     1      -0.805   0.156  24.991  0.00  0.00    +0.113 C 
BRANCH  14   4
ATOM      2  O   UNL     1       1.285   1.887  24.008  0.00  0.00    -0.253 OA
ATOM      4  N   UNL     1       0.376  -0.234  24.288  0.00  0.00    -0.299 N 
ATOM      5  N   UNL     1       2.394   0.021  23.187  0.00  0.00    -0.297 N 
ATOM     24  C   UNL     1       1.349   0.670  23.841  0.00  0.00    +0.300 C 
ATOM     29  H   UNL     1       0.560  -1.225  24.159  0.00  0.00    +0.150 HD
ATOM     30  H   UNL     1       2.319  -0.978  23.029  0.00  0.00    +0.150 HD
BRANCH   5  25
ATOM     25  C   UNL     1       3.525   0.726  22.629  0.00  0.00    +0.068 C 
ATOM     26  C   UNL     1       3.690   0.381  21.154  0.00  0.00    +0.027 C 
ATOM     27  C   UNL     1       4.792   0.412  23.415  0.00  0.00    +0.027 C 
ENDBRANCH   5  25
ENDBRANCH  14   4
ENDBRANCH   7  14
TORSDOF 7
ENDMDL
MODEL 3
REMARK VINA RESULT:      -2.2      1.746      6.935
REMARK  Name = 38027267
REMARK  12 active torsions:
REMARK  status: ('A' for Active; 'I' for Inactive)
REMARK    1  A    between atoms: N_3  and  C_15
REMARK    2  A    between atoms: N_4  and  C_14
REMARK    3  A    between atoms: N_5  and  C_25
REMARK    4  A    between atoms: C_6  and  C_10
REMARK    5  A    between atoms: C_7  and  C_14
REMARK    6  A    between atoms: C_9  and  C_13
REMARK    7  A    between atoms: C_10  and  C_16
REMARK    8  A    between atoms: C_10  and  C_17
REMARK    9  A    between atoms: C_11  and  C_20
REMARK   10  A    between atoms: C_13  and  C_21
REMARK   11  A    between atoms: C_25  and  C_26
REMARK   12  A    between atoms: C_25  and  C_27
REMARK                            x       y       z     vdW  Elec       q    Type
REMARK                         _______ _______ _______ _____ _____    ______ ____
ROOT
ATOM      6  C   UNL     1      -2.113   3.171  25.121  0.00  0.00    +0.000 C 
ATOM      7  C   UNL     1      -3.390   3.060  24.251  0.00  0.00    +0.032 C 
ATOM      8  C   UNL     1      -0.873   3.353  24.233  0.00  0.00    +0.012 C 
ATOM      9  C   UNL     1      -0.689   2.189  23.241  0.00  0.00    +0.023 C 
ATOM     11  C   UNL     1      -1.984   1.843  22.534  0.00  0.00    -0.073 C 
ATOM     12  C   UNL     1      -3.180   2.252  22.993  0.00  0.00    -0.022 C 
ATOM     20  C   UNL     1      -1.868   1.052  21.261  0.00  0.00    +0.039 C 
ENDROOT
BRANCH   6  10
ATOM     10  C   UNL     1      -2.206   4.324  26.126  0.00  0.00    -0.013 C 
ATOM     16  C   UNL     1      -1.990   5.661  25.424  0.00  0.00    +0.007 C 
ATOM     17  C   UNL     1      -3.554   4.298  26.840  0.00  0.00    +0.007 C 
ENDBRANCH   6  10
BRANCH   9  13
ATOM     13  C   UNL     1      -0.098   0.959  23.938  0.00  0.00    +0.103 C 
BRANCH  13  21
ATOM      1  O   UNL     1       0.467  -0.707  22.277  0.00  0.00    -0.276 OA
ATOM      3  N   UNL     1       2.144   0.625  23.178  0.00  0.00    -0.312 N 
ATOM     21  C   UNL     1       0.837   0.188  23.033  0.00  0.00    +0.214 C 
ATOM     28  H   UNL     1       2.339   1.402  23.802  0.00  0.00    +0.149 HD
BRANCH   3  15
ATOM     15  C   UNL     1       3.249   0.066  22.439  0.00  0.00    +0.073 C 
ATOM     18  C   UNL     1       3.818  -1.168  23.126  0.00  0.00    +0.022 C 
ATOM     19  C   UNL     1       4.443   1.011  22.398  0.00  0.00    +0.022 C 
ATOM     22  C   UNL     1       4.750  -0.614  24.200  0.00  0.00    +0.002 C 
ATOM     23  C   UNL     1       5.184   0.769  23.713  0.00  0.00    +0.002 C 
ENDBRANCH   3  15
ENDBRANCH  13  21
ENDBRANCH   9  13
BRANCH   7  14
ATOM     14  C   UNL     1      -4.555   2.466  25.052  0.00  0.00    +0.113 C 
BRANCH  14   4
ATOM      2  O   UNL     1      -2.831   0.243  25.696  0.00  0.00    -0.253 OA
ATOM      4  N   UNL     1      -4.756   1.093  24.711  0.00  0.00    -0.299 N 
ATOM      5  N   UNL     1      -4.309  -1.174  24.603  0.00  0.00    -0.297 N 
ATOM     24  C   UNL     1      -3.870   0.067  25.061  0.00  0.00    +0.300 C 
ATOM     29  H   UNL     1      -5.621   0.830  24.246  0.00  0.00    +0.150 HD
ATOM     30  H   UNL     1      -5.139  -1.207  24.019  0.00  0.00    +0.150 HD
BRANCH   5  25
ATOM     25  C   UNL     1      -3.575  -2.397  24.831  0.00  0.00    +0.068 C 
ATOM     26  C   UNL     1      -2.086  -2.171  24.601  0.00  0.00    +0.027 C 
ATOM     27  C   UNL     1      -4.108  -3.514  23.944  0.00  0.00    +0.027 C 
ENDBRANCH   5  25
ENDBRANCH  14   4
ENDBRANCH   7  14
TORSDOF 7
ENDMDL
MODEL 4
REMARK VINA RESULT:      -2.2      1.461      7.365
REMARK  Name = 38027267
REMARK  12 active torsions:
REMARK  status: ('A' for Active; 'I' for Inactive)
REMARK    1  A    between atoms: N_3  and  C_15
REMARK    2  A    between atoms: N_4  and  C_14
REMARK    3  A    between atoms: N_5  and  C_25
REMARK    4  A    between atoms: C_6  and  C_10
REMARK    5  A    between atoms: C_7  and  C_14
REMARK    6  A    between atoms: C_9  and  C_13
REMARK    7  A    between atoms: C_10  and  C_16
REMARK    8  A    between atoms: C_10  and  C_17
REMARK    9  A    between atoms: C_11  and  C_20
REMARK   10  A    between atoms: C_13  and  C_21
REMARK   11  A    between atoms: C_25  and  C_26
REMARK   12  A    between atoms: C_25  and  C_27
REMARK                            x       y       z     vdW  Elec       q    Type
REMARK                         _______ _______ _______ _____ _____    ______ ____
ROOT
ATOM      6  C   UNL     1      -2.341  -1.262  24.321  0.00  0.00    +0.000 C 
ATOM      7  C   UNL     1      -2.946  -0.473  25.509  0.00  0.00    +0.032 C 
ATOM      8  C   UNL     1      -0.830  -1.454  24.519  0.00  0.00    +0.012 C 
ATOM      9  C   UNL     1      -0.083  -0.114  24.646  0.00  0.00    +0.023 C 
ATOM     11  C   UNL     1      -0.777   0.829  25.608  0.00  0.00    -0.073 C 
ATOM     12  C   UNL     1      -2.053   0.644  25.993  0.00  0.00    -0.022 C 
ATOM     20  C   UNL     1       0.044   1.964  26.154  0.00  0.00    +0.039 C 
ENDROOT
BRANCH   6  10
ATOM     10  C   UNL     1      -3.019  -2.624  24.138  0.00  0.00    -0.013 C 
ATOM     16  C   UNL     1      -3.221  -3.304  25.488  0.00  0.00    +0.007 C 
ATOM     17  C   UNL     1      -4.349  -2.461  23.408  0.00  0.00    +0.007 C 
ENDBRANCH   6  10
BRANCH   9  13
ATOM     13  C   UNL     1       0.108   0.543  23.275  0.00  0.00    +0.103 C 
BRANCH  13  21
ATOM      1  O   UNL     1       1.089  -0.557  21.357  0.00  0.00    -0.276 OA
ATOM      3  N   UNL     1       2.412  -0.092  23.210  0.00  0.00    -0.312 N 
ATOM     21  C   UNL     1       1.229  -0.097  22.487  0.00  0.00    +0.214 C 
ATOM     28  H   UNL     1       2.431   0.351  24.124  0.00  0.00    +0.149 HD
BRANCH   3  15
ATOM     15  C   UNL     1       3.647  -0.640  22.705  0.00  0.00    +0.073 C 
ATOM     18  C   UNL     1       4.388  -1.434  23.772  0.00  0.00    +0.022 C 
ATOM     19  C   UNL     1       4.645   0.450  22.339  0.00  0.00    +0.022 C 
ATOM     22  C   UNL     1       5.130  -0.379  24.588  0.00  0.00    +0.002 C 
ATOM     23  C   UNL     1       5.332   0.815  23.655  0.00  0.00    +0.002 C 
ENDBRANCH   3  15
ENDBRANCH  13  21
ENDBRANCH   9  13
BRANCH   7  14
ATOM     14  C   UNL     1      -4.325   0.094  25.151  0.00  0.00    +0.113 C 
BRANCH  14   4
ATOM      2  O   UNL     1      -3.142   2.352  23.797  0.00  0.00    -0.253 OA
ATOM      4  N   UNL     1      -4.421   1.470  25.526  0.00  0.00    -0.299 N 
ATOM      5  N   UNL     1      -4.070   3.753  25.398  0.00  0.00    -0.297 N 
ATOM     24  C   UNL     1      -3.815   2.514  24.814  0.00  0.00    +0.300 C 
ATOM     29  H   UNL     1      -5.014   1.719  26.312  0.00  0.00    +0.150 HD
ATOM     30  H   UNL     1      -4.570   3.777  26.280  0.00  0.00    +0.150 HD
BRANCH   5  25
ATOM     25  C   UNL     1      -3.558   4.991  24.859  0.00  0.00    +0.068 C 
ATOM     26  C   UNL     1      -3.862   5.086  23.368  0.00  0.00    +0.027 C 
ATOM     27  C   UNL     1      -2.064   5.115  25.126  0.00  0.00    +0.027 C 
ENDBRANCH   5  25
ENDBRANCH  14   4
ENDBRANCH   7  14
TORSDOF 7
ENDMDL
