MODEL 1
REMARK VINA RESULT:      -1.7      0.000      0.000
REMARK  Name = 75367721
REMARK  8 active torsions:
REMARK  status: ('A' for Active; 'I' for Inactive)
REMARK    1  A    between atoms: S_1  and  C_20
REMARK    2  A    between atoms: S_1  and  C_26
REMARK    3  A    between atoms: O_3  and  C_9
REMARK    4  A    between atoms: O_3  and  C_15
REMARK    5  A    between atoms: O_4  and  C_25
REMARK    6  A    between atoms: O_4  and  C_27
REMARK    7  A    between atoms: N_7  and  C_12
REMARK    8  A    between atoms: C_12  and  C_14
REMARK                            x       y       z     vdW  Elec       q    Type
REMARK                         _______ _______ _______ _____ _____    ______ ____
ROOT
ATOM      2  O   UNL     1      -5.447   4.047  26.454  0.00  0.00    -0.375 OA
ATOM      7  N   UNL     1      -5.414   1.440  24.743  0.00  0.00    -0.292 NA
ATOM      8  C   UNL     1      -4.044   1.897  24.488  0.00  0.00    +0.131 C 
ATOM      9  C   UNL     1      -3.569   3.173  25.201  0.00  0.00    +0.213 C 
ATOM     10  C   UNL     1      -5.869   1.635  26.121  0.00  0.00    +0.113 C 
ATOM     11  C   UNL     1      -4.628   4.263  25.310  0.00  0.00    +0.205 C 
ATOM     13  C   UNL     1      -6.440   3.044  26.287  0.00  0.00    +0.175 C 
ENDROOT
BRANCH   9   3
ATOM      3  O   UNL     1      -2.463   3.706  24.471  0.00  0.00    -0.485 OA
BRANCH   3  15
ATOM     15  C   UNL     1      -1.503   2.814  24.080  0.00  0.00    +0.121 A 
ATOM     18  C   UNL     1      -0.237   2.851  24.666  0.00  0.00    +0.047 A 
ATOM     19  C   UNL     1      -1.789   1.867  23.097  0.00  0.00    +0.047 A 
ATOM     20  C   UNL     1       0.457   0.994  23.284  0.00  0.00    +0.088 A 
ATOM     23  C   UNL     1       0.743   1.941  24.268  0.00  0.00    +0.030 A 
ATOM     24  C   UNL     1      -0.810   0.957  22.698  0.00  0.00    +0.030 A 
BRANCH  20   1
ATOM      1  S   UNL     1       1.683  -0.143  22.782  0.00  0.00    -0.006 S 
ATOM      5  O   UNL     1       1.823  -1.168  23.807  0.00  0.00    -0.170 OA
ATOM      6  O   UNL     1       1.398  -0.530  21.407  0.00  0.00    -0.170 OA
ATOM     26  C   UNL     1       3.189   0.801  22.783  0.00  0.00    +0.200 C 
ENDBRANCH  20   1
ENDBRANCH   3  15
ENDBRANCH   9   3
BRANCH   7  12
ATOM     12  C   UNL     1      -5.566   0.047  24.321  0.00  0.00    +0.119 C 
BRANCH  12  14
ATOM     14  C   UNL     1      -4.301  -0.743  24.527  0.00  0.00    -0.033 A 
ATOM     16  C   UNL     1      -4.075  -1.904  23.787  0.00  0.00    +0.008 A 
ATOM     17  C   UNL     1      -3.354  -0.314  25.457  0.00  0.00    +0.008 A 
ATOM     21  C   UNL     1      -2.903  -2.635  23.977  0.00  0.00    +0.046 A 
ATOM     22  C   UNL     1      -2.182  -1.045  25.648  0.00  0.00    +0.046 A 
ATOM     25  C   UNL     1      -1.956  -2.206  24.907  0.00  0.00    +0.120 A 
BRANCH  25   4
ATOM      4  O   UNL     1      -0.814  -2.920  25.094  0.00  0.00    -0.495 OA
ATOM     27  C   UNL     1       0.215  -2.308  25.872  0.00  0.00    +0.277 C 
ENDBRANCH  25   4
ENDBRANCH  12  14
ENDBRANCH   7  12
TORSDOF 6
ENDMDL
MODEL 2
REMARK VINA RESULT:      -0.1      1.809      4.741
REMARK  Name = 75367721
REMARK  8 active torsions:
REMARK  status: ('A' for Active; 'I' for Inactive)
REMARK    1  A    between atoms: S_1  and  C_20
REMARK    2  A    between atoms: S_1  and  C_26
REMARK    3  A    between atoms: O_3  and  C_9
REMARK    4  A    between atoms: O_3  and  C_15
REMARK    5  A    between atoms: O_4  and  C_25
REMARK    6  A    between atoms: O_4  and  C_27
REMARK    7  A    between atoms: N_7  and  C_12
REMARK    8  A    between atoms: C_12  and  C_14
REMARK                            x       y       z     vdW  Elec       q    Type
REMARK                         _______ _______ _______ _____ _____    ______ ____
ROOT
ATOM      2  O   UNL     1      -3.662  -3.065  23.963  0.00  0.00    -0.375 OA
ATOM      7  N   UNL     1      -4.676  -0.222  24.746  0.00  0.00    -0.292 NA
ATOM      8  C   UNL     1      -3.245  -0.031  25.001  0.00  0.00    +0.131 C 
ATOM      9  C   UNL     1      -2.298  -1.201  24.687  0.00  0.00    +0.213 C 
ATOM     10  C   UNL     1      -4.977  -1.014  23.552  0.00  0.00    +0.113 C 
ATOM     11  C   UNL     1      -2.861  -2.574  25.032  0.00  0.00    +0.205 C 
ATOM     13  C   UNL     1      -4.965  -2.504  23.898  0.00  0.00    +0.175 C 
ENDROOT
BRANCH   9   3
ATOM      3  O   UNL     1      -1.098  -1.015  25.439  0.00  0.00    -0.485 OA
BRANCH   3  15
ATOM     15  C   UNL     1      -0.005  -0.574  24.746  0.00  0.00    +0.121 A 
ATOM     18  C   UNL     1       0.178   0.793  24.529  0.00  0.00    +0.047 A 
ATOM     19  C   UNL     1       0.927  -1.489  24.256  0.00  0.00    +0.047 A 
ATOM     20  C   UNL     1       2.225   0.328  23.332  0.00  0.00    +0.088 A 
ATOM     23  C   UNL     1       1.294   1.243  23.823  0.00  0.00    +0.030 A 
ATOM     24  C   UNL     1       2.041  -1.039  23.549  0.00  0.00    +0.030 A 
BRANCH  20   1
ATOM      1  S   UNL     1       3.619   0.891  22.445  0.00  0.00    -0.006 S 
ATOM      5  O   UNL     1       3.579   0.334  21.099  0.00  0.00    -0.170 OA
ATOM      6  O   UNL     1       3.714   2.332  22.627  0.00  0.00    -0.170 OA
ATOM     26  C   UNL     1       5.003   0.144  23.274  0.00  0.00    +0.200 C 
ENDBRANCH  20   1
ENDBRANCH   3  15
ENDBRANCH   9   3
BRANCH   7  12
ATOM     12  C   UNL     1      -5.359   1.072  24.717  0.00  0.00    +0.119 C 
BRANCH  12  14
ATOM     14  C   UNL     1      -4.398   2.217  24.894  0.00  0.00    -0.033 A 
ATOM     16  C   UNL     1      -4.527   3.074  25.988  0.00  0.00    +0.008 A 
ATOM     17  C   UNL     1      -3.378   2.422  23.965  0.00  0.00    +0.008 A 
ATOM     21  C   UNL     1      -3.636   4.134  26.152  0.00  0.00    +0.046 A 
ATOM     22  C   UNL     1      -2.487   3.483  24.129  0.00  0.00    +0.046 A 
ATOM     25  C   UNL     1      -2.616   4.339  25.223  0.00  0.00    +0.120 A 
BRANCH  25   4
ATOM      4  O   UNL     1      -1.748   5.374  25.382  0.00  0.00    -0.495 OA
ATOM     27  C   UNL     1      -0.536   5.327  24.630  0.00  0.00    +0.277 C 
ENDBRANCH  25   4
ENDBRANCH  12  14
ENDBRANCH   7  12
TORSDOF 6
ENDMDL
MODEL 3
REMARK VINA RESULT:      -0.1      2.625      5.993
REMARK  Name = 75367721
REMARK  8 active torsions:
REMARK  status: ('A' for Active; 'I' for Inactive)
REMARK    1  A    between atoms: S_1  and  C_20
REMARK    2  A    between atoms: S_1  and  C_26
REMARK    3  A    between atoms: O_3  and  C_9
REMARK    4  A    between atoms: O_3  and  C_15
REMARK    5  A    between atoms: O_4  and  C_25
REMARK    6  A    between atoms: O_4  and  C_27
REMARK    7  A    between atoms: N_7  and  C_12
REMARK    8  A    between atoms: C_12  and  C_14
REMARK                            x       y       z     vdW  Elec       q    Type
REMARK                         _______ _______ _______ _____ _____    ______ ____
ROOT
ATOM      2  O   UNL     1       2.215   0.811  22.489  0.00  0.00    -0.375 OA
ATOM      7  N   UNL     1       0.636  -0.605  24.775  0.00  0.00    -0.292 NA
ATOM      8  C   UNL     1      -0.134   0.640  24.705  0.00  0.00    +0.131 C 
ATOM      9  C   UNL     1       0.261   1.668  23.633  0.00  0.00    +0.213 C 
ATOM     10  C   UNL     1       1.052  -1.133  23.474  0.00  0.00    +0.113 C 
ATOM     11  C   UNL     1       1.762   1.798  23.410  0.00  0.00    +0.205 C 
ATOM     13  C   UNL     1       2.369  -0.487  23.046  0.00  0.00    +0.175 C 
ENDROOT
BRANCH   9   3
ATOM      3  O   UNL     1      -0.236   2.945  24.037  0.00  0.00    -0.485 OA
BRANCH   3  15
ATOM     15  C   UNL     1      -1.540   2.991  24.449  0.00  0.00    +0.121 A 
ATOM     18  C   UNL     1      -2.546   2.463  23.639  0.00  0.00    +0.047 A 
ATOM     19  C   UNL     1      -1.863   3.566  25.678  0.00  0.00    +0.047 A 
ATOM     20  C   UNL     1      -4.199   3.084  25.289  0.00  0.00    +0.088 A 
ATOM     23  C   UNL     1      -3.875   2.509  24.060  0.00  0.00    +0.030 A 
ATOM     24  C   UNL     1      -3.192   3.613  26.098  0.00  0.00    +0.030 A 
BRANCH  20   1
ATOM      1  S   UNL     1      -5.862   3.146  25.814  0.00  0.00    -0.006 S 
ATOM      5  O   UNL     1      -5.961   2.549  27.139  0.00  0.00    -0.170 OA
ATOM      6  O   UNL     1      -6.351   4.501  25.595  0.00  0.00    -0.170 OA
ATOM     26  C   UNL     1      -6.721   2.067  24.693  0.00  0.00    +0.200 C 
ENDBRANCH  20   1
ENDBRANCH   3  15
ENDBRANCH   9   3
BRANCH   7  12
ATOM     12  C   UNL     1      -0.096  -1.608  25.551  0.00  0.00    +0.119 C 
BRANCH  12  14
ATOM     14  C   UNL     1      -1.502  -1.792  25.043  0.00  0.00    -0.033 A 
ATOM     16  C   UNL     1      -1.832  -2.926  24.300  0.00  0.00    +0.008 A 
ATOM     17  C   UNL     1      -2.474  -0.829  25.315  0.00  0.00    +0.008 A 
ATOM     21  C   UNL     1      -3.134  -3.096  23.831  0.00  0.00    +0.046 A 
ATOM     22  C   UNL     1      -3.776  -1.000  24.845  0.00  0.00    +0.046 A 
ATOM     25  C   UNL     1      -4.106  -2.134  24.102  0.00  0.00    +0.120 A 
BRANCH  25   4
ATOM      4  O   UNL     1      -5.375  -2.300  23.642  0.00  0.00    -0.495 OA
ATOM     27  C   UNL     1      -5.670  -3.527  22.975  0.00  0.00    +0.277 C 
ENDBRANCH  25   4
ENDBRANCH  12  14
ENDBRANCH   7  12
TORSDOF 6
ENDMDL
MODEL 4
REMARK VINA RESULT:      -0.1      2.093      5.635
REMARK  Name = 75367721
REMARK  8 active torsions:
REMARK  status: ('A' for Active; 'I' for Inactive)
REMARK    1  A    between atoms: S_1  and  C_20
REMARK    2  A    between atoms: S_1  and  C_26
REMARK    3  A    between atoms: O_3  and  C_9
REMARK    4  A    between atoms: O_3  and  C_15
REMARK    5  A    between atoms: O_4  and  C_25
REMARK    6  A    between atoms: O_4  and  C_27
REMARK    7  A    between atoms: N_7  and  C_12
REMARK    8  A    between atoms: C_12  and  C_14
REMARK                            x       y       z     vdW  Elec       q    Type
REMARK                         _______ _______ _______ _____ _____    ______ ____
ROOT
ATOM      2  O   UNL     1      -1.407  -3.453  25.318  0.00  0.00    -0.375 OA
ATOM      7  N   UNL     1      -3.528  -1.314  24.512  0.00  0.00    -0.292 NA
ATOM      8  C   UNL     1      -2.316  -0.602  24.093  0.00  0.00    +0.131 C 
ATOM      9  C   UNL     1      -0.969  -1.325  24.250  0.00  0.00    +0.213 C 
ATOM     10  C   UNL     1      -3.512  -2.751  24.232  0.00  0.00    +0.113 C 
ATOM     11  C   UNL     1      -0.848  -2.159  25.519  0.00  0.00    +0.205 C 
ATOM     13  C   UNL     1      -2.826  -3.497  25.376  0.00  0.00    +0.175 C 
ENDROOT
BRANCH   9   3
ATOM      3  O   UNL     1       0.065  -0.340  24.271  0.00  0.00    -0.485 OA
BRANCH   3  15
ATOM     15  C   UNL     1      -0.329   0.955  24.465  0.00  0.00    +0.121 A 
ATOM     18  C   UNL     1      -0.540   1.435  25.758  0.00  0.00    +0.047 A 
ATOM     19  C   UNL     1      -0.520   1.797  23.369  0.00  0.00    +0.047 A 
ATOM     20  C   UNL     1      -1.133   3.598  24.859  0.00  0.00    +0.088 A 
ATOM     23  C   UNL     1      -0.941   2.756  25.955  0.00  0.00    +0.030 A 
ATOM     24  C   UNL     1      -0.922   3.118  23.566  0.00  0.00    +0.030 A 
BRANCH  20   1
ATOM      1  S   UNL     1      -1.639   5.250  25.105  0.00  0.00    -0.006 S 
ATOM      5  O   UNL     1      -2.428   5.326  26.327  0.00  0.00    -0.170 OA
ATOM      6  O   UNL     1      -0.470   6.105  24.946  0.00  0.00    -0.170 OA
ATOM     26  C   UNL     1      -2.744   5.581  23.752  0.00  0.00    +0.200 C 
ENDBRANCH  20   1
ENDBRANCH   3  15
ENDBRANCH   9   3
BRANCH   7  12
ATOM     12  C   UNL     1      -4.712  -0.670  23.942  0.00  0.00    +0.119 C 
BRANCH  12  14
ATOM     14  C   UNL     1      -4.942   0.698  24.527  0.00  0.00    -0.033 A 
ATOM     16  C   UNL     1      -4.363   1.819  23.930  0.00  0.00    +0.008 A 
ATOM     17  C   UNL     1      -5.734   0.847  25.665  0.00  0.00    +0.008 A 
ATOM     21  C   UNL     1      -4.577   3.086  24.471  0.00  0.00    +0.046 A 
ATOM     22  C   UNL     1      -5.948   2.114  26.207  0.00  0.00    +0.046 A 
ATOM     25  C   UNL     1      -5.369   3.234  25.609  0.00  0.00    +0.120 A 
BRANCH  25   4
ATOM      4  O   UNL     1      -5.576   4.470  26.138  0.00  0.00    -0.495 OA
ATOM     27  C   UNL     1      -6.237   5.428  25.312  0.00  0.00    +0.277 C 
ENDBRANCH  25   4
ENDBRANCH  12  14
ENDBRANCH   7  12
TORSDOF 6
ENDMDL
MODEL 5
REMARK VINA RESULT:       0.0      2.360      4.675
REMARK  Name = 75367721
REMARK  8 active torsions:
REMARK  status: ('A' for Active; 'I' for Inactive)
REMARK    1  A    between atoms: S_1  and  C_20
REMARK    2  A    between atoms: S_1  and  C_26
REMARK    3  A    between atoms: O_3  and  C_9
REMARK    4  A    between atoms: O_3  and  C_15
REMARK    5  A    between atoms: O_4  and  C_25
REMARK    6  A    between atoms: O_4  and  C_27
REMARK    7  A    between atoms: N_7  and  C_12
REMARK    8  A    between atoms: C_12  and  C_14
REMARK                            x       y       z     vdW  Elec       q    Type
REMARK                         _______ _______ _______ _____ _____    ______ ____
ROOT
ATOM      2  O   UNL     1      -3.072   6.168  24.319  0.00  0.00    -0.375 OA
ATOM      7  N   UNL     1      -1.421   3.946  25.754  0.00  0.00    -0.292 NA
ATOM      8  C   UNL     1      -2.407   3.097  25.079  0.00  0.00    +0.131 C 
ATOM      9  C   UNL     1      -3.439   3.780  24.167  0.00  0.00    +0.213 C 
ATOM     10  C   UNL     1      -0.948   5.077  24.953  0.00  0.00    +0.113 C 
ATOM     11  C   UNL     1      -3.954   5.114  24.692  0.00  0.00    +0.205 C 
ATOM     13  C   UNL     1      -1.899   6.263  25.114  0.00  0.00    +0.175 C 
ENDROOT
BRANCH   9   3
ATOM      3  O   UNL     1      -4.557   2.903  24.024  0.00  0.00    -0.485 OA
BRANCH   3  15
ATOM     15  C   UNL     1      -4.303   1.565  24.151  0.00  0.00    +0.121 A 
ATOM     18  C   UNL     1      -4.741   0.877  25.283  0.00  0.00    +0.047 A 
ATOM     19  C   UNL     1      -3.608   0.888  23.148  0.00  0.00    +0.047 A 
ATOM     20  C   UNL     1      -3.787  -1.165  24.410  0.00  0.00    +0.088 A 
ATOM     23  C   UNL     1      -4.483  -0.488  25.412  0.00  0.00    +0.030 A 
ATOM     24  C   UNL     1      -3.350  -0.476  23.278  0.00  0.00    +0.030 A 
BRANCH  20   1
ATOM      1  S   UNL     1      -3.461  -2.872  24.572  0.00  0.00    -0.006 S 
ATOM      5  O   UNL     1      -3.430  -3.214  25.988  0.00  0.00    -0.170 OA
ATOM      6  O   UNL     1      -4.360  -3.587  23.677  0.00  0.00    -0.170 OA
ATOM     26  C   UNL     1      -1.806  -3.067  23.955  0.00  0.00    +0.200 C 
ENDBRANCH  20   1
ENDBRANCH   3  15
ENDBRANCH   9   3
BRANCH   7  12
ATOM     12  C   UNL     1      -0.306   3.133  26.242  0.00  0.00    +0.119 C 
BRANCH  12  14
ATOM     14  C   UNL     1       0.030   2.014  25.292  0.00  0.00    -0.033 A 
ATOM     16  C   UNL     1      -0.530   0.749  25.478  0.00  0.00    +0.008 A 
ATOM     17  C   UNL     1       0.899   2.241  24.226  0.00  0.00    +0.008 A 
ATOM     21  C   UNL     1      -0.219  -0.286  24.598  0.00  0.00    +0.046 A 
ATOM     22  C   UNL     1       1.210   1.206  23.345  0.00  0.00    +0.046 A 
ATOM     25  C   UNL     1       0.650  -0.059  23.531  0.00  0.00    +0.120 A 
BRANCH  25   4
ATOM      4  O   UNL     1       0.955  -1.070  22.673  0.00  0.00    -0.495 OA
ATOM     27  C   UNL     1       1.300  -0.706  21.337  0.00  0.00    +0.277 C 
ENDBRANCH  25   4
ENDBRANCH  12  14
ENDBRANCH   7  12
TORSDOF 6
ENDMDL
MODEL 6
REMARK VINA RESULT:       0.5      2.791      6.443
REMARK  Name = 75367721
REMARK  8 active torsions:
REMARK  status: ('A' for Active; 'I' for Inactive)
REMARK    1  A    between atoms: S_1  and  C_20
REMARK    2  A    between atoms: S_1  and  C_26
REMARK    3  A    between atoms: O_3  and  C_9
REMARK    4  A    between atoms: O_3  and  C_15
REMARK    5  A    between atoms: O_4  and  C_25
REMARK    6  A    between atoms: O_4  and  C_27
REMARK    7  A    between atoms: N_7  and  C_12
REMARK    8  A    between atoms: C_12  and  C_14
REMARK                            x       y       z     vdW  Elec       q    Type
REMARK                         _______ _______ _______ _____ _____    ______ ____
ROOT
ATOM      2  O   UNL     1      -2.900  -3.820  23.539  0.00  0.00    -0.375 OA
ATOM      7  N   UNL     1      -1.457  -1.395  24.867  0.00  0.00    -0.292 NA
ATOM      8  C   UNL     1      -2.846  -0.979  25.082  0.00  0.00    +0.131 C 
ATOM      9  C   UNL     1      -3.961  -1.932  24.623  0.00  0.00    +0.213 C 
ATOM     10  C   UNL     1      -1.220  -2.827  25.054  0.00  0.00    +0.113 C 
ATOM     11  C   UNL     1      -3.674  -2.647  23.308  0.00  0.00    +0.205 C 
ATOM     13  C   UNL     1      -1.517  -3.579  23.757  0.00  0.00    +0.175 C 
ENDROOT
BRANCH   9   3
ATOM      3  O   UNL     1      -5.158  -1.171  24.458  0.00  0.00    -0.485 OA
BRANCH   3  15
ATOM     15  C   UNL     1      -5.054   0.180  24.643  0.00  0.00    +0.121 A 
ATOM     18  C   UNL     1      -4.136   0.917  23.894  0.00  0.00    +0.047 A 
ATOM     19  C   UNL     1      -5.865   0.820  25.579  0.00  0.00    +0.047 A 
ATOM     20  C   UNL     1      -4.840   2.936  25.020  0.00  0.00    +0.088 A 
ATOM     23  C   UNL     1      -4.030   2.296  24.082  0.00  0.00    +0.030 A 
ATOM     24  C   UNL     1      -5.758   2.198  25.768  0.00  0.00    +0.030 A 
BRANCH  20   1
ATOM      1  S   UNL     1      -4.706   4.660  25.259  0.00  0.00    -0.006 S 
ATOM      5  O   UNL     1      -4.081   5.252  24.084  0.00  0.00    -0.170 OA
ATOM      6  O   UNL     1      -6.000   5.151  25.713  0.00  0.00    -0.170 OA
ATOM     26  C   UNL     1      -3.554   4.832  26.601  0.00  0.00    +0.200 C 
ENDBRANCH  20   1
ENDBRANCH   3  15
ENDBRANCH   9   3
BRANCH   7  12
ATOM     12  C   UNL     1      -0.556  -0.590  25.693  0.00  0.00    +0.119 C 
BRANCH  12  14
ATOM     14  C   UNL     1      -0.511   0.845  25.239  0.00  0.00    -0.033 A 
ATOM     16  C   UNL     1      -0.359   1.144  23.885  0.00  0.00    +0.008 A 
ATOM     17  C   UNL     1      -0.623   1.876  26.172  0.00  0.00    +0.008 A 
ATOM     21  C   UNL     1      -0.318   2.472  23.464  0.00  0.00    +0.046 A 
ATOM     22  C   UNL     1      -0.582   3.205  25.751  0.00  0.00    +0.046 A 
ATOM     25  C   UNL     1      -0.429   3.503  24.397  0.00  0.00    +0.120 A 
BRANCH  25   4
ATOM      4  O   UNL     1      -0.388   4.800  23.987  0.00  0.00    -0.495 OA
ATOM     27  C   UNL     1      -0.882   5.784  24.894  0.00  0.00    +0.277 C 
ENDBRANCH  25   4
ENDBRANCH  12  14
ENDBRANCH   7  12
TORSDOF 6
ENDMDL
MODEL 7
REMARK VINA RESULT:       1.0      2.425      5.510
REMARK  Name = 75367721
REMARK  8 active torsions:
REMARK  status: ('A' for Active; 'I' for Inactive)
REMARK    1  A    between atoms: S_1  and  C_20
REMARK    2  A    between atoms: S_1  and  C_26
REMARK    3  A    between atoms: O_3  and  C_9
REMARK    4  A    between atoms: O_3  and  C_15
REMARK    5  A    between atoms: O_4  and  C_25
REMARK    6  A    between atoms: O_4  and  C_27
REMARK    7  A    between atoms: N_7  and  C_12
REMARK    8  A    between atoms: C_12  and  C_14
REMARK                            x       y       z     vdW  Elec       q    Type
REMARK                         _______ _______ _______ _____ _____    ______ ____
ROOT
ATOM      2  O   UNL     1      -4.909  -2.905  23.742  0.00  0.00    -0.375 OA
ATOM      7  N   UNL     1      -2.425  -1.454  24.946  0.00  0.00    -0.292 NA
ATOM      8  C   UNL     1      -3.417  -0.388  25.120  0.00  0.00    +0.131 C 
ATOM      9  C   UNL     1      -4.867  -0.683  24.703  0.00  0.00    +0.213 C 
ATOM     10  C   UNL     1      -2.930  -2.801  25.219  0.00  0.00    +0.113 C 
ATOM     11  C   UNL     1      -4.998  -1.517  23.435  0.00  0.00    +0.205 C 
ATOM     13  C   UNL     1      -3.587  -3.375  23.963  0.00  0.00    +0.175 C 
ENDROOT
BRANCH   9   3
ATOM      3  O   UNL     1      -5.527   0.564  24.479  0.00  0.00    -0.485 OA
BRANCH   3  15
ATOM     15  C   UNL     1      -4.756   1.689  24.571  0.00  0.00    +0.121 A 
ATOM     18  C   UNL     1      -3.696   1.883  23.684  0.00  0.00    +0.047 A 
ATOM     19  C   UNL     1      -5.028   2.643  25.552  0.00  0.00    +0.047 A 
ATOM     20  C   UNL     1      -3.182   3.986  24.759  0.00  0.00    +0.088 A 
ATOM     23  C   UNL     1      -2.910   3.032  23.778  0.00  0.00    +0.030 A 
ATOM     24  C   UNL     1      -4.242   3.791  25.646  0.00  0.00    +0.030 A 
BRANCH  20   1
ATOM      1  S   UNL     1      -2.196   5.421  24.880  0.00  0.00    -0.006 S 
ATOM      5  O   UNL     1      -2.420   6.248  23.702  0.00  0.00    -0.170 OA
ATOM      6  O   UNL     1      -2.391   5.988  26.207  0.00  0.00    -0.170 OA
ATOM     26  C   UNL     1      -0.526   4.821  24.782  0.00  0.00    +0.200 C 
ENDBRANCH  20   1
ENDBRANCH   3  15
ENDBRANCH   9   3
BRANCH   7  12
ATOM     12  C   UNL     1      -1.228  -1.161  25.737  0.00  0.00    +0.119 C 
BRANCH  12  14
ATOM     14  C   UNL     1      -0.179  -0.451  24.923  0.00  0.00    -0.033 A 
ATOM     16  C   UNL     1      -0.047   0.936  25.012  0.00  0.00    +0.008 A 
ATOM     17  C   UNL     1       0.661  -1.177  24.080  0.00  0.00    +0.008 A 
ATOM     21  C   UNL     1       0.924   1.593  24.259  0.00  0.00    +0.046 A 
ATOM     22  C   UNL     1       1.633  -0.520  23.326  0.00  0.00    +0.046 A 
ATOM     25  C   UNL     1       1.765   0.867  23.416  0.00  0.00    +0.120 A 
BRANCH  25   4
ATOM      4  O   UNL     1       2.712   1.509  22.680  0.00  0.00    -0.495 OA
ATOM     27  C   UNL     1       4.019   0.936  22.662  0.00  0.00    +0.277 C 
ENDBRANCH  25   4
ENDBRANCH  12  14
ENDBRANCH   7  12
TORSDOF 6
ENDMDL
MODEL 8
REMARK VINA RESULT:       1.3      2.609      6.931
REMARK  Name = 75367721
REMARK  8 active torsions:
REMARK  status: ('A' for Active; 'I' for Inactive)
REMARK    1  A    between atoms: S_1  and  C_20
REMARK    2  A    between atoms: S_1  and  C_26
REMARK    3  A    between atoms: O_3  and  C_9
REMARK    4  A    between atoms: O_3  and  C_15
REMARK    5  A    between atoms: O_4  and  C_25
REMARK    6  A    between atoms: O_4  and  C_27
REMARK    7  A    between atoms: N_7  and  C_12
REMARK    8  A    between atoms: C_12  and  C_14
REMARK                            x       y       z     vdW  Elec       q    Type
REMARK                         _______ _______ _______ _____ _____    ______ ____
ROOT
ATOM      2  O   UNL     1       1.116  -1.410  21.782  0.00  0.00    -0.375 OA
ATOM      7  N   UNL     1       0.927   1.156  23.543  0.00  0.00    -0.292 NA
ATOM      8  C   UNL     1       0.079   0.268  24.344  0.00  0.00    +0.131 C 
ATOM      9  C   UNL     1      -0.082  -1.187  23.874  0.00  0.00    +0.213 C 
ATOM     10  C   UNL     1       2.112   0.511  22.976  0.00  0.00    +0.113 C 
ATOM     11  C   UNL     1      -0.182  -1.350  22.363  0.00  0.00    +0.205 C 
ATOM     13  C   UNL     1       1.758  -0.150  21.643  0.00  0.00    +0.175 C 
ENDROOT
BRANCH   9   3
ATOM      3  O   UNL     1      -1.277  -1.712  24.453  0.00  0.00    -0.485 OA
BRANCH   3  15
ATOM     15  C   UNL     1      -2.321  -0.841  24.598  0.00  0.00    +0.121 A 
ATOM     18  C   UNL     1      -3.239  -1.018  25.633  0.00  0.00    +0.047 A 
ATOM     19  C   UNL     1      -2.467   0.225  23.710  0.00  0.00    +0.047 A 
ATOM     20  C   UNL     1      -4.450   0.938  24.893  0.00  0.00    +0.088 A 
ATOM     23  C   UNL     1      -4.304  -0.128  25.781  0.00  0.00    +0.030 A 
ATOM     24  C   UNL     1      -3.532   1.114  23.857  0.00  0.00    +0.030 A 
BRANCH  20   1
ATOM      1  S   UNL     1      -5.784   2.049  25.075  0.00  0.00    -0.006 S 
ATOM      5  O   UNL     1      -5.302   3.406  24.854  0.00  0.00    -0.170 OA
ATOM      6  O   UNL     1      -6.900   1.543  24.287  0.00  0.00    -0.170 OA
ATOM     26  C   UNL     1      -6.229   1.930  26.791  0.00  0.00    +0.200 C 
ENDBRANCH  20   1
ENDBRANCH   3  15
ENDBRANCH   9   3
BRANCH   7  12
ATOM     12  C   UNL     1       1.284   2.345  24.319  0.00  0.00    +0.119 C 
BRANCH  12  14
ATOM     14  C   UNL     1       0.069   3.039  24.873  0.00  0.00    -0.033 A 
ATOM     16  C   UNL     1      -0.631   2.476  25.941  0.00  0.00    +0.008 A 
ATOM     17  C   UNL     1      -0.359   4.245  24.319  0.00  0.00    +0.008 A 
ATOM     21  C   UNL     1      -1.756   3.120  26.454  0.00  0.00    +0.046 A 
ATOM     22  C   UNL     1      -1.485   4.890  24.832  0.00  0.00    +0.046 A 
ATOM     25  C   UNL     1      -2.184   4.326  25.900  0.00  0.00    +0.120 A 
BRANCH  25   4
ATOM      4  O   UNL     1      -3.283   4.953  26.399  0.00  0.00    -0.495 OA
ATOM     27  C   UNL     1      -3.891   4.377  27.555  0.00  0.00    +0.277 C 
ENDBRANCH  25   4
ENDBRANCH  12  14
ENDBRANCH   7  12
TORSDOF 6
ENDMDL
MODEL 9
REMARK VINA RESULT:       1.3      1.710      3.996
REMARK  Name = 75367721
REMARK  8 active torsions:
REMARK  status: ('A' for Active; 'I' for Inactive)
REMARK    1  A    between atoms: S_1  and  C_20
REMARK    2  A    between atoms: S_1  and  C_26
REMARK    3  A    between atoms: O_3  and  C_9
REMARK    4  A    between atoms: O_3  and  C_15
REMARK    5  A    between atoms: O_4  and  C_25
REMARK    6  A    between atoms: O_4  and  C_27
REMARK    7  A    between atoms: N_7  and  C_12
REMARK    8  A    between atoms: C_12  and  C_14
REMARK                            x       y       z     vdW  Elec       q    Type
REMARK                         _______ _______ _______ _____ _____    ______ ____
ROOT
ATOM      2  O   UNL     1      -6.593   4.452  25.380  0.00  0.00    -0.375 OA
ATOM      7  N   UNL     1      -3.562   3.940  25.909  0.00  0.00    -0.292 NA
ATOM      8  C   UNL     1      -3.956   2.584  25.513  0.00  0.00    +0.131 C 
ATOM      9  C   UNL     1      -5.415   2.357  25.087  0.00  0.00    +0.213 C 
ATOM     10  C   UNL     1      -4.197   5.006  25.131  0.00  0.00    +0.113 C 
ATOM     11  C   UNL     1      -6.437   3.137  25.904  0.00  0.00    +0.205 C 
ATOM     13  C   UNL     1      -5.556   5.355  25.739  0.00  0.00    +0.175 C 
ENDROOT
BRANCH   9   3
ATOM      3  O   UNL     1      -5.709   0.966  25.229  0.00  0.00    -0.485 OA
BRANCH   3  15
ATOM     15  C   UNL     1      -4.657   0.103  25.090  0.00  0.00    +0.121 A 
ATOM     18  C   UNL     1      -3.916  -0.278  26.209  0.00  0.00    +0.047 A 
ATOM     19  C   UNL     1      -4.326  -0.396  23.830  0.00  0.00    +0.047 A 
ATOM     20  C   UNL     1      -2.512  -1.659  24.808  0.00  0.00    +0.088 A 
ATOM     23  C   UNL     1      -2.844  -1.160  26.068  0.00  0.00    +0.030 A 
ATOM     24  C   UNL     1      -3.254  -1.277  23.689  0.00  0.00    +0.030 A 
BRANCH  20   1
ATOM      1  S   UNL     1      -1.169  -2.759  24.629  0.00  0.00    -0.006 S 
ATOM      5  O   UNL     1      -1.433  -3.958  25.412  0.00  0.00    -0.170 OA
ATOM      6  O   UNL     1      -0.871  -2.876  23.208  0.00  0.00    -0.170 OA
ATOM     26  C   UNL     1       0.194  -1.922  25.405  0.00  0.00    +0.200 C 
ENDBRANCH  20   1
ENDBRANCH   3  15
ENDBRANCH   9   3
BRANCH   7  12
ATOM     12  C   UNL     1      -2.104   4.064  25.897  0.00  0.00    +0.119 C 
BRANCH  12  14
ATOM     14  C   UNL     1      -1.458   2.999  25.052  0.00  0.00    -0.033 A 
ATOM     16  C   UNL     1      -1.992   2.680  23.802  0.00  0.00    +0.008 A 
ATOM     17  C   UNL     1      -0.325   2.330  25.516  0.00  0.00    +0.008 A 
ATOM     21  C   UNL     1      -1.394   1.695  23.020  0.00  0.00    +0.046 A 
ATOM     22  C   UNL     1       0.274   1.344  24.733  0.00  0.00    +0.046 A 
ATOM     25  C   UNL     1      -0.261   1.026  23.484  0.00  0.00    +0.120 A 
BRANCH  25   4
ATOM      4  O   UNL     1       0.322   0.063  22.720  0.00  0.00    -0.495 OA
ATOM     27  C   UNL     1       1.748   0.046  22.672  0.00  0.00    +0.277 C 
ENDBRANCH  25   4
ENDBRANCH  12  14
ENDBRANCH   7  12
TORSDOF 6
ENDMDL
