MODEL 1
REMARK VINA RESULT:       6.4      0.000      0.000
REMARK  Name = 7134443
REMARK  13 active torsions:
REMARK  status: ('A' for Active; 'I' for Inactive)
REMARK    1  A    between atoms: O_4  and  C_15
REMARK    2  A    between atoms: O_5  and  C_16
REMARK    3  A    between atoms: O_9  and  C_32
REMARK    4  A    between atoms: O_9  and  C_38
REMARK    5  A    between atoms: O_10  and  C_37
REMARK    6  A    between atoms: O_10  and  C_39
REMARK    7  A    between atoms: N_11  and  C_17
REMARK    8  A    between atoms: N_12  and  C_22
REMARK    9  A    between atoms: N_13  and  C_29
REMARK   10  A    between atoms: C_19  and  C_21
REMARK   11  A    between atoms: C_22  and  C_24
REMARK   12  A    between atoms: C_22  and  C_26
REMARK   13  A    between atoms: C_24  and  C_25
REMARK                            x       y       z     vdW  Elec       q    Type
REMARK                         _______ _______ _______ _____ _____    ______ ____
ROOT
ATOM     15  C   UNL     1      -2.670  -2.381  24.402  0.00  0.00    +0.167 C 
ATOM     16  C   UNL     1      -4.172  -2.165  24.177  0.00  0.00    +0.149 C 
ATOM     17  C   UNL     1      -1.835  -1.258  23.759  0.00  0.00    +0.129 C 
ATOM     18  C   UNL     1      -4.643  -0.793  24.687  0.00  0.00    +0.074 C 
ATOM     19  C   UNL     1      -3.656   0.310  24.429  0.00  0.00    +0.015 C 
ATOM     20  C   UNL     1      -2.398   0.117  24.004  0.00  0.00    +0.006 C 
ENDROOT
BRANCH  17  11
ATOM      7  O   UNL     1       0.473  -0.433  22.277  0.00  0.00    -0.252 OA
ATOM     11  N   UNL     1      -0.466  -1.287  24.209  0.00  0.00    -0.290 N 
ATOM     13  N   UNL     1       1.812  -1.009  24.117  0.00  0.00    -0.269 N 
ATOM     23  C   UNL     1       0.610  -0.864  23.419  0.00  0.00    +0.304 C 
ATOM     40  H   UNL     1      -0.281  -1.553  25.173  0.00  0.00    +0.151 HD
ATOM     44  H   UNL     1       1.750  -1.385  25.060  0.00  0.00    +0.156 HD
BRANCH  13  29
ATOM     29  C   UNL     1       3.118  -0.695  23.671  0.00  0.00    +0.035 A 
ATOM     33  C   UNL     1       3.323   0.396  22.828  0.00  0.00    +0.027 A 
ATOM     34  C   UNL     1       4.199  -1.477  24.075  0.00  0.00    +0.027 A 
ATOM     35  C   UNL     1       4.610   0.706  22.388  0.00  0.00    +0.048 A 
ATOM     36  C   UNL     1       5.486  -1.169  23.636  0.00  0.00    +0.048 A 
ATOM     37  C   UNL     1       5.692  -0.077  22.793  0.00  0.00    +0.130 A 
BRANCH  37  10
ATOM     10  O   UNL     1       6.948   0.227  22.366  0.00  0.00    -0.406 OA
BRANCH  10  39
ATOM      1  F   UNL     1       9.171   0.227  22.759  0.00  0.00    -0.133 F 
ATOM      2  F   UNL     1       7.865  -0.717  24.236  0.00  0.00    -0.133 F 
ATOM      3  F   UNL     1       8.213  -1.677  22.276  0.00  0.00    -0.133 F 
ATOM     39  C   UNL     1       8.041  -0.500  22.916  0.00  0.00    +0.575 C 
ENDBRANCH  10  39
ENDBRANCH  37  10
ENDBRANCH  13  29
ENDBRANCH  17  11
BRANCH  19  21
ATOM      6  O   UNL     1      -4.335   2.428  23.674  0.00  0.00    -0.271 OA
ATOM     12  N   UNL     1      -4.200   2.036  25.969  0.00  0.00    -0.300 N 
ATOM     21  C   UNL     1      -4.098   1.693  24.632  0.00  0.00    +0.241 C 
ATOM     43  H   UNL     1      -3.893   1.373  26.674  0.00  0.00    +0.150 HD
BRANCH  12  22
ATOM     22  C   UNL     1      -4.614   3.346  26.418  0.00  0.00    +0.163 C 
BRANCH  22  26
ATOM      8  O   UNL     1      -6.166   4.856  25.314  0.00  0.00    -0.274 OA
ATOM     14  N   UNL     1      -6.621   2.604  25.293  0.00  0.00    -0.328 N 
ATOM     26  C   UNL     1      -5.871   3.709  25.640  0.00  0.00    +0.231 C 
ATOM     45  H   UNL     1      -7.477   2.705  24.758  0.00  0.00    +0.145 HD
ATOM     46  H   UNL     1      -6.363   1.661  25.565  0.00  0.00    +0.145 HD
ENDBRANCH  22  26
BRANCH  22  24
ATOM     24  C   UNL     1      -3.528   4.404  26.201  0.00  0.00    +0.067 C 
BRANCH  24  25
ATOM     25  C   UNL     1      -2.219   3.811  25.737  0.00  0.00    -0.045 A 
ATOM     27  C   UNL     1      -1.521   2.933  26.565  0.00  0.00    +0.007 A 
ATOM     28  C   UNL     1      -1.710   4.141  24.481  0.00  0.00    +0.007 A 
ATOM     30  C   UNL     1      -0.311   2.384  26.137  0.00  0.00    +0.046 A 
ATOM     31  C   UNL     1      -0.501   3.593  24.054  0.00  0.00    +0.046 A 
ATOM     32  C   UNL     1       0.198   2.714  24.882  0.00  0.00    +0.120 A 
BRANCH  32   9
ATOM      9  O   UNL     1       1.378   2.179  24.464  0.00  0.00    -0.495 OA
ATOM     38  C   UNL     1       1.826   2.536  23.157  0.00  0.00    +0.277 C 
ENDBRANCH  32   9
ENDBRANCH  24  25
ENDBRANCH  22  24
ENDBRANCH  12  22
ENDBRANCH  19  21
BRANCH  15   4
ATOM      4  O   UNL     1      -2.418  -2.420  25.809  0.00  0.00    -0.387 OA
ATOM     41  H   UNL     1      -3.167  -1.985  26.251  0.00  0.00    +0.210 HD
ENDBRANCH  15   4
BRANCH  16   5
ATOM      5  O   UNL     1      -4.486  -2.307  22.792  0.00  0.00    -0.389 OA
ATOM     42  H   UNL     1      -4.618  -3.255  22.616  0.00  0.00    +0.210 HD
ENDBRANCH  16   5
TORSDOF 12
ENDMDL
MODEL 2
REMARK VINA RESULT:       6.5      1.697      2.210
REMARK  Name = 7134443
REMARK  13 active torsions:
REMARK  status: ('A' for Active; 'I' for Inactive)
REMARK    1  A    between atoms: O_4  and  C_15
REMARK    2  A    between atoms: O_5  and  C_16
REMARK    3  A    between atoms: O_9  and  C_32
REMARK    4  A    between atoms: O_9  and  C_38
REMARK    5  A    between atoms: O_10  and  C_37
REMARK    6  A    between atoms: O_10  and  C_39
REMARK    7  A    between atoms: N_11  and  C_17
REMARK    8  A    between atoms: N_12  and  C_22
REMARK    9  A    between atoms: N_13  and  C_29
REMARK   10  A    between atoms: C_19  and  C_21
REMARK   11  A    between atoms: C_22  and  C_24
REMARK   12  A    between atoms: C_22  and  C_26
REMARK   13  A    between atoms: C_24  and  C_25
REMARK                            x       y       z     vdW  Elec       q    Type
REMARK                         _______ _______ _______ _____ _____    ______ ____
ROOT
ATOM     15  C   UNL     1      -1.857  -2.516  25.063  0.00  0.00    +0.167 C 
ATOM     16  C   UNL     1      -3.159  -2.392  25.866  0.00  0.00    +0.149 C 
ATOM     17  C   UNL     1      -1.999  -1.900  23.658  0.00  0.00    +0.129 C 
ATOM     18  C   UNL     1      -3.640  -0.934  25.969  0.00  0.00    +0.074 C 
ATOM     19  C   UNL     1      -3.432  -0.147  24.706  0.00  0.00    +0.015 C 
ATOM     20  C   UNL     1      -2.706  -0.571  23.660  0.00  0.00    +0.006 C 
ENDROOT
BRANCH  17  11
ATOM      7  O   UNL     1       0.344  -0.685  24.772  0.00  0.00    -0.252 OA
ATOM     11  N   UNL     1      -0.719  -1.745  23.014  0.00  0.00    -0.290 N 
ATOM     13  N   UNL     1       1.481  -1.128  22.767  0.00  0.00    -0.269 N 
ATOM     23  C   UNL     1       0.381  -1.136  23.630  0.00  0.00    +0.304 C 
ATOM     40  H   UNL     1      -0.585  -2.168  22.099  0.00  0.00    +0.151 HD
ATOM     44  H   UNL     1       1.343  -1.544  21.849  0.00  0.00    +0.156 HD
BRANCH  13  29
ATOM     29  C   UNL     1       2.773  -0.608  23.012  0.00  0.00    +0.035 A 
ATOM     33  C   UNL     1       3.117   0.657  22.535  0.00  0.00    +0.027 A 
ATOM     34  C   UNL     1       3.702  -1.359  23.731  0.00  0.00    +0.027 A 
ATOM     35  C   UNL     1       4.391   1.170  22.777  0.00  0.00    +0.048 A 
ATOM     36  C   UNL     1       4.976  -0.846  23.974  0.00  0.00    +0.048 A 
ATOM     37  C   UNL     1       5.320   0.419  23.497  0.00  0.00    +0.130 A 
BRANCH  37  10
ATOM     10  O   UNL     1       6.563   0.922  23.735  0.00  0.00    -0.406 OA
BRANCH  10  39
ATOM      1  F   UNL     1       7.828  -0.746  24.579  0.00  0.00    -0.133 F 
ATOM      2  F   UNL     1       7.510  -0.691  22.418  0.00  0.00    -0.133 F 
ATOM      3  F   UNL     1       8.821   0.797  23.393  0.00  0.00    -0.133 F 
ATOM     39  C   UNL     1       7.686   0.076  23.515  0.00  0.00    +0.575 C 
ENDBRANCH  10  39
ENDBRANCH  37  10
ENDBRANCH  13  29
ENDBRANCH  17  11
BRANCH  19  21
ATOM      6  O   UNL     1      -4.956   1.505  25.386  0.00  0.00    -0.271 OA
ATOM     12  N   UNL     1      -3.596   1.915  23.537  0.00  0.00    -0.300 N 
ATOM     21  C   UNL     1      -4.079   1.163  24.594  0.00  0.00    +0.241 C 
ATOM     43  H   UNL     1      -2.931   1.495  22.895  0.00  0.00    +0.150 HD
BRANCH  12  22
ATOM     22  C   UNL     1      -4.081   3.240  23.225  0.00  0.00    +0.163 C 
BRANCH  22  26
ATOM      8  O   UNL     1      -4.509   4.274  21.067  0.00  0.00    -0.274 OA
ATOM     14  N   UNL     1      -2.900   2.639  21.204  0.00  0.00    -0.328 N 
ATOM     26  C   UNL     1      -3.887   3.446  21.730  0.00  0.00    +0.231 C 
ATOM     45  H   UNL     1      -2.658   2.687  20.220  0.00  0.00    +0.145 HD
ATOM     46  H   UNL     1      -2.391   1.963  21.764  0.00  0.00    +0.145 HD
ENDBRANCH  22  26
BRANCH  22  24
ATOM     24  C   UNL     1      -3.346   4.328  24.014  0.00  0.00    +0.067 C 
BRANCH  24  25
ATOM     25  C   UNL     1      -2.161   3.794  24.781  0.00  0.00    -0.045 A 
ATOM     27  C   UNL     1      -2.238   3.640  26.164  0.00  0.00    +0.007 A 
ATOM     28  C   UNL     1      -0.989   3.453  24.105  0.00  0.00    +0.007 A 
ATOM     30  C   UNL     1      -1.143   3.145  26.874  0.00  0.00    +0.046 A 
ATOM     31  C   UNL     1       0.105   2.959  24.814  0.00  0.00    +0.046 A 
ATOM     32  C   UNL     1       0.028   2.805  26.199  0.00  0.00    +0.120 A 
BRANCH  32   9
ATOM      9  O   UNL     1       1.097   2.323  26.890  0.00  0.00    -0.495 OA
ATOM     38  C   UNL     1       1.192   2.679  28.269  0.00  0.00    +0.277 C 
ENDBRANCH  32   9
ENDBRANCH  24  25
ENDBRANCH  22  24
ENDBRANCH  12  22
ENDBRANCH  19  21
BRANCH  15   4
ATOM      4  O   UNL     1      -0.813  -1.848  25.776  0.00  0.00    -0.387 OA
ATOM     41  H   UNL     1      -0.993  -0.893  25.728  0.00  0.00    +0.210 HD
ENDBRANCH  15   4
BRANCH  16   5
ATOM      5  O   UNL     1      -4.176  -3.202  25.278  0.00  0.00    -0.389 OA
ATOM     42  H   UNL     1      -4.879  -2.609  24.963  0.00  0.00    +0.210 HD
ENDBRANCH  16   5
TORSDOF 12
ENDMDL
