MODEL 1
REMARK VINA RESULT:      -6.4      0.000      0.000
REMARK  Name = 11943354
REMARK  8 active torsions:
REMARK  status: ('A' for Active; 'I' for Inactive)
REMARK    1  A    between atoms: O_2  and  C_20
REMARK    2  A    between atoms: N_4  and  C_13
REMARK    3  A    between atoms: N_4  and  C_15
REMARK    4  A    between atoms: C_6  and  C_12
REMARK    5  A    between atoms: C_7  and  C_13
REMARK    6  A    between atoms: C_12  and  C_14
REMARK    7  A    between atoms: C_15  and  C_16
REMARK    8  A    between atoms: C_18  and  C_20
REMARK                            x       y       z     vdW  Elec       q    Type
REMARK                         _______ _______ _______ _____ _____    ______ ____
ROOT
ATOM      4  N   UNL     1      -0.078   1.018  25.229  0.00  0.00    -0.308 NA
ATOM     21  H   UNL     1       0.595   0.770  25.955  0.00  0.00    +0.122 HD
ENDROOT
BRANCH   4  13
ATOM     13  C   UNL     1      -0.211  -0.059  24.296  0.00  0.00    +0.100 C 
BRANCH  13   7
ATOM      3  N   UNL     1      -1.995  -1.749  23.796  0.00  0.00    -0.298 NA
ATOM      5  C   UNL     1      -3.424  -1.138  25.883  0.00  0.00    -0.004 C 
ATOM      6  C   UNL     1      -4.037  -0.535  24.599  0.00  0.00    +0.006 C 
ATOM      7  C   UNL     1      -1.131  -1.150  24.848  0.00  0.00    +0.071 C 
ATOM      8  C   UNL     1      -1.975  -0.641  26.038  0.00  0.00    +0.024 C 
ATOM      9  C   UNL     1      -3.075  -0.805  23.419  0.00  0.00    +0.088 C 
ATOM     10  C   UNL     1      -3.363  -2.663  25.676  0.00  0.00    +0.019 C 
ATOM     11  C   UNL     1      -2.623  -2.968  24.361  0.00  0.00    +0.085 C 
BRANCH   6  12
ATOM     12  C   UNL     1      -4.365   0.951  24.727  0.00  0.00    +0.002 C 
ATOM     14  C   UNL     1      -3.766   1.751  23.588  0.00  0.00    +0.004 C 
ENDBRANCH   6  12
ENDBRANCH  13   7
ENDBRANCH   4  13
BRANCH   4  15
ATOM     15  C   UNL     1       0.349   2.258  24.575  0.00  0.00    +0.156 C 
BRANCH  15  16
ATOM      1  O   UNL     1      -1.648   3.051  25.650  0.00  0.00    -0.461 OA
ATOM     16  C   UNL     1      -0.581   3.393  24.908  0.00  0.00    +0.119 A 
ATOM     17  C   UNL     1      -0.551   4.710  24.602  0.00  0.00    +0.046 A 
ATOM     18  C   UNL     1      -2.342   4.205  25.831  0.00  0.00    +0.131 A 
ATOM     19  C   UNL     1      -1.709   5.255  25.207  0.00  0.00    +0.047 A 
BRANCH  18  20
ATOM     20  C   UNL     1      -3.576   4.104  26.624  0.00  0.00    +0.230 C 
BRANCH  20   2
ATOM      2  O   UNL     1      -4.682   4.069  25.720  0.00  0.00    -0.387 OA
ATOM     22  H   UNL     1      -4.473   4.660  24.975  0.00  0.00    +0.210 HD
ENDBRANCH  20   2
ENDBRANCH  18  20
ENDBRANCH  15  16
ENDBRANCH   4  15
TORSDOF 7
ENDMDL
MODEL 2
REMARK VINA RESULT:      -5.8      1.679      2.993
REMARK  Name = 11943354
REMARK  8 active torsions:
REMARK  status: ('A' for Active; 'I' for Inactive)
REMARK    1  A    between atoms: O_2  and  C_20
REMARK    2  A    between atoms: N_4  and  C_13
REMARK    3  A    between atoms: N_4  and  C_15
REMARK    4  A    between atoms: C_6  and  C_12
REMARK    5  A    between atoms: C_7  and  C_13
REMARK    6  A    between atoms: C_12  and  C_14
REMARK    7  A    between atoms: C_15  and  C_16
REMARK    8  A    between atoms: C_18  and  C_20
REMARK                            x       y       z     vdW  Elec       q    Type
REMARK                         _______ _______ _______ _____ _____    ______ ____
ROOT
ATOM      4  N   UNL     1      -0.578   3.731  25.420  0.00  0.00    -0.308 NA
ATOM     21  H   UNL     1      -0.265   3.516  24.472  0.00  0.00    +0.122 HD
ENDROOT
BRANCH   4  13
ATOM     13  C   UNL     1      -0.974   2.531  26.089  0.00  0.00    +0.100 C 
BRANCH  13   7
ATOM      3  N   UNL     1      -0.403   1.356  23.948  0.00  0.00    -0.298 NA
ATOM      5  C   UNL     1      -1.192  -0.974  24.795  0.00  0.00    -0.004 C 
ATOM      6  C   UNL     1      -2.236  -0.351  23.840  0.00  0.00    +0.006 C 
ATOM      7  C   UNL     1      -0.336   1.304  25.433  0.00  0.00    +0.071 C 
ATOM      8  C   UNL     1      -0.940  -0.013  25.971  0.00  0.00    +0.024 C 
ATOM      9  C   UNL     1      -1.785   1.083  23.485  0.00  0.00    +0.088 C 
ATOM     10  C   UNL     1       0.126  -1.085  24.006  0.00  0.00    +0.019 C 
ATOM     11  C   UNL     1       0.481   0.291  23.414  0.00  0.00    +0.085 C 
BRANCH   6  12
ATOM     12  C   UNL     1      -3.656  -0.373  24.402  0.00  0.00    +0.002 C 
ATOM     14  C   UNL     1      -4.371  -1.662  24.049  0.00  0.00    +0.004 C 
ENDBRANCH   6  12
ENDBRANCH  13   7
ENDBRANCH   4  13
BRANCH   4  15
ATOM     15  C   UNL     1      -1.668   4.709  25.360  0.00  0.00    +0.156 C 
BRANCH  15  16
ATOM      1  O   UNL     1      -3.736   3.606  25.890  0.00  0.00    -0.461 OA
ATOM     16  C   UNL     1      -2.949   4.066  24.902  0.00  0.00    +0.119 A 
ATOM     17  C   UNL     1      -3.470   3.857  23.672  0.00  0.00    +0.046 A 
ATOM     18  C   UNL     1      -4.819   3.074  25.266  0.00  0.00    +0.131 A 
ATOM     19  C   UNL     1      -4.704   3.203  23.900  0.00  0.00    +0.047 A 
BRANCH  18  20
ATOM     20  C   UNL     1      -5.851   2.492  26.136  0.00  0.00    +0.230 C 
BRANCH  20   2
ATOM      2  O   UNL     1      -6.844   1.888  25.305  0.00  0.00    -0.387 OA
ATOM     22  H   UNL     1      -6.396   1.549  24.510  0.00  0.00    +0.210 HD
ENDBRANCH  20   2
ENDBRANCH  18  20
ENDBRANCH  15  16
ENDBRANCH   4  15
TORSDOF 7
ENDMDL
MODEL 3
REMARK VINA RESULT:      -5.3      1.676      3.268
REMARK  Name = 11943354
REMARK  8 active torsions:
REMARK  status: ('A' for Active; 'I' for Inactive)
REMARK    1  A    between atoms: O_2  and  C_20
REMARK    2  A    between atoms: N_4  and  C_13
REMARK    3  A    between atoms: N_4  and  C_15
REMARK    4  A    between atoms: C_6  and  C_12
REMARK    5  A    between atoms: C_7  and  C_13
REMARK    6  A    between atoms: C_12  and  C_14
REMARK    7  A    between atoms: C_15  and  C_16
REMARK    8  A    between atoms: C_18  and  C_20
REMARK                            x       y       z     vdW  Elec       q    Type
REMARK                         _______ _______ _______ _____ _____    ______ ____
ROOT
ATOM      4  N   UNL     1      -4.788   2.152  25.351  0.00  0.00    -0.308 NA
ATOM     21  H   UNL     1      -4.527   1.820  26.280  0.00  0.00    +0.122 HD
ENDROOT
BRANCH   4  13
ATOM     13  C   UNL     1      -4.110   1.388  24.350  0.00  0.00    +0.100 C 
BRANCH  13   7
ATOM      3  N   UNL     1      -3.283  -0.375  25.931  0.00  0.00    -0.298 NA
ATOM      5  C   UNL     1      -2.650  -2.045  24.038  0.00  0.00    -0.004 C 
ATOM      6  C   UNL     1      -1.392  -1.351  24.606  0.00  0.00    +0.006 C 
ATOM      7  C   UNL     1      -4.095  -0.099  24.715  0.00  0.00    +0.071 C 
ATOM      8  C   UNL     1      -3.635  -0.976  23.529  0.00  0.00    +0.024 C 
ATOM      9  C   UNL     1      -1.837  -0.273  25.619  0.00  0.00    +0.088 C 
ATOM     10  C   UNL     1      -3.333  -2.768  25.215  0.00  0.00    +0.019 C 
ATOM     11  C   UNL     1      -3.566  -1.766  26.361  0.00  0.00    +0.085 C 
BRANCH   6  12
ATOM     12  C   UNL     1      -0.485  -0.767  23.524  0.00  0.00    +0.002 C 
ATOM     14  C   UNL     1      -0.604   0.743  23.459  0.00  0.00    +0.004 C 
ENDBRANCH   6  12
ENDBRANCH  13   7
ENDBRANCH   4  13
BRANCH   4  15
ATOM     15  C   UNL     1      -4.485   3.583  25.245  0.00  0.00    +0.156 C 
BRANCH  15  16
ATOM      1  O   UNL     1      -2.295   2.991  26.038  0.00  0.00    -0.461 OA
ATOM     16  C   UNL     1      -3.000   3.824  25.252  0.00  0.00    +0.119 A 
ATOM     17  C   UNL     1      -2.224   4.728  24.613  0.00  0.00    +0.046 A 
ATOM     18  C   UNL     1      -1.000   3.377  25.899  0.00  0.00    +0.131 A 
ATOM     19  C   UNL     1      -0.903   4.442  25.032  0.00  0.00    +0.047 A 
BRANCH  18  20
ATOM     20  C   UNL     1      -0.007   2.614  26.668  0.00  0.00    +0.230 C 
BRANCH  20   2
ATOM      2  O   UNL     1       0.930   2.052  25.748  0.00  0.00    -0.387 OA
ATOM     22  H   UNL     1       0.751   2.438  24.872  0.00  0.00    +0.210 HD
ENDBRANCH  20   2
ENDBRANCH  18  20
ENDBRANCH  15  16
ENDBRANCH   4  15
TORSDOF 7
ENDMDL
MODEL 4
REMARK VINA RESULT:      -5.1      2.611      5.050
REMARK  Name = 11943354
REMARK  8 active torsions:
REMARK  status: ('A' for Active; 'I' for Inactive)
REMARK    1  A    between atoms: O_2  and  C_20
REMARK    2  A    between atoms: N_4  and  C_13
REMARK    3  A    between atoms: N_4  and  C_15
REMARK    4  A    between atoms: C_6  and  C_12
REMARK    5  A    between atoms: C_7  and  C_13
REMARK    6  A    between atoms: C_12  and  C_14
REMARK    7  A    between atoms: C_15  and  C_16
REMARK    8  A    between atoms: C_18  and  C_20
REMARK                            x       y       z     vdW  Elec       q    Type
REMARK                         _______ _______ _______ _____ _____    ______ ____
ROOT
ATOM      4  N   UNL     1      -0.625   3.570  24.690  0.00  0.00    -0.308 NA
ATOM     21  H   UNL     1      -1.066   4.183  25.377  0.00  0.00    +0.122 HD
ENDROOT
BRANCH   4  13
ATOM     13  C   UNL     1      -1.598   3.109  23.749  0.00  0.00    +0.100 C 
BRANCH  13   7
ATOM      3  N   UNL     1      -3.173   2.784  25.673  0.00  0.00    -0.298 NA
ATOM      5  C   UNL     1      -5.128   1.940  24.177  0.00  0.00    -0.004 C 
ATOM      6  C   UNL     1      -4.445   0.763  24.908  0.00  0.00    +0.006 C 
ATOM      7  C   UNL     1      -3.017   3.304  24.288  0.00  0.00    +0.071 C 
ATOM      8  C   UNL     1      -4.079   2.699  23.343  0.00  0.00    +0.024 C 
ATOM      9  C   UNL     1      -3.209   1.301  25.664  0.00  0.00    +0.088 C 
ATOM     10  C   UNL     1      -5.635   2.909  25.263  0.00  0.00    +0.019 C 
ATOM     11  C   UNL     1      -4.470   3.274  26.201  0.00  0.00    +0.085 C 
BRANCH   6  12
ATOM     12  C   UNL     1      -4.078  -0.393  23.980  0.00  0.00    +0.002 C 
ATOM     14  C   UNL     1      -3.633  -1.612  24.763  0.00  0.00    +0.004 C 
ENDBRANCH   6  12
ENDBRANCH  13   7
ENDBRANCH   4  13
BRANCH   4  15
ATOM     15  C   UNL     1       0.034   2.460  25.384  0.00  0.00    +0.156 C 
BRANCH  15  16
ATOM      1  O   UNL     1       1.671   1.517  23.899  0.00  0.00    -0.461 OA
ATOM     16  C   UNL     1       0.438   1.380  24.417  0.00  0.00    +0.119 A 
ATOM     17  C   UNL     1      -0.207   0.283  23.962  0.00  0.00    +0.046 A 
ATOM     18  C   UNL     1       1.829   0.456  23.067  0.00  0.00    +0.131 A 
ATOM     19  C   UNL     1       0.702  -0.335  23.070  0.00  0.00    +0.047 A 
BRANCH  18  20
ATOM     20  C   UNL     1       3.115   0.368  22.361  0.00  0.00    +0.230 C 
BRANCH  20   2
ATOM      2  O   UNL     1       4.137   0.841  23.240  0.00  0.00    -0.387 OA
ATOM     22  H   UNL     1       4.338   1.760  22.990  0.00  0.00    +0.210 HD
ENDBRANCH  20   2
ENDBRANCH  18  20
ENDBRANCH  15  16
ENDBRANCH   4  15
TORSDOF 7
ENDMDL
MODEL 5
REMARK VINA RESULT:      -5.1      2.391      5.385
REMARK  Name = 11943354
REMARK  8 active torsions:
REMARK  status: ('A' for Active; 'I' for Inactive)
REMARK    1  A    between atoms: O_2  and  C_20
REMARK    2  A    between atoms: N_4  and  C_13
REMARK    3  A    between atoms: N_4  and  C_15
REMARK    4  A    between atoms: C_6  and  C_12
REMARK    5  A    between atoms: C_7  and  C_13
REMARK    6  A    between atoms: C_12  and  C_14
REMARK    7  A    between atoms: C_15  and  C_16
REMARK    8  A    between atoms: C_18  and  C_20
REMARK                            x       y       z     vdW  Elec       q    Type
REMARK                         _______ _______ _______ _____ _____    ______ ____
ROOT
ATOM      4  N   UNL     1      -4.423  -0.930  24.219  0.00  0.00    -0.308 NA
ATOM     21  H   UNL     1      -4.277  -0.602  23.263  0.00  0.00    +0.122 HD
ENDROOT
BRANCH   4  13
ATOM     13  C   UNL     1      -4.158   0.127  25.145  0.00  0.00    +0.100 C 
BRANCH  13   7
ATOM      3  N   UNL     1      -3.366   1.819  23.472  0.00  0.00    -0.298 NA
ATOM      5  C   UNL     1      -3.696   3.841  25.076  0.00  0.00    -0.004 C 
ATOM      6  C   UNL     1      -2.202   3.459  24.969  0.00  0.00    +0.006 C 
ATOM      7  C   UNL     1      -4.394   1.494  24.498  0.00  0.00    +0.071 C 
ATOM      8  C   UNL     1      -4.502   2.618  25.552  0.00  0.00    +0.024 C 
ATOM      9  C   UNL     1      -2.082   2.171  24.124  0.00  0.00    +0.088 C 
ATOM     10  C   UNL     1      -4.176   4.176  23.651  0.00  0.00    +0.019 C 
ATOM     11  C   UNL     1      -3.839   3.003  22.713  0.00  0.00    +0.085 C 
BRANCH   6  12
ATOM     12  C   UNL     1      -1.520   3.307  26.327  0.00  0.00    +0.002 C 
ATOM     14  C   UNL     1      -0.318   2.386  26.242  0.00  0.00    +0.004 C 
ENDBRANCH   6  12
ENDBRANCH  13   7
ENDBRANCH   4  13
BRANCH   4  15
ATOM     15  C   UNL     1      -3.575  -2.099  24.465  0.00  0.00    +0.156 C 
BRANCH  15  16
ATOM      1  O   UNL     1      -1.535  -1.163  23.607  0.00  0.00    -0.461 OA
ATOM     16  C   UNL     1      -2.143  -1.693  24.683  0.00  0.00    +0.119 A 
ATOM     17  C   UNL     1      -1.335  -1.758  25.765  0.00  0.00    +0.046 A 
ATOM     18  C   UNL     1      -0.273  -0.871  24.016  0.00  0.00    +0.131 A 
ATOM     19  C   UNL     1      -0.099  -1.218  25.336  0.00  0.00    +0.047 A 
BRANCH  18  20
ATOM     20  C   UNL     1       0.614  -0.271  23.010  0.00  0.00    +0.230 C 
BRANCH  20   2
ATOM      2  O   UNL     1       1.365   0.767  23.643  0.00  0.00    -0.387 OA
ATOM     22  H   UNL     1       2.075   1.031  23.031  0.00  0.00    +0.210 HD
ENDBRANCH  20   2
ENDBRANCH  18  20
ENDBRANCH  15  16
ENDBRANCH   4  15
TORSDOF 7
ENDMDL
MODEL 6
REMARK VINA RESULT:      -5.1      2.185      5.227
REMARK  Name = 11943354
REMARK  8 active torsions:
REMARK  status: ('A' for Active; 'I' for Inactive)
REMARK    1  A    between atoms: O_2  and  C_20
REMARK    2  A    between atoms: N_4  and  C_13
REMARK    3  A    between atoms: N_4  and  C_15
REMARK    4  A    between atoms: C_6  and  C_12
REMARK    5  A    between atoms: C_7  and  C_13
REMARK    6  A    between atoms: C_12  and  C_14
REMARK    7  A    between atoms: C_15  and  C_16
REMARK    8  A    between atoms: C_18  and  C_20
REMARK                            x       y       z     vdW  Elec       q    Type
REMARK                         _______ _______ _______ _____ _____    ______ ____
ROOT
ATOM      4  N   UNL     1       0.334   1.399  25.083  0.00  0.00    -0.308 NA
ATOM     21  H   UNL     1       0.921   0.976  25.803  0.00  0.00    +0.122 HD
ENDROOT
BRANCH   4  13
ATOM     13  C   UNL     1      -0.921   1.793  25.644  0.00  0.00    +0.100 C 
BRANCH  13   7
ATOM      3  N   UNL     1      -1.894   4.102  25.761  0.00  0.00    -0.298 NA
ATOM      5  C   UNL     1      -3.850   3.567  24.131  0.00  0.00    -0.004 C 
ATOM      6  C   UNL     1      -4.343   3.595  25.595  0.00  0.00    +0.006 C 
ATOM      7  C   UNL     1      -1.520   2.971  24.871  0.00  0.00    +0.071 C 
ATOM      8  C   UNL     1      -2.716   2.534  23.995  0.00  0.00    +0.024 C 
ATOM      9  C   UNL     1      -3.121   3.772  26.524  0.00  0.00    +0.088 C 
ATOM     10  C   UNL     1      -3.242   4.952  23.837  0.00  0.00    +0.019 C 
ATOM     11  C   UNL     1      -2.183   5.279  24.906  0.00  0.00    +0.085 C 
BRANCH   6  12
ATOM     12  C   UNL     1      -5.167   2.367  25.978  0.00  0.00    +0.002 C 
ATOM     14  C   UNL     1      -6.176   2.020  24.900  0.00  0.00    +0.004 C 
ENDBRANCH   6  12
ENDBRANCH  13   7
ENDBRANCH   4  13
BRANCH   4  15
ATOM     15  C   UNL     1       0.165   0.452  23.977  0.00  0.00    +0.156 C 
BRANCH  15  16
ATOM      1  O   UNL     1      -1.916  -0.749  23.955  0.00  0.00    -0.461 OA
ATOM     16  C   UNL     1      -0.648  -0.740  24.403  0.00  0.00    +0.119 A 
ATOM     17  C   UNL     1      -0.349  -1.819  25.160  0.00  0.00    +0.046 A 
ATOM     18  C   UNL     1      -2.462  -1.891  24.448  0.00  0.00    +0.131 A 
ATOM     19  C   UNL     1      -1.538  -2.585  25.196  0.00  0.00    +0.047 A 
BRANCH  18  20
ATOM     20  C   UNL     1      -3.867  -2.145  24.099  0.00  0.00    +0.230 C 
BRANCH  20   2
ATOM      2  O   UNL     1      -4.594  -0.927  24.272  0.00  0.00    -0.387 OA
ATOM     22  H   UNL     1      -3.997  -0.286  24.696  0.00  0.00    +0.210 HD
ENDBRANCH  20   2
ENDBRANCH  18  20
ENDBRANCH  15  16
ENDBRANCH   4  15
TORSDOF 7
ENDMDL
MODEL 7
REMARK VINA RESULT:      -5.0      2.845      4.703
REMARK  Name = 11943354
REMARK  8 active torsions:
REMARK  status: ('A' for Active; 'I' for Inactive)
REMARK    1  A    between atoms: O_2  and  C_20
REMARK    2  A    between atoms: N_4  and  C_13
REMARK    3  A    between atoms: N_4  and  C_15
REMARK    4  A    between atoms: C_6  and  C_12
REMARK    5  A    between atoms: C_7  and  C_13
REMARK    6  A    between atoms: C_12  and  C_14
REMARK    7  A    between atoms: C_15  and  C_16
REMARK    8  A    between atoms: C_18  and  C_20
REMARK                            x       y       z     vdW  Elec       q    Type
REMARK                         _______ _______ _______ _____ _____    ______ ____
ROOT
ATOM      4  N   UNL     1      -0.003   1.661  25.579  0.00  0.00    -0.308 NA
ATOM     21  H   UNL     1       0.309   0.692  25.656  0.00  0.00    +0.122 HD
ENDROOT
BRANCH   4  13
ATOM     13  C   UNL     1      -1.418   1.737  25.772  0.00  0.00    +0.100 C 
BRANCH  13   7
ATOM      3  N   UNL     1      -2.717   1.055  23.738  0.00  0.00    -0.298 NA
ATOM      5  C   UNL     1      -4.476  -0.309  25.086  0.00  0.00    -0.004 C 
ATOM      6  C   UNL     1      -5.054   1.055  24.647  0.00  0.00    +0.006 C 
ATOM      7  C   UNL     1      -2.132   0.606  25.030  0.00  0.00    +0.071 C 
ATOM      8  C   UNL     1      -3.199  -0.078  25.915  0.00  0.00    +0.024 C 
ATOM      9  C   UNL     1      -3.928   1.877  23.980  0.00  0.00    +0.088 C 
ATOM     10  C   UNL     1      -4.057  -1.053  23.803  0.00  0.00    +0.019 C 
ATOM     11  C   UNL     1      -3.122  -0.151  22.976  0.00  0.00    +0.085 C 
BRANCH   6  12
ATOM     12  C   UNL     1      -5.714   1.826  25.788  0.00  0.00    +0.002 C 
ATOM     14  C   UNL     1      -5.289   3.281  25.791  0.00  0.00    +0.004 C 
ENDBRANCH   6  12
ENDBRANCH  13   7
ENDBRANCH   4  13
BRANCH   4  15
ATOM     15  C   UNL     1       0.402   2.200  24.277  0.00  0.00    +0.156 C 
BRANCH  15  16
ATOM      1  O   UNL     1       2.577   1.447  23.588  0.00  0.00    -0.461 OA
ATOM     16  C   UNL     1       1.254   1.214  23.525  0.00  0.00    +0.119 A 
ATOM     17  C   UNL     1       0.945   0.124  22.788  0.00  0.00    +0.046 A 
ATOM     18  C   UNL     1       3.150   0.458  22.854  0.00  0.00    +0.131 A 
ATOM     19  C   UNL     1       2.189  -0.383  22.340  0.00  0.00    +0.047 A 
BRANCH  18  20
ATOM     20  C   UNL     1       4.616   0.483  22.760  0.00  0.00    +0.230 C 
BRANCH  20   2
ATOM      2  O   UNL     1       5.145   0.553  24.085  0.00  0.00    -0.387 OA
ATOM     22  H   UNL     1       5.063  -0.332  24.482  0.00  0.00    +0.210 HD
ENDBRANCH  20   2
ENDBRANCH  18  20
ENDBRANCH  15  16
ENDBRANCH   4  15
TORSDOF 7
ENDMDL
MODEL 8
REMARK VINA RESULT:      -4.9      1.067      2.418
REMARK  Name = 11943354
REMARK  8 active torsions:
REMARK  status: ('A' for Active; 'I' for Inactive)
REMARK    1  A    between atoms: O_2  and  C_20
REMARK    2  A    between atoms: N_4  and  C_13
REMARK    3  A    between atoms: N_4  and  C_15
REMARK    4  A    between atoms: C_6  and  C_12
REMARK    5  A    between atoms: C_7  and  C_13
REMARK    6  A    between atoms: C_12  and  C_14
REMARK    7  A    between atoms: C_15  and  C_16
REMARK    8  A    between atoms: C_18  and  C_20
REMARK                            x       y       z     vdW  Elec       q    Type
REMARK                         _______ _______ _______ _____ _____    ______ ____
ROOT
ATOM      4  N   UNL     1      -0.310   0.992  25.395  0.00  0.00    -0.308 NA
ATOM     21  H   UNL     1       0.348   0.293  25.742  0.00  0.00    +0.122 HD
ENDROOT
BRANCH   4  13
ATOM     13  C   UNL     1      -0.901   0.544  24.172  0.00  0.00    +0.100 C 
BRANCH  13   7
ATOM      3  N   UNL     1      -2.984   0.412  25.563  0.00  0.00    -0.298 NA
ATOM      5  C   UNL     1      -4.341  -0.870  23.751  0.00  0.00    -0.004 C 
ATOM      6  C   UNL     1      -3.875  -1.827  24.871  0.00  0.00    +0.006 C 
ATOM      7  C   UNL     1      -2.424   0.693  24.214  0.00  0.00    +0.071 C 
ATOM      8  C   UNL     1      -3.114  -0.171  23.135  0.00  0.00    +0.024 C 
ATOM      9  C   UNL     1      -2.958  -1.045  25.838  0.00  0.00    +0.088 C 
ATOM     10  C   UNL     1      -5.198   0.222  24.421  0.00  0.00    +0.019 C 
ATOM     11  C   UNL     1      -4.398   0.859  25.572  0.00  0.00    +0.085 C 
BRANCH   6  12
ATOM     12  C   UNL     1      -3.193  -3.087  24.343  0.00  0.00    +0.002 C 
ATOM     14  C   UNL     1      -1.683  -2.975  24.428  0.00  0.00    +0.004 C 
ENDBRANCH   6  12
ENDBRANCH  13   7
ENDBRANCH   4  13
BRANCH   4  15
ATOM     15  C   UNL     1       0.384   2.273  25.231  0.00  0.00    +0.156 C 
BRANCH  15  16
ATOM      1  O   UNL     1      -1.730   3.178  25.928  0.00  0.00    -0.461 OA
ATOM     16  C   UNL     1      -0.587   3.423  25.265  0.00  0.00    +0.119 A 
ATOM     17  C   UNL     1      -0.531   4.672  24.752  0.00  0.00    +0.046 A 
ATOM     18  C   UNL     1      -2.449   4.327  25.838  0.00  0.00    +0.131 A 
ATOM     19  C   UNL     1      -1.755   5.278  25.124  0.00  0.00    +0.047 A 
BRANCH  18  20
ATOM     20  C   UNL     1      -3.765   4.324  26.492  0.00  0.00    +0.230 C 
BRANCH  20   2
ATOM      2  O   UNL     1      -4.761   4.134  25.485  0.00  0.00    -0.387 OA
ATOM     22  H   UNL     1      -4.308   4.109  24.624  0.00  0.00    +0.210 HD
ENDBRANCH  20   2
ENDBRANCH  18  20
ENDBRANCH  15  16
ENDBRANCH   4  15
TORSDOF 7
ENDMDL
MODEL 9
REMARK VINA RESULT:      -4.7      2.277      5.971
REMARK  Name = 11943354
REMARK  8 active torsions:
REMARK  status: ('A' for Active; 'I' for Inactive)
REMARK    1  A    between atoms: O_2  and  C_20
REMARK    2  A    between atoms: N_4  and  C_13
REMARK    3  A    between atoms: N_4  and  C_15
REMARK    4  A    between atoms: C_6  and  C_12
REMARK    5  A    between atoms: C_7  and  C_13
REMARK    6  A    between atoms: C_12  and  C_14
REMARK    7  A    between atoms: C_15  and  C_16
REMARK    8  A    between atoms: C_18  and  C_20
REMARK                            x       y       z     vdW  Elec       q    Type
REMARK                         _______ _______ _______ _____ _____    ______ ____
ROOT
ATOM      4  N   UNL     1      -4.573   1.403  24.753  0.00  0.00    -0.308 NA
ATOM     21  H   UNL     1      -3.568   1.484  24.592  0.00  0.00    +0.122 HD
ENDROOT
BRANCH   4  13
ATOM     13  C   UNL     1      -5.026   2.486  25.571  0.00  0.00    +0.100 C 
BRANCH  13   7
ATOM      3  N   UNL     1      -3.532   3.742  23.996  0.00  0.00    -0.298 NA
ATOM      5  C   UNL     1      -1.792   4.352  25.832  0.00  0.00    -0.004 C 
ATOM      6  C   UNL     1      -1.276   3.197  24.946  0.00  0.00    +0.006 C 
ATOM      7  C   UNL     1      -4.182   3.740  25.334  0.00  0.00    +0.071 C 
ATOM      8  C   UNL     1      -3.142   3.952  26.457  0.00  0.00    +0.024 C 
ATOM      9  C   UNL     1      -2.402   2.782  23.972  0.00  0.00    +0.088 C 
ATOM     10  C   UNL     1      -2.060   5.548  24.899  0.00  0.00    +0.019 C 
ATOM     11  C   UNL     1      -2.989   5.101  23.755  0.00  0.00    +0.085 C 
BRANCH   6  12
ATOM     12  C   UNL     1      -0.760   2.005  25.749  0.00  0.00    +0.002 C 
ATOM     14  C   UNL     1       0.328   2.421  26.719  0.00  0.00    +0.004 C 
ENDBRANCH   6  12
ENDBRANCH  13   7
ENDBRANCH   4  13
BRANCH   4  15
ATOM     15  C   UNL     1      -4.865   0.101  25.359  0.00  0.00    +0.156 C 
BRANCH  15  16
ATOM      1  O   UNL     1      -2.572  -0.620  25.343  0.00  0.00    -0.461 OA
ATOM     16  C   UNL     1      -3.830  -0.920  24.972  0.00  0.00    +0.119 A 
ATOM     17  C   UNL     1      -3.919  -2.098  24.315  0.00  0.00    +0.046 A 
ATOM     18  C   UNL     1      -1.813  -1.656  24.902  0.00  0.00    +0.131 A 
ATOM     19  C   UNL     1      -2.593  -2.592  24.263  0.00  0.00    +0.047 A 
BRANCH  18  20
ATOM     20  C   UNL     1      -0.373  -1.573  25.184  0.00  0.00    +0.230 C 
BRANCH  20   2
ATOM      2  O   UNL     1       0.232  -0.763  24.175  0.00  0.00    -0.387 OA
ATOM     22  H   UNL     1       0.265   0.150  24.512  0.00  0.00    +0.210 HD
ENDBRANCH  20   2
ENDBRANCH  18  20
ENDBRANCH  15  16
ENDBRANCH   4  15
TORSDOF 7
ENDMDL
MODEL 10
REMARK VINA RESULT:      -4.3      3.077      5.658
REMARK  Name = 11943354
REMARK  8 active torsions:
REMARK  status: ('A' for Active; 'I' for Inactive)
REMARK    1  A    between atoms: O_2  and  C_20
REMARK    2  A    between atoms: N_4  and  C_13
REMARK    3  A    between atoms: N_4  and  C_15
REMARK    4  A    between atoms: C_6  and  C_12
REMARK    5  A    between atoms: C_7  and  C_13
REMARK    6  A    between atoms: C_12  and  C_14
REMARK    7  A    between atoms: C_15  and  C_16
REMARK    8  A    between atoms: C_18  and  C_20
REMARK                            x       y       z     vdW  Elec       q    Type
REMARK                         _______ _______ _______ _____ _____    ______ ____
ROOT
ATOM      4  N   UNL     1      -0.236   0.920  25.451  0.00  0.00    -0.308 NA
ATOM     21  H   UNL     1      -0.032  -0.059  25.243  0.00  0.00    +0.122 HD
ENDROOT
BRANCH   4  13
ATOM     13  C   UNL     1      -1.648   1.110  25.574  0.00  0.00    +0.100 C 
BRANCH  13   7
ATOM      3  N   UNL     1      -2.296   3.533  25.586  0.00  0.00    -0.298 NA
ATOM      5  C   UNL     1      -4.365   3.184  24.048  0.00  0.00    -0.004 C 
ATOM      6  C   UNL     1      -4.796   3.356  25.522  0.00  0.00    +0.006 C 
ATOM      7  C   UNL     1      -2.111   2.315  24.752  0.00  0.00    +0.071 C 
ATOM      8  C   UNL     1      -3.386   2.000  23.938  0.00  0.00    +0.024 C 
ATOM      9  C   UNL     1      -3.528   3.415  26.403  0.00  0.00    +0.088 C 
ATOM     10  C   UNL     1      -3.588   4.455  23.657  0.00  0.00    +0.019 C 
ATOM     11  C   UNL     1      -2.456   4.691  24.674  0.00  0.00    +0.085 C 
BRANCH   6  12
ATOM     12  C   UNL     1      -5.763   2.275  25.998  0.00  0.00    +0.002 C 
ATOM     14  C   UNL     1      -6.530   1.669  24.839  0.00  0.00    +0.004 C 
ENDBRANCH   6  12
ENDBRANCH  13   7
ENDBRANCH   4  13
BRANCH   4  15
ATOM     15  C   UNL     1       0.342   1.770  24.406  0.00  0.00    +0.156 C 
BRANCH  15  16
ATOM      1  O   UNL     1       2.571   1.264  23.665  0.00  0.00    -0.461 OA
ATOM     16  C   UNL     1       1.265   0.982  23.517  0.00  0.00    +0.119 A 
ATOM     17  C   UNL     1       1.033   0.031  22.584  0.00  0.00    +0.046 A 
ATOM     18  C   UNL     1       3.214   0.455  22.783  0.00  0.00    +0.131 A 
ATOM     19  C   UNL     1       2.312  -0.324  22.093  0.00  0.00    +0.047 A 
BRANCH  18  20
ATOM     20  C   UNL     1       4.679   0.568  22.744  0.00  0.00    +0.230 C 
BRANCH  20   2
ATOM      2  O   UNL     1       5.155   0.635  24.090  0.00  0.00    -0.387 OA
ATOM     22  H   UNL     1       4.665  -0.027  24.609  0.00  0.00    +0.210 HD
ENDBRANCH  20   2
ENDBRANCH  18  20
ENDBRANCH  15  16
ENDBRANCH   4  15
TORSDOF 7
ENDMDL
