MODEL 1
REMARK VINA RESULT:      -3.0      0.000      0.000
REMARK  Name = 75536754
REMARK  8 active torsions:
REMARK  status: ('A' for Active; 'I' for Inactive)
REMARK    1  A    between atoms: O_2  and  C_11
REMARK    2  A    between atoms: N_6  and  C_10
REMARK    3  A    between atoms: N_6  and  C_15
REMARK    4  A    between atoms: N_7  and  C_14
REMARK    5  A    between atoms: N_9  and  C_26
REMARK    6  A    between atoms: C_12  and  C_14
REMARK    7  A    between atoms: C_15  and  C_17
REMARK    8  A    between atoms: C_27  and  C_28
REMARK                            x       y       z     vdW  Elec       q    Type
REMARK                         _______ _______ _______ _____ _____    ______ ____
ROOT
ATOM      1  O   UNL     1      -6.290   2.308  26.077  0.00  0.00    -0.371 OA
ATOM     10  C   UNL     1      -4.831   3.974  25.222  0.00  0.00    +0.111 C 
ATOM     11  C   UNL     1      -4.677   2.711  24.395  0.00  0.00    +0.164 C 
ATOM     12  C   UNL     1      -5.985   1.995  24.708  0.00  0.00    +0.165 C 
ATOM     13  C   UNL     1      -5.490   3.432  26.479  0.00  0.00    +0.181 C 
ENDROOT
BRANCH  11   2
ATOM      2  O   UNL     1      -4.539   2.976  23.013  0.00  0.00    -0.388 OA
ATOM     30  H   UNL     1      -4.145   2.195  22.590  0.00  0.00    +0.210 HD
ENDBRANCH  11   2
BRANCH  10   6
ATOM      6  N   UNL     1      -3.572   4.652  25.490  0.00  0.00    -0.305 NA
ATOM     29  H   UNL     1      -3.767   5.559  25.913  0.00  0.00    +0.123 HD
BRANCH   6  15
ATOM     15  C   UNL     1      -2.740   3.875  26.400  0.00  0.00    +0.116 C 
BRANCH  15  17
ATOM     17  C   UNL     1      -1.556   3.268  25.697  0.00  0.00    -0.033 A 
ATOM     22  C   UNL     1      -0.509   2.724  26.441  0.00  0.00    +0.007 A 
ATOM     23  C   UNL     1      -1.504   3.250  24.304  0.00  0.00    +0.007 A 
ATOM     24  C   UNL     1       0.590   2.161  25.790  0.00  0.00    +0.023 A 
ATOM     25  C   UNL     1      -0.406   2.688  23.653  0.00  0.00    +0.023 A 
ATOM     26  C   UNL     1       0.641   2.143  24.396  0.00  0.00    +0.033 A 
BRANCH  26   9
ATOM      5  O   UNL     1       0.837  -0.301  22.648  0.00  0.00    -0.276 OA
ATOM      9  N   UNL     1       1.740   1.582  23.745  0.00  0.00    -0.286 N 
ATOM     27  C   UNL     1       1.774   0.435  22.940  0.00  0.00    +0.214 C 
ATOM     28  C   UNL     1       3.162   0.161  22.418  0.00  0.00    +0.109 C 
ATOM     32  H   UNL     1       2.621   2.073  23.876  0.00  0.00    +0.155 HD
ENDBRANCH  26   9
ENDBRANCH  15  17
ENDBRANCH   6  15
ENDBRANCH  10   6
BRANCH  12  14
ATOM     14  C   UNL     1      -5.904   0.489  24.530  0.00  0.00    +0.140 C 
BRANCH  14   7
ATOM      3  O   UNL     1      -0.121  -2.137  25.453  0.00  0.00    -0.377 OA
ATOM      4  O   UNL     1      -4.729  -1.917  23.664  0.00  0.00    -0.253 OA
ATOM      7  N   UNL     1      -4.623  -0.026  24.959  0.00  0.00    -0.297 N 
ATOM      8  N   UNL     1      -2.858  -1.597  24.997  0.00  0.00    -0.281 N 
ATOM     16  C   UNL     1      -4.111  -1.227  24.482  0.00  0.00    +0.302 C 
ATOM     18  C   UNL     1      -2.247  -2.853  24.554  0.00  0.00    +0.137 C 
ATOM     19  C   UNL     1      -2.129  -0.918  26.077  0.00  0.00    +0.137 C 
ATOM     20  C   UNL     1      -0.760  -2.673  24.292  0.00  0.00    +0.179 C 
ATOM     21  C   UNL     1      -0.639  -0.843  25.763  0.00  0.00    +0.179 C 
ATOM     31  H   UNL     1      -4.127   0.530  25.640  0.00  0.00    +0.150 HD
ENDBRANCH  14   7
ENDBRANCH  12  14
TORSDOF 7
ENDMDL
MODEL 2
REMARK VINA RESULT:      -0.6      2.317      6.209
REMARK  Name = 75536754
REMARK  8 active torsions:
REMARK  status: ('A' for Active; 'I' for Inactive)
REMARK    1  A    between atoms: O_2  and  C_11
REMARK    2  A    between atoms: N_6  and  C_10
REMARK    3  A    between atoms: N_6  and  C_15
REMARK    4  A    between atoms: N_7  and  C_14
REMARK    5  A    between atoms: N_9  and  C_26
REMARK    6  A    between atoms: C_12  and  C_14
REMARK    7  A    between atoms: C_15  and  C_17
REMARK    8  A    between atoms: C_27  and  C_28
REMARK                            x       y       z     vdW  Elec       q    Type
REMARK                         _______ _______ _______ _____ _____    ______ ____
ROOT
ATOM      1  O   UNL     1      -0.949  -0.454  25.693  0.00  0.00    -0.371 OA
ATOM     10  C   UNL     1      -2.637  -2.097  25.391  0.00  0.00    +0.111 C 
ATOM     11  C   UNL     1      -1.903  -1.895  24.078  0.00  0.00    +0.164 C 
ATOM     12  C   UNL     1      -0.601  -1.272  24.564  0.00  0.00    +0.165 C 
ATOM     13  C   UNL     1      -2.261  -0.831  26.144  0.00  0.00    +0.181 C 
ENDROOT
BRANCH  11   2
ATOM      2  O   UNL     1      -1.680  -3.107  23.385  0.00  0.00    -0.388 OA
ATOM     30  H   UNL     1      -2.490  -3.335  22.900  0.00  0.00    +0.210 HD
ENDBRANCH  11   2
BRANCH  10   6
ATOM      6  N   UNL     1      -4.074  -2.259  25.236  0.00  0.00    -0.305 NA
ATOM     29  H   UNL     1      -4.537  -1.948  26.091  0.00  0.00    +0.123 HD
BRANCH   6  15
ATOM     15  C   UNL     1      -4.573  -1.472  24.116  0.00  0.00    +0.116 C 
BRANCH  15  17
ATOM     17  C   UNL     1      -4.198  -0.020  24.238  0.00  0.00    -0.033 A 
ATOM     22  C   UNL     1      -3.316   0.552  23.320  0.00  0.00    +0.007 A 
ATOM     23  C   UNL     1      -4.729   0.755  25.269  0.00  0.00    +0.007 A 
ATOM     24  C   UNL     1      -2.967   1.898  23.434  0.00  0.00    +0.023 A 
ATOM     25  C   UNL     1      -4.380   2.101  25.383  0.00  0.00    +0.023 A 
ATOM     26  C   UNL     1      -3.499   2.672  24.465  0.00  0.00    +0.033 A 
BRANCH  26   9
ATOM      5  O   UNL     1      -0.959   3.954  25.450  0.00  0.00    -0.276 OA
ATOM      9  N   UNL     1      -3.149   4.018  24.579  0.00  0.00    -0.286 N 
ATOM     27  C   UNL     1      -1.946   4.562  25.049  0.00  0.00    +0.214 C 
ATOM     28  C   UNL     1      -1.963   6.069  25.013  0.00  0.00    +0.109 C 
ATOM     32  H   UNL     1      -3.863   4.680  24.282  0.00  0.00    +0.155 HD
ENDBRANCH  26   9
ENDBRANCH  15  17
ENDBRANCH   6  15
ENDBRANCH  10   6
BRANCH  12  14
ATOM     14  C   UNL     1       0.090  -0.425  23.510  0.00  0.00    +0.140 C 
BRANCH  14   7
ATOM      3  O   UNL     1       6.497  -0.510  23.863  0.00  0.00    -0.377 OA
ATOM      4  O   UNL     1       2.066   1.513  22.998  0.00  0.00    -0.253 OA
ATOM      7  N   UNL     1       1.516  -0.659  23.495  0.00  0.00    -0.297 N 
ATOM      8  N   UNL     1       3.781  -0.028  23.248  0.00  0.00    -0.281 N 
ATOM     16  C   UNL     1       2.430   0.356  23.233  0.00  0.00    +0.302 C 
ATOM     18  C   UNL     1       4.812   0.976  22.976  0.00  0.00    +0.137 C 
ATOM     19  C   UNL     1       4.291  -1.402  23.367  0.00  0.00    +0.137 C 
ATOM     20  C   UNL     1       5.988   0.824  23.927  0.00  0.00    +0.179 C 
ATOM     21  C   UNL     1       5.509  -1.450  24.284  0.00  0.00    +0.179 C 
ATOM     31  H   UNL     1       1.812  -1.608  23.670  0.00  0.00    +0.150 HD
ENDBRANCH  14   7
ENDBRANCH  12  14
TORSDOF 7
ENDMDL
MODEL 3
REMARK VINA RESULT:      -0.2      1.934      4.992
REMARK  Name = 75536754
REMARK  8 active torsions:
REMARK  status: ('A' for Active; 'I' for Inactive)
REMARK    1  A    between atoms: O_2  and  C_11
REMARK    2  A    between atoms: N_6  and  C_10
REMARK    3  A    between atoms: N_6  and  C_15
REMARK    4  A    between atoms: N_7  and  C_14
REMARK    5  A    between atoms: N_9  and  C_26
REMARK    6  A    between atoms: C_12  and  C_14
REMARK    7  A    between atoms: C_15  and  C_17
REMARK    8  A    between atoms: C_27  and  C_28
REMARK                            x       y       z     vdW  Elec       q    Type
REMARK                         _______ _______ _______ _____ _____    ______ ____
ROOT
ATOM      1  O   UNL     1      -0.090   4.123  24.811  0.00  0.00    -0.371 OA
ATOM     10  C   UNL     1      -2.333   4.899  24.871  0.00  0.00    +0.111 C 
ATOM     11  C   UNL     1      -2.183   3.746  25.846  0.00  0.00    +0.164 C 
ATOM     12  C   UNL     1      -0.676   3.744  26.067  0.00  0.00    +0.165 C 
ATOM     13  C   UNL     1      -1.113   4.707  23.986  0.00  0.00    +0.181 C 
ENDROOT
BRANCH  11   2
ATOM      2  O   UNL     1      -2.893   3.952  27.051  0.00  0.00    -0.388 OA
ATOM     30  H   UNL     1      -3.202   3.091  27.375  0.00  0.00    +0.210 HD
ENDBRANCH  11   2
BRANCH  10   6
ATOM      6  N   UNL     1      -3.582   4.874  24.126  0.00  0.00    -0.305 NA
ATOM     29  H   UNL     1      -3.423   4.422  23.225  0.00  0.00    +0.123 HD
BRANCH   6  15
ATOM     15  C   UNL     1      -4.610   4.134  24.849  0.00  0.00    +0.116 C 
BRANCH  15  17
ATOM     17  C   UNL     1      -4.510   2.652  24.606  0.00  0.00    -0.033 A 
ATOM     22  C   UNL     1      -5.164   1.761  25.457  0.00  0.00    +0.007 A 
ATOM     23  C   UNL     1      -3.764   2.169  23.532  0.00  0.00    +0.007 A 
ATOM     24  C   UNL     1      -5.072   0.387  25.233  0.00  0.00    +0.023 A 
ATOM     25  C   UNL     1      -3.671   0.796  23.307  0.00  0.00    +0.023 A 
ATOM     26  C   UNL     1      -4.325  -0.095  24.158  0.00  0.00    +0.033 A 
BRANCH  26   9
ATOM      5  O   UNL     1      -2.506  -2.156  25.387  0.00  0.00    -0.276 OA
ATOM      9  N   UNL     1      -4.231  -1.469  23.933  0.00  0.00    -0.286 N 
ATOM     27  C   UNL     1      -3.360  -2.386  24.537  0.00  0.00    +0.214 C 
ATOM     28  C   UNL     1      -3.577  -3.786  24.019  0.00  0.00    +0.109 C 
ATOM     32  H   UNL     1      -4.881  -1.843  23.245  0.00  0.00    +0.155 HD
ENDBRANCH  26   9
ENDBRANCH  15  17
ENDBRANCH   6  15
ENDBRANCH  10   6
BRANCH  12  14
ATOM     14  C   UNL     1      -0.134   2.394  26.501  0.00  0.00    +0.140 C 
BRANCH  14   7
ATOM      3  O   UNL     1       2.681  -0.212  21.356  0.00  0.00    -0.377 OA
ATOM      4  O   UNL     1      -0.968   0.467  24.628  0.00  0.00    -0.253 OA
ATOM      7  N   UNL     1       0.694   1.802  25.475  0.00  0.00    -0.297 N 
ATOM      8  N   UNL     1       1.133   0.368  23.648  0.00  0.00    -0.281 N 
ATOM     16  C   UNL     1       0.205   0.853  24.584  0.00  0.00    +0.302 C 
ATOM     18  C   UNL     1       0.704  -0.641  22.676  0.00  0.00    +0.137 C 
ATOM     19  C   UNL     1       2.573   0.657  23.623  0.00  0.00    +0.137 C 
ATOM     20  C   UNL     1       1.259  -0.337  21.294  0.00  0.00    +0.179 C 
ATOM     21  C   UNL     1       3.057   0.881  22.195  0.00  0.00    +0.179 C 
ATOM     31  H   UNL     1       1.657   2.106  25.452  0.00  0.00    +0.150 HD
ENDBRANCH  14   7
ENDBRANCH  12  14
TORSDOF 7
ENDMDL
MODEL 4
REMARK VINA RESULT:       0.1      1.921      6.622
REMARK  Name = 75536754
REMARK  8 active torsions:
REMARK  status: ('A' for Active; 'I' for Inactive)
REMARK    1  A    between atoms: O_2  and  C_11
REMARK    2  A    between atoms: N_6  and  C_10
REMARK    3  A    between atoms: N_6  and  C_15
REMARK    4  A    between atoms: N_7  and  C_14
REMARK    5  A    between atoms: N_9  and  C_26
REMARK    6  A    between atoms: C_12  and  C_14
REMARK    7  A    between atoms: C_15  and  C_17
REMARK    8  A    between atoms: C_27  and  C_28
REMARK                            x       y       z     vdW  Elec       q    Type
REMARK                         _______ _______ _______ _____ _____    ______ ____
ROOT
ATOM      1  O   UNL     1      -1.342  -1.175  26.392  0.00  0.00    -0.371 OA
ATOM     10  C   UNL     1      -2.625  -2.837  25.284  0.00  0.00    +0.111 C 
ATOM     11  C   UNL     1      -1.599  -2.277  24.315  0.00  0.00    +0.164 C 
ATOM     12  C   UNL     1      -0.584  -1.678  25.279  0.00  0.00    +0.165 C 
ATOM     13  C   UNL     1      -2.658  -1.753  26.348  0.00  0.00    +0.181 C 
ENDROOT
BRANCH  11   2
ATOM      2  O   UNL     1      -1.022  -3.273  23.494  0.00  0.00    -0.388 OA
ATOM     30  H   UNL     1      -0.385  -3.777  24.027  0.00  0.00    +0.210 HD
ENDBRANCH  11   2
BRANCH  10   6
ATOM      6  N   UNL     1      -3.927  -3.076  24.680  0.00  0.00    -0.305 NA
ATOM     29  H   UNL     1      -4.655  -2.822  25.348  0.00  0.00    +0.123 HD
BRANCH   6  15
ATOM     15  C   UNL     1      -4.099  -2.283  23.470  0.00  0.00    +0.116 C 
BRANCH  15  17
ATOM     17  C   UNL     1      -4.306  -0.825  23.780  0.00  0.00    -0.033 A 
ATOM     22  C   UNL     1      -5.385  -0.427  24.569  0.00  0.00    +0.007 A 
ATOM     23  C   UNL     1      -3.420   0.129  23.279  0.00  0.00    +0.007 A 
ATOM     24  C   UNL     1      -5.578   0.925  24.857  0.00  0.00    +0.023 A 
ATOM     25  C   UNL     1      -3.612   1.480  23.567  0.00  0.00    +0.023 A 
ATOM     26  C   UNL     1      -4.691   1.878  24.356  0.00  0.00    +0.033 A 
BRANCH  26   9
ATOM      5  O   UNL     1      -6.400   3.207  26.449  0.00  0.00    -0.276 OA
ATOM      9  N   UNL     1      -4.884   3.230  24.643  0.00  0.00    -0.286 N 
ATOM     27  C   UNL     1      -5.697   3.796  25.634  0.00  0.00    +0.214 C 
ATOM     28  C   UNL     1      -5.629   5.303  25.619  0.00  0.00    +0.109 C 
ATOM     32  H   UNL     1      -4.364   3.878  24.054  0.00  0.00    +0.155 HD
ENDBRANCH  26   9
ENDBRANCH  15  17
ENDBRANCH   6  15
ENDBRANCH  10   6
BRANCH  12  14
ATOM     14  C   UNL     1       0.236  -0.556  24.667  0.00  0.00    +0.140 C 
BRANCH  14   7
ATOM      3  O   UNL     1      -1.820   5.458  25.557  0.00  0.00    -0.377 OA
ATOM      4  O   UNL     1       1.013   1.918  23.576  0.00  0.00    -0.253 OA
ATOM      7  N   UNL     1      -0.238   0.740  25.095  0.00  0.00    -0.297 N 
ATOM      8  N   UNL     1      -0.352   3.100  25.031  0.00  0.00    -0.281 N 
ATOM     16  C   UNL     1       0.196   1.921  24.502  0.00  0.00    +0.302 C 
ATOM     18  C   UNL     1       0.055   4.391  24.470  0.00  0.00    +0.137 C 
ATOM     19  C   UNL     1      -1.208   3.202  26.222  0.00  0.00    +0.137 C 
ATOM     20  C   UNL     1      -1.139   5.317  24.309  0.00  0.00    +0.179 C 
ATOM     21  C   UNL     1      -2.336   4.201  25.996  0.00  0.00    +0.179 C 
ATOM     31  H   UNL     1      -0.893   0.742  25.864  0.00  0.00    +0.150 HD
ENDBRANCH  14   7
ENDBRANCH  12  14
TORSDOF 7
ENDMDL
MODEL 5
REMARK VINA RESULT:       0.1      2.054      5.410
REMARK  Name = 75536754
REMARK  8 active torsions:
REMARK  status: ('A' for Active; 'I' for Inactive)
REMARK    1  A    between atoms: O_2  and  C_11
REMARK    2  A    between atoms: N_6  and  C_10
REMARK    3  A    between atoms: N_6  and  C_15
REMARK    4  A    between atoms: N_7  and  C_14
REMARK    5  A    between atoms: N_9  and  C_26
REMARK    6  A    between atoms: C_12  and  C_14
REMARK    7  A    between atoms: C_15  and  C_17
REMARK    8  A    between atoms: C_27  and  C_28
REMARK                            x       y       z     vdW  Elec       q    Type
REMARK                         _______ _______ _______ _____ _____    ______ ____
ROOT
ATOM      1  O   UNL     1      -2.641  -3.300  23.546  0.00  0.00    -0.371 OA
ATOM     10  C   UNL     1      -1.316  -2.584  25.381  0.00  0.00    +0.111 C 
ATOM     11  C   UNL     1      -2.624  -1.814  25.386  0.00  0.00    +0.164 C 
ATOM     12  C   UNL     1      -3.504  -2.727  24.542  0.00  0.00    +0.165 C 
ATOM     13  C   UNL     1      -1.276  -3.103  23.953  0.00  0.00    +0.181 C 
ENDROOT
BRANCH  11   2
ATOM      2  O   UNL     1      -3.147  -1.633  26.686  0.00  0.00    -0.388 OA
ATOM     30  H   UNL     1      -3.085  -0.690  26.912  0.00  0.00    +0.210 HD
ENDBRANCH  11   2
BRANCH  10   6
ATOM      6  N   UNL     1      -0.159  -1.770  25.721  0.00  0.00    -0.305 NA
ATOM     29  H   UNL     1       0.567  -2.371  26.111  0.00  0.00    +0.123 HD
BRANCH   6  15
ATOM     15  C   UNL     1       0.371  -1.094  24.543  0.00  0.00    +0.116 C 
BRANCH  15  17
ATOM     17  C   UNL     1       0.057   0.378  24.553  0.00  0.00    -0.033 A 
ATOM     22  C   UNL     1      -0.515   0.961  25.684  0.00  0.00    +0.007 A 
ATOM     23  C   UNL     1       0.338   1.160  23.433  0.00  0.00    +0.007 A 
ATOM     24  C   UNL     1      -0.806   2.326  25.695  0.00  0.00    +0.023 A 
ATOM     25  C   UNL     1       0.048   2.524  23.443  0.00  0.00    +0.023 A 
ATOM     26  C   UNL     1      -0.525   3.107  24.574  0.00  0.00    +0.033 A 
BRANCH  26   9
ATOM      5  O   UNL     1      -2.458   4.681  26.263  0.00  0.00    -0.276 OA
ATOM      9  N   UNL     1      -0.816   4.471  24.583  0.00  0.00    -0.286 N 
ATOM     27  C   UNL     1      -1.732   5.154  25.395  0.00  0.00    +0.214 C 
ATOM     28  C   UNL     1      -1.750   6.632  25.095  0.00  0.00    +0.109 C 
ATOM     32  H   UNL     1      -0.293   5.032  23.914  0.00  0.00    +0.155 HD
ENDBRANCH  26   9
ENDBRANCH  15  17
ENDBRANCH   6  15
ENDBRANCH  10   6
BRANCH  12  14
ATOM     14  C   UNL     1      -4.654  -2.000  23.869  0.00  0.00    +0.140 C 
BRANCH  14   7
ATOM      3  O   UNL     1      -5.235   4.264  25.137  0.00  0.00    -0.377 OA
ATOM      4  O   UNL     1      -3.371   0.289  22.855  0.00  0.00    -0.253 OA
ATOM      7  N   UNL     1      -4.801  -0.656  24.379  0.00  0.00    -0.297 N 
ATOM      8  N   UNL     1      -4.371   1.668  24.430  0.00  0.00    -0.281 N 
ATOM     16  C   UNL     1      -4.130   0.426  23.820  0.00  0.00    +0.302 C 
ATOM     18  C   UNL     1      -3.699   2.861  23.910  0.00  0.00    +0.137 C 
ATOM     19  C   UNL     1      -5.134   1.894  25.666  0.00  0.00    +0.137 C 
ATOM     20  C   UNL     1      -4.653   4.043  23.851  0.00  0.00    +0.179 C 
ATOM     21  C   UNL     1      -6.010   3.135  25.543  0.00  0.00    +0.179 C 
ATOM     31  H   UNL     1      -5.408  -0.549  25.179  0.00  0.00    +0.150 HD
ENDBRANCH  14   7
ENDBRANCH  12  14
TORSDOF 7
ENDMDL
MODEL 6
REMARK VINA RESULT:       0.1      2.306      5.776
REMARK  Name = 75536754
REMARK  8 active torsions:
REMARK  status: ('A' for Active; 'I' for Inactive)
REMARK    1  A    between atoms: O_2  and  C_11
REMARK    2  A    between atoms: N_6  and  C_10
REMARK    3  A    between atoms: N_6  and  C_15
REMARK    4  A    between atoms: N_7  and  C_14
REMARK    5  A    between atoms: N_9  and  C_26
REMARK    6  A    between atoms: C_12  and  C_14
REMARK    7  A    between atoms: C_15  and  C_17
REMARK    8  A    between atoms: C_27  and  C_28
REMARK                            x       y       z     vdW  Elec       q    Type
REMARK                         _______ _______ _______ _____ _____    ______ ____
ROOT
ATOM      1  O   UNL     1       0.004   3.360  23.568  0.00  0.00    -0.371 OA
ATOM     10  C   UNL     1      -1.123   3.740  25.623  0.00  0.00    +0.111 C 
ATOM     11  C   UNL     1      -1.058   2.246  25.364  0.00  0.00    +0.164 C 
ATOM     12  C   UNL     1       0.094   2.171  24.370  0.00  0.00    +0.165 C 
ATOM     13  C   UNL     1      -0.857   4.299  24.235  0.00  0.00    +0.181 C 
ENDROOT
BRANCH  11   2
ATOM      2  O   UNL     1      -0.793   1.499  26.535  0.00  0.00    -0.388 OA
ATOM     30  H   UNL     1      -0.648   0.573  26.280  0.00  0.00    +0.210 HD
ENDBRANCH  11   2
BRANCH  10   6
ATOM      6  N   UNL     1      -2.393   4.181  26.177  0.00  0.00    -0.305 NA
ATOM     29  H   UNL     1      -2.313   5.160  26.453  0.00  0.00    +0.123 HD
BRANCH   6  15
ATOM     15  C   UNL     1      -3.466   4.052  25.199  0.00  0.00    +0.116 C 
BRANCH  15  17
ATOM     17  C   UNL     1      -3.726   2.614  24.838  0.00  0.00    -0.033 A 
ATOM     22  C   UNL     1      -4.338   1.764  25.759  0.00  0.00    +0.007 A 
ATOM     23  C   UNL     1      -3.355   2.131  23.583  0.00  0.00    +0.007 A 
ATOM     24  C   UNL     1      -4.579   0.431  25.425  0.00  0.00    +0.023 A 
ATOM     25  C   UNL     1      -3.595   0.798  23.249  0.00  0.00    +0.023 A 
ATOM     26  C   UNL     1      -4.207  -0.052  24.170  0.00  0.00    +0.033 A 
BRANCH  26   9
ATOM      5  O   UNL     1      -2.660  -2.545  24.849  0.00  0.00    -0.276 OA
ATOM      9  N   UNL     1      -4.447  -1.385  23.836  0.00  0.00    -0.286 N 
ATOM     27  C   UNL     1      -3.688  -2.512  24.180  0.00  0.00    +0.214 C 
ATOM     28  C   UNL     1      -4.287  -3.779  23.622  0.00  0.00    +0.109 C 
ATOM     32  H   UNL     1      -5.279  -1.549  23.273  0.00  0.00    +0.155 HD
ENDBRANCH  26   9
ENDBRANCH  15  17
ENDBRANCH   6  15
ENDBRANCH  10   6
BRANCH  12  14
ATOM     14  C   UNL     1       0.040   0.943  23.478  0.00  0.00    +0.140 C 
BRANCH  14   7
ATOM      3  O   UNL     1       6.059  -1.256  23.806  0.00  0.00    -0.377 OA
ATOM      4  O   UNL     1       2.547   2.147  23.055  0.00  0.00    -0.253 OA
ATOM      7  N   UNL     1       1.310   0.255  23.448  0.00  0.00    -0.297 N 
ATOM      8  N   UNL     1       3.659   0.118  23.225  0.00  0.00    -0.281 N 
ATOM     16  C   UNL     1       2.510   0.925  23.232  0.00  0.00    +0.302 C 
ATOM     18  C   UNL     1       4.966   0.740  22.997  0.00  0.00    +0.137 C 
ATOM     19  C   UNL     1       3.690  -1.350  23.276  0.00  0.00    +0.137 C 
ATOM     20  C   UNL     1       6.014   0.166  23.937  0.00  0.00    +0.179 C 
ATOM     21  C   UNL     1       4.812  -1.839  24.185  0.00  0.00    +0.179 C 
ATOM     31  H   UNL     1       1.276  -0.746  23.575  0.00  0.00    +0.150 HD
ENDBRANCH  14   7
ENDBRANCH  12  14
TORSDOF 7
ENDMDL
MODEL 7
REMARK VINA RESULT:       0.3      2.023      3.037
REMARK  Name = 75536754
REMARK  8 active torsions:
REMARK  status: ('A' for Active; 'I' for Inactive)
REMARK    1  A    between atoms: O_2  and  C_11
REMARK    2  A    between atoms: N_6  and  C_10
REMARK    3  A    between atoms: N_6  and  C_15
REMARK    4  A    between atoms: N_7  and  C_14
REMARK    5  A    between atoms: N_9  and  C_26
REMARK    6  A    between atoms: C_12  and  C_14
REMARK    7  A    between atoms: C_15  and  C_17
REMARK    8  A    between atoms: C_27  and  C_28
REMARK                            x       y       z     vdW  Elec       q    Type
REMARK                         _______ _______ _______ _____ _____    ______ ____
ROOT
ATOM      1  O   UNL     1      -4.313   3.789  26.139  0.00  0.00    -0.371 OA
ATOM     10  C   UNL     1      -2.563   3.882  24.538  0.00  0.00    +0.111 C 
ATOM     11  C   UNL     1      -3.642   2.942  24.035  0.00  0.00    +0.164 C 
ATOM     12  C   UNL     1      -4.838   3.403  24.858  0.00  0.00    +0.165 C 
ATOM     13  C   UNL     1      -2.890   3.952  26.021  0.00  0.00    +0.181 C 
ENDROOT
BRANCH  11   2
ATOM      2  O   UNL     1      -3.877   3.071  22.647  0.00  0.00    -0.388 OA
ATOM     30  H   UNL     1      -4.523   3.783  22.511  0.00  0.00    +0.210 HD
ENDBRANCH  11   2
BRANCH  10   6
ATOM      6  N   UNL     1      -1.212   3.411  24.278  0.00  0.00    -0.305 NA
ATOM     29  H   UNL     1      -0.604   3.706  25.042  0.00  0.00    +0.123 HD
BRANCH   6  15
ATOM     15  C   UNL     1      -1.173   1.958  24.178  0.00  0.00    +0.116 C 
BRANCH  15  17
ATOM     17  C   UNL     1       0.194   1.459  23.794  0.00  0.00    -0.033 A 
ATOM     22  C   UNL     1       0.374   0.121  23.442  0.00  0.00    +0.007 A 
ATOM     23  C   UNL     1       1.282   2.332  23.790  0.00  0.00    +0.007 A 
ATOM     24  C   UNL     1       1.642  -0.343  23.087  0.00  0.00    +0.023 A 
ATOM     25  C   UNL     1       2.548   1.869  23.434  0.00  0.00    +0.023 A 
ATOM     26  C   UNL     1       2.728   0.532  23.082  0.00  0.00    +0.033 A 
BRANCH  26   9
ATOM      5  O   UNL     1       5.326   0.588  24.605  0.00  0.00    -0.276 OA
ATOM      9  N   UNL     1       3.996   0.069  22.728  0.00  0.00    -0.286 N 
ATOM     27  C   UNL     1       5.178   0.122  23.480  0.00  0.00    +0.214 C 
ATOM     28  C   UNL     1       6.339  -0.490  22.738  0.00  0.00    +0.109 C 
ATOM     32  H   UNL     1       4.060  -0.360  21.807  0.00  0.00    +0.155 HD
ENDBRANCH  26   9
ENDBRANCH  15  17
ENDBRANCH   6  15
ENDBRANCH  10   6
BRANCH  12  14
ATOM     14  C   UNL     1      -5.894   2.327  25.039  0.00  0.00    +0.140 C 
BRANCH  14   7
ATOM      3  O   UNL     1      -3.589  -3.594  24.138  0.00  0.00    -0.377 OA
ATOM      4  O   UNL     1      -3.760   0.903  26.193  0.00  0.00    -0.253 OA
ATOM      7  N   UNL     1      -5.412   1.035  24.608  0.00  0.00    -0.297 N 
ATOM      8  N   UNL     1      -3.992  -0.853  24.696  0.00  0.00    -0.281 N 
ATOM     16  C   UNL     1      -4.348   0.395  25.233  0.00  0.00    +0.302 C 
ATOM     18  C   UNL     1      -2.877  -1.594  25.290  0.00  0.00    +0.137 C 
ATOM     19  C   UNL     1      -4.535  -1.457  23.470  0.00  0.00    +0.137 C 
ATOM     20  C   UNL     1      -3.208  -3.073  25.412  0.00  0.00    +0.179 C 
ATOM     21  C   UNL     1      -4.772  -2.951  23.661  0.00  0.00    +0.179 C 
ATOM     31  H   UNL     1      -5.883   0.628  23.812  0.00  0.00    +0.150 HD
ENDBRANCH  14   7
ENDBRANCH  12  14
TORSDOF 7
ENDMDL
