MODEL 1
REMARK VINA RESULT:      -2.5      0.000      0.000
REMARK  Name = 45360850
REMARK  9 active torsions:
REMARK  status: ('A' for Active; 'I' for Inactive)
REMARK    1  A    between atoms: N_4  and  C_15
REMARK    2  A    between atoms: N_5  and  C_17
REMARK    3  A    between atoms: N_7  and  C_26
REMARK    4  A    between atoms: C_12  and  C_16
REMARK    5  A    between atoms: C_15  and  C_19
REMARK    6  A    between atoms: C_16  and  C_18
REMARK    7  A    between atoms: C_18  and  C_20
REMARK    8  A    between atoms: C_25  and  C_27
REMARK    9  A    between atoms: C_26  and  C_28
REMARK                            x       y       z     vdW  Elec       q    Type
REMARK                         _______ _______ _______ _____ _____    ______ ____
ROOT
ATOM      1  O   UNL     1      -0.447   1.981  24.454  0.00  0.00    -0.274 OA
ATOM      4  N   UNL     1       0.262  -0.549  23.827  0.00  0.00    -0.286 NA
ATOM      5  N   UNL     1      -3.039  -0.737  25.392  0.00  0.00    -0.296 NA
ATOM      6  N   UNL     1      -2.655   1.710  23.915  0.00  0.00    -0.312 N 
ATOM      8  C   UNL     1      -1.963  -1.237  24.508  0.00  0.00    +0.084 C 
ATOM      9  C   UNL     1      -1.163  -0.206  23.660  0.00  0.00    +0.161 C 
ATOM     10  C   UNL     1      -0.839  -1.981  25.253  0.00  0.00    +0.036 C 
ATOM     11  C   UNL     1       0.320  -1.934  24.279  0.00  0.00    +0.087 C 
ATOM     12  C   UNL     1      -4.175  -0.091  24.676  0.00  0.00    +0.074 C 
ATOM     13  C   UNL     1      -1.359   1.253  24.063  0.00  0.00    +0.232 C 
ATOM     14  C   UNL     1      -3.764   0.860  23.534  0.00  0.00    +0.123 C 
ATOM     17  C   UNL     1      -3.535  -1.810  26.271  0.00  0.00    +0.105 C 
ATOM     32  H   UNL     1      -2.848   2.681  24.144  0.00  0.00    +0.149 HD
ENDROOT
BRANCH   4  15
ATOM     15  C   UNL     1       1.053  -0.332  22.621  0.00  0.00    +0.120 C 
BRANCH  15  19
ATOM     19  C   UNL     1       2.524  -0.236  22.926  0.00  0.00    -0.033 A 
ATOM     21  C   UNL     1       3.222   0.936  22.633  0.00  0.00    +0.005 A 
ATOM     22  C   UNL     1       3.190  -1.320  23.498  0.00  0.00    +0.005 A 
ATOM     23  C   UNL     1       4.586   1.023  22.913  0.00  0.00    +0.003 A 
ATOM     24  C   UNL     1       4.554  -1.232  23.777  0.00  0.00    +0.003 A 
ATOM     25  C   UNL     1       5.252  -0.060  23.484  0.00  0.00    -0.050 A 
ATOM     27  C   UNL     1       6.710   0.034  23.783  0.00  0.00    +0.044 C 
ENDBRANCH  15  19
ENDBRANCH   4  15
BRANCH  12  16
ATOM     16  C   UNL     1      -5.045   0.716  25.661  0.00  0.00    +0.029 C 
BRANCH  16  18
ATOM     18  C   UNL     1      -5.771   1.838  24.943  0.00  0.00    +0.097 C 
BRANCH  18  20
ATOM      2  O   UNL     1      -6.141   4.164  25.505  0.00  0.00    -0.276 OA
ATOM      7  N   UNL     1      -4.078   3.205  25.968  0.00  0.00    -0.308 N 
ATOM     20  C   UNL     1      -5.382   3.199  25.492  0.00  0.00    +0.213 C 
ATOM     33  H   UNL     1      -3.531   2.350  25.915  0.00  0.00    +0.149 HD
BRANCH   7  26
ATOM     26  C   UNL     1      -3.472   4.384  26.541  0.00  0.00    +0.178 C 
BRANCH  26  28
ATOM      3  O   UNL     1      -1.190   3.990  25.790  0.00  0.00    -0.466 OA
ATOM     28  C   UNL     1      -2.261   4.826  25.763  0.00  0.00    +0.122 A 
ATOM     29  C   UNL     1      -1.989   5.936  24.998  0.00  0.00    +0.046 A 
ATOM     30  C   UNL     1      -0.666   5.772  24.525  0.00  0.00    +0.041 A 
ATOM     31  C   UNL     1      -0.223   4.574  25.034  0.00  0.00    +0.195 A 
ENDBRANCH  26  28
ENDBRANCH   7  26
ENDBRANCH  18  20
ENDBRANCH  16  18
ENDBRANCH  12  16
TORSDOF 7
ENDMDL
MODEL 2
REMARK VINA RESULT:      -2.0      2.195      2.945
REMARK  Name = 45360850
REMARK  9 active torsions:
REMARK  status: ('A' for Active; 'I' for Inactive)
REMARK    1  A    between atoms: N_4  and  C_15
REMARK    2  A    between atoms: N_5  and  C_17
REMARK    3  A    between atoms: N_7  and  C_26
REMARK    4  A    between atoms: C_12  and  C_16
REMARK    5  A    between atoms: C_15  and  C_19
REMARK    6  A    between atoms: C_16  and  C_18
REMARK    7  A    between atoms: C_18  and  C_20
REMARK    8  A    between atoms: C_25  and  C_27
REMARK    9  A    between atoms: C_26  and  C_28
REMARK                            x       y       z     vdW  Elec       q    Type
REMARK                         _______ _______ _______ _____ _____    ______ ____
ROOT
ATOM      1  O   UNL     1       0.573   2.322  23.905  0.00  0.00    -0.274 OA
ATOM      4  N   UNL     1       0.220  -0.346  23.688  0.00  0.00    -0.286 NA
ATOM      5  N   UNL     1      -2.941   1.039  24.899  0.00  0.00    -0.296 NA
ATOM      6  N   UNL     1      -1.526   2.862  23.170  0.00  0.00    -0.312 N 
ATOM      8  C   UNL     1      -2.122   0.020  24.209  0.00  0.00    +0.084 C 
ATOM      9  C   UNL     1      -0.932   0.499  23.326  0.00  0.00    +0.161 C 
ATOM     10  C   UNL     1      -1.433  -0.977  25.159  0.00  0.00    +0.036 C 
ATOM     11  C   UNL     1      -0.311  -1.550  24.318  0.00  0.00    +0.087 C 
ATOM     12  C   UNL     1      -3.681   1.957  23.988  0.00  0.00    +0.074 C 
ATOM     13  C   UNL     1      -0.537   1.961  23.514  0.00  0.00    +0.232 C 
ATOM     14  C   UNL     1      -2.866   2.470  22.784  0.00  0.00    +0.123 C 
ATOM     17  C   UNL     1      -3.871   0.407  25.850  0.00  0.00    +0.105 C 
ATOM     32  H   UNL     1      -1.318   3.854  23.250  0.00  0.00    +0.149 HD
ENDROOT
BRANCH   4  15
ATOM     15  C   UNL     1       1.087  -0.657  22.557  0.00  0.00    +0.120 C 
BRANCH  15  19
ATOM     19  C   UNL     1       2.538  -0.431  22.885  0.00  0.00    -0.033 A 
ATOM     21  C   UNL     1       3.259  -1.410  23.569  0.00  0.00    +0.005 A 
ATOM     22  C   UNL     1       3.162   0.758  22.506  0.00  0.00    +0.005 A 
ATOM     23  C   UNL     1       4.604  -1.199  23.875  0.00  0.00    +0.003 A 
ATOM     24  C   UNL     1       4.507   0.969  22.812  0.00  0.00    +0.003 A 
ATOM     25  C   UNL     1       5.228  -0.010  23.497  0.00  0.00    -0.050 A 
ATOM     27  C   UNL     1       6.665   0.215  23.824  0.00  0.00    +0.044 C 
ENDBRANCH  15  19
ENDBRANCH   4  15
BRANCH  12  16
ATOM     16  C   UNL     1      -4.193   3.190  24.762  0.00  0.00    +0.029 C 
BRANCH  16  18
ATOM     18  C   UNL     1      -3.500   3.305  26.106  0.00  0.00    +0.097 C 
BRANCH  18  20
ATOM      2  O   UNL     1      -1.707   4.774  25.406  0.00  0.00    -0.276 OA
ATOM      7  N   UNL     1      -1.184   2.798  26.507  0.00  0.00    -0.308 N 
ATOM     20  C   UNL     1      -2.051   3.730  25.955  0.00  0.00    +0.213 C 
ATOM     33  H   UNL     1      -1.570   1.965  26.944  0.00  0.00    +0.149 HD
BRANCH   7  26
ATOM     26  C   UNL     1       0.249   2.973  26.490  0.00  0.00    +0.178 C 
BRANCH  26  28
ATOM      3  O   UNL     1       2.196   2.962  27.952  0.00  0.00    -0.466 OA
ATOM     28  C   UNL     1       0.857   2.750  27.849  0.00  0.00    +0.122 A 
ATOM     29  C   UNL     1       0.335   2.365  29.062  0.00  0.00    +0.046 A 
ATOM     30  C   UNL     1       1.421   2.337  29.967  0.00  0.00    +0.041 A 
ATOM     31  C   UNL     1       2.531   2.707  29.244  0.00  0.00    +0.195 A 
ENDBRANCH  26  28
ENDBRANCH   7  26
ENDBRANCH  18  20
ENDBRANCH  16  18
ENDBRANCH  12  16
TORSDOF 7
ENDMDL
MODEL 3
REMARK VINA RESULT:      -0.8      1.888      7.032
REMARK  Name = 45360850
REMARK  9 active torsions:
REMARK  status: ('A' for Active; 'I' for Inactive)
REMARK    1  A    between atoms: N_4  and  C_15
REMARK    2  A    between atoms: N_5  and  C_17
REMARK    3  A    between atoms: N_7  and  C_26
REMARK    4  A    between atoms: C_12  and  C_16
REMARK    5  A    between atoms: C_15  and  C_19
REMARK    6  A    between atoms: C_16  and  C_18
REMARK    7  A    between atoms: C_18  and  C_20
REMARK    8  A    between atoms: C_25  and  C_27
REMARK    9  A    between atoms: C_26  and  C_28
REMARK                            x       y       z     vdW  Elec       q    Type
REMARK                         _______ _______ _______ _____ _____    ______ ____
ROOT
ATOM      1  O   UNL     1      -2.998   1.981  22.639  0.00  0.00    -0.274 OA
ATOM      4  N   UNL     1      -4.838   1.147  24.432  0.00  0.00    -0.286 NA
ATOM      5  N   UNL     1      -2.155  -1.341  24.440  0.00  0.00    -0.296 NA
ATOM      6  N   UNL     1      -1.193   1.321  23.882  0.00  0.00    -0.312 N 
ATOM      8  C   UNL     1      -3.289  -0.615  25.054  0.00  0.00    +0.084 C 
ATOM      9  C   UNL     1      -3.425   0.912  24.784  0.00  0.00    +0.161 C 
ATOM     10  C   UNL     1      -4.672  -1.141  24.624  0.00  0.00    +0.036 C 
ATOM     11  C   UNL     1      -5.601   0.013  24.940  0.00  0.00    +0.087 C 
ATOM     12  C   UNL     1      -0.813  -0.899  24.913  0.00  0.00    +0.074 C 
ATOM     13  C   UNL     1      -2.550   1.448  23.654  0.00  0.00    +0.232 C 
ATOM     14  C   UNL     1      -0.636   0.628  25.026  0.00  0.00    +0.123 C 
ATOM     17  C   UNL     1      -2.305  -2.795  24.619  0.00  0.00    +0.105 C 
ATOM     32  H   UNL     1      -0.555   1.680  23.178  0.00  0.00    +0.149 HD
ENDROOT
BRANCH   4  15
ATOM     15  C   UNL     1      -5.352   2.419  24.925  0.00  0.00    +0.120 C 
BRANCH  15  19
ATOM     19  C   UNL     1      -4.283   3.478  24.967  0.00  0.00    -0.033 A 
ATOM     21  C   UNL     1      -4.113   4.341  23.885  0.00  0.00    +0.005 A 
ATOM     22  C   UNL     1      -3.461   3.594  26.088  0.00  0.00    +0.005 A 
ATOM     23  C   UNL     1      -3.120   5.320  23.924  0.00  0.00    +0.003 A 
ATOM     24  C   UNL     1      -2.468   4.573  26.126  0.00  0.00    +0.003 A 
ATOM     25  C   UNL     1      -2.298   5.436  25.044  0.00  0.00    -0.050 A 
ATOM     27  C   UNL     1      -1.236   6.483  25.084  0.00  0.00    +0.044 C 
ENDBRANCH  15  19
ENDBRANCH   4  15
BRANCH  12  16
ATOM     16  C   UNL     1       0.291  -1.426  23.972  0.00  0.00    +0.029 C 
BRANCH  16  18
ATOM     18  C   UNL     1       0.148  -0.825  22.586  0.00  0.00    +0.097 C 
BRANCH  18  20
ATOM      2  O   UNL     1       1.908  -0.518  20.953  0.00  0.00    -0.276 OA
ATOM      7  N   UNL     1       2.097   0.513  23.024  0.00  0.00    -0.308 N 
ATOM     20  C   UNL     1       1.468  -0.278  22.074  0.00  0.00    +0.213 C 
ATOM     33  H   UNL     1       1.646   0.654  23.925  0.00  0.00    +0.149 HD
BRANCH   7  26
ATOM     26  C   UNL     1       3.369   1.149  22.778  0.00  0.00    +0.178 C 
BRANCH  26  28
ATOM      3  O   UNL     1       4.250  -0.969  23.593  0.00  0.00    -0.466 OA
ATOM     28  C   UNL     1       4.517   0.334  23.311  0.00  0.00    +0.122 A 
ATOM     29  C   UNL     1       5.832   0.628  23.588  0.00  0.00    +0.046 A 
ATOM     30  C   UNL     1       6.409  -0.570  24.071  0.00  0.00    +0.041 A 
ATOM     31  C   UNL     1       5.407  -1.511  24.055  0.00  0.00    +0.195 A 
ENDBRANCH  26  28
ENDBRANCH   7  26
ENDBRANCH  18  20
ENDBRANCH  16  18
ENDBRANCH  12  16
TORSDOF 7
ENDMDL
