MODEL 1
REMARK VINA RESULT:      -6.2      0.000      0.000
REMARK  Name = 40778244
REMARK  9 active torsions:
REMARK  status: ('A' for Active; 'I' for Inactive)
REMARK    1  A    between atoms: O_2  and  C_9
REMARK    2  A    between atoms: O_3  and  C_10
REMARK    3  A    between atoms: N_6  and  C_14
REMARK    4  A    between atoms: N_7  and  C_17
REMARK    5  A    between atoms: C_11  and  C_13
REMARK    6  A    between atoms: C_12  and  C_14
REMARK    7  A    between atoms: C_13  and  C_15
REMARK    8  A    between atoms: C_16  and  C_18
REMARK    9  A    between atoms: C_17  and  C_19
REMARK                            x       y       z     vdW  Elec       q    Type
REMARK                         _______ _______ _______ _____ _____    ______ ____
ROOT
ATOM      1  O   UNL     1      -2.510   3.087  26.083  0.00  0.00    -0.366 OA
ATOM      9  C   UNL     1      -0.998   3.502  24.321  0.00  0.00    +0.175 C 
ATOM     10  C   UNL     1      -1.988   4.647  24.364  0.00  0.00    +0.176 C 
ATOM     11  C   UNL     1      -1.123   2.938  25.726  0.00  0.00    +0.158 C 
ATOM     12  C   UNL     1      -3.118   4.057  25.201  0.00  0.00    +0.167 C 
ENDROOT
BRANCH   9   2
ATOM      2  O   UNL     1       0.320   3.913  24.031  0.00  0.00    -0.387 OA
ATOM     29  H   UNL     1       0.820   3.902  24.864  0.00  0.00    +0.210 HD
ENDBRANCH   9   2
BRANCH  10   3
ATOM      3  O   UNL     1      -1.437   5.752  25.079  0.00  0.00    -0.387 OA
ATOM     30  H   UNL     1      -1.097   5.411  25.923  0.00  0.00    +0.210 HD
ENDBRANCH  10   3
BRANCH  11  13
ATOM     13  C   UNL     1      -0.724   1.475  25.827  0.00  0.00    +0.130 C 
BRANCH  13  15
ATOM      4  O   UNL     1      -1.213   0.345  23.745  0.00  0.00    -0.276 OA
ATOM      7  N   UNL     1       0.973   0.991  24.198  0.00  0.00    -0.311 N 
ATOM     15  C   UNL     1      -0.380   0.872  24.478  0.00  0.00    +0.216 C 
ATOM     32  H   UNL     1       1.573   1.456  24.874  0.00  0.00    +0.149 HD
BRANCH   7  17
ATOM     17  C   UNL     1       1.573   0.499  22.979  0.00  0.00    +0.141 C 
BRANCH  17  19
ATOM      8  N   UNL     1       4.592  -1.622  23.811  0.00  0.00    -0.263 NA
ATOM     19  C   UNL     1       3.003   0.089  23.182  0.00  0.00    -0.012 A 
ATOM     22  C   UNL     1       4.044   0.981  22.951  0.00  0.00    +0.008 A 
ATOM     23  C   UNL     1       3.327  -1.189  23.608  0.00  0.00    +0.115 A 
ATOM     27  C   UNL     1       5.358   0.574  23.151  0.00  0.00    +0.020 A 
ATOM     28  C   UNL     1       5.577  -0.727  23.577  0.00  0.00    +0.111 A 
ENDBRANCH  17  19
ENDBRANCH   7  17
ENDBRANCH  13  15
ENDBRANCH  11  13
BRANCH  12  14
ATOM     14  C   UNL     1      -4.166   3.336  24.364  0.00  0.00    +0.138 C 
BRANCH  14   6
ATOM      5  O   UNL     1      -5.545   1.282  25.823  0.00  0.00    -0.270 OA
ATOM      6  N   UNL     1      -3.906   1.927  24.312  0.00  0.00    -0.309 N 
ATOM     16  C   UNL     1      -4.628   0.998  25.058  0.00  0.00    +0.244 C 
ATOM     31  H   UNL     1      -3.122   1.631  23.742  0.00  0.00    +0.149 HD
BRANCH  16  18
ATOM     18  C   UNL     1      -4.217  -0.422  24.913  0.00  0.00    +0.037 A 
ATOM     20  C   UNL     1      -3.518  -1.056  25.940  0.00  0.00    +0.013 A 
ATOM     21  C   UNL     1      -4.532  -1.123  23.749  0.00  0.00    +0.013 A 
ATOM     24  C   UNL     1      -3.133  -2.390  25.803  0.00  0.00    +0.001 A 
ATOM     25  C   UNL     1      -4.148  -2.457  23.611  0.00  0.00    +0.001 A 
ATOM     26  C   UNL     1      -3.448  -3.090  24.639  0.00  0.00    +0.000 A 
ENDBRANCH  16  18
ENDBRANCH  14   6
ENDBRANCH  12  14
TORSDOF 9
ENDMDL
MODEL 2
REMARK VINA RESULT:      -5.8      2.001      6.818
REMARK  Name = 40778244
REMARK  9 active torsions:
REMARK  status: ('A' for Active; 'I' for Inactive)
REMARK    1  A    between atoms: O_2  and  C_9
REMARK    2  A    between atoms: O_3  and  C_10
REMARK    3  A    between atoms: N_6  and  C_14
REMARK    4  A    between atoms: N_7  and  C_17
REMARK    5  A    between atoms: C_11  and  C_13
REMARK    6  A    between atoms: C_12  and  C_14
REMARK    7  A    between atoms: C_13  and  C_15
REMARK    8  A    between atoms: C_16  and  C_18
REMARK    9  A    between atoms: C_17  and  C_19
REMARK                            x       y       z     vdW  Elec       q    Type
REMARK                         _______ _______ _______ _____ _____    ______ ____
ROOT
ATOM      1  O   UNL     1      -2.701   0.096  25.356  0.00  0.00    -0.366 OA
ATOM      9  C   UNL     1      -3.577  -1.508  23.867  0.00  0.00    +0.175 C 
ATOM     10  C   UNL     1      -2.171  -1.936  24.238  0.00  0.00    +0.176 C 
ATOM     11  C   UNL     1      -3.926  -0.578  25.016  0.00  0.00    +0.158 C 
ATOM     12  C   UNL     1      -1.589  -0.647  24.808  0.00  0.00    +0.167 C 
ENDROOT
BRANCH   9   2
ATOM      2  O   UNL     1      -4.481  -2.587  23.765  0.00  0.00    -0.387 OA
ATOM     29  H   UNL     1      -4.313  -3.029  22.915  0.00  0.00    +0.210 HD
ENDBRANCH   9   2
BRANCH  10   3
ATOM      3  O   UNL     1      -2.208  -2.906  25.284  0.00  0.00    -0.387 OA
ATOM     30  H   UNL     1      -1.506  -2.679  25.915  0.00  0.00    +0.210 HD
ENDBRANCH  10   3
BRANCH  11  13
ATOM     13  C   UNL     1      -4.991   0.445  24.661  0.00  0.00    +0.130 C 
BRANCH  13  15
ATOM      4  O   UNL     1      -4.060   2.366  23.525  0.00  0.00    -0.276 OA
ATOM      7  N   UNL     1      -4.418   2.469  25.819  0.00  0.00    -0.311 N 
ATOM     15  C   UNL     1      -4.439   1.855  24.576  0.00  0.00    +0.216 C 
ATOM     32  H   UNL     1      -4.766   1.955  26.624  0.00  0.00    +0.149 HD
BRANCH   7  17
ATOM     17  C   UNL     1      -3.937   3.816  26.025  0.00  0.00    +0.141 C 
BRANCH  17  19
ATOM      8  N   UNL     1      -0.253   3.025  25.711  0.00  0.00    -0.263 NA
ATOM     19  C   UNL     1      -2.484   3.955  25.673  0.00  0.00    -0.012 A 
ATOM     22  C   UNL     1      -2.010   5.083  25.013  0.00  0.00    +0.008 A 
ATOM     23  C   UNL     1      -1.573   2.963  25.997  0.00  0.00    +0.115 A 
ATOM     27  C   UNL     1      -0.659   5.184  24.703  0.00  0.00    +0.020 A 
ATOM     28  C   UNL     1       0.171   4.136  25.070  0.00  0.00    +0.111 A 
ENDBRANCH  17  19
ENDBRANCH   7  17
ENDBRANCH  13  15
ENDBRANCH  11  13
BRANCH  12  14
ATOM     14  C   UNL     1      -0.921   0.223  23.752  0.00  0.00    +0.138 C 
BRANCH  14   6
ATOM      5  O   UNL     1       0.959  -0.367  21.663  0.00  0.00    -0.270 OA
ATOM      6  N   UNL     1       0.506   0.180  23.872  0.00  0.00    -0.309 N 
ATOM     16  C   UNL     1       1.345  -0.116  22.801  0.00  0.00    +0.244 C 
ATOM     31  H   UNL     1       0.888   0.321  24.801  0.00  0.00    +0.149 HD
BRANCH  16  18
ATOM     18  C   UNL     1       2.801  -0.149  23.096  0.00  0.00    +0.037 A 
ATOM     20  C   UNL     1       3.378  -1.294  23.643  0.00  0.00    +0.013 A 
ATOM     21  C   UNL     1       3.591   0.968  22.824  0.00  0.00    +0.013 A 
ATOM     24  C   UNL     1       4.745  -1.324  23.920  0.00  0.00    +0.001 A 
ATOM     25  C   UNL     1       4.959   0.939  23.100  0.00  0.00    +0.001 A 
ATOM     26  C   UNL     1       5.535  -0.207  23.648  0.00  0.00    +0.000 A 
ENDBRANCH  16  18
ENDBRANCH  14   6
ENDBRANCH  12  14
TORSDOF 9
ENDMDL
MODEL 3
REMARK VINA RESULT:      -5.6      1.454      5.976
REMARK  Name = 40778244
REMARK  9 active torsions:
REMARK  status: ('A' for Active; 'I' for Inactive)
REMARK    1  A    between atoms: O_2  and  C_9
REMARK    2  A    between atoms: O_3  and  C_10
REMARK    3  A    between atoms: N_6  and  C_14
REMARK    4  A    between atoms: N_7  and  C_17
REMARK    5  A    between atoms: C_11  and  C_13
REMARK    6  A    between atoms: C_12  and  C_14
REMARK    7  A    between atoms: C_13  and  C_15
REMARK    8  A    between atoms: C_16  and  C_18
REMARK    9  A    between atoms: C_17  and  C_19
REMARK                            x       y       z     vdW  Elec       q    Type
REMARK                         _______ _______ _______ _____ _____    ______ ____
ROOT
ATOM      1  O   UNL     1      -2.331   3.171  23.226  0.00  0.00    -0.366 OA
ATOM      9  C   UNL     1      -2.588   3.515  25.544  0.00  0.00    +0.175 C 
ATOM     10  C   UNL     1      -1.111   3.612  25.220  0.00  0.00    +0.176 C 
ATOM     11  C   UNL     1      -3.216   3.776  24.186  0.00  0.00    +0.158 C 
ATOM     12  C   UNL     1      -1.045   2.951  23.847  0.00  0.00    +0.167 C 
ENDROOT
BRANCH   9   2
ATOM      2  O   UNL     1      -3.010   4.451  26.512  0.00  0.00    -0.387 OA
ATOM     29  H   UNL     1      -3.565   5.109  26.060  0.00  0.00    +0.210 HD
ENDBRANCH   9   2
BRANCH  10   3
ATOM      3  O   UNL     1      -0.724   4.977  25.074  0.00  0.00    -0.387 OA
ATOM     30  H   UNL     1      -1.108   5.300  24.241  0.00  0.00    +0.210 HD
ENDBRANCH  10   3
BRANCH  11  13
ATOM     13  C   UNL     1      -4.608   3.186  24.041  0.00  0.00    +0.130 C 
BRANCH  13  15
ATOM      4  O   UNL     1      -5.542   2.131  26.007  0.00  0.00    -0.276 OA
ATOM      7  N   UNL     1      -4.203   0.880  24.577  0.00  0.00    -0.311 N 
ATOM     15  C   UNL     1      -4.853   2.032  24.995  0.00  0.00    +0.216 C 
ATOM     32  H   UNL     1      -3.666   0.908  23.715  0.00  0.00    +0.149 HD
BRANCH   7  17
ATOM     17  C   UNL     1      -4.266  -0.368  25.302  0.00  0.00    +0.141 C 
BRANCH  17  19
ATOM      8  N   UNL     1      -0.666  -1.428  25.775  0.00  0.00    -0.263 NA
ATOM     19  C   UNL     1      -2.993  -1.155  25.177  0.00  0.00    -0.012 A 
ATOM     22  C   UNL     1      -2.930  -2.295  24.384  0.00  0.00    +0.008 A 
ATOM     23  C   UNL     1      -1.843  -0.767  25.846  0.00  0.00    +0.115 A 
ATOM     27  C   UNL     1      -1.736  -3.002  24.285  0.00  0.00    +0.020 A 
ATOM     28  C   UNL     1      -0.643  -2.531  24.995  0.00  0.00    +0.111 A 
ENDBRANCH  17  19
ENDBRANCH   7  17
ENDBRANCH  13  15
ENDBRANCH  11  13
BRANCH  12  14
ATOM     14  C   UNL     1      -0.813   1.448  23.920  0.00  0.00    +0.138 C 
BRANCH  14   6
ATOM      5  O   UNL     1       0.575  -0.329  22.142  0.00  0.00    -0.270 OA
ATOM      6  N   UNL     1       0.587   1.141  23.937  0.00  0.00    -0.309 N 
ATOM     16  C   UNL     1       1.178   0.263  23.032  0.00  0.00    +0.244 C 
ATOM     31  H   UNL     1       1.133   1.554  24.685  0.00  0.00    +0.149 HD
BRANCH  16  18
ATOM     18  C   UNL     1       2.636   0.030  23.200  0.00  0.00    +0.037 A 
ATOM     20  C   UNL     1       3.099  -1.203  23.661  0.00  0.00    +0.013 A 
ATOM     21  C   UNL     1       3.543   1.044  22.895  0.00  0.00    +0.013 A 
ATOM     24  C   UNL     1       4.467  -1.421  23.818  0.00  0.00    +0.001 A 
ATOM     25  C   UNL     1       4.912   0.827  23.051  0.00  0.00    +0.001 A 
ATOM     26  C   UNL     1       5.374  -0.406  23.513  0.00  0.00    +0.000 A 
ENDBRANCH  16  18
ENDBRANCH  14   6
ENDBRANCH  12  14
TORSDOF 9
ENDMDL
MODEL 4
REMARK VINA RESULT:      -4.1      1.728      4.844
REMARK  Name = 40778244
REMARK  9 active torsions:
REMARK  status: ('A' for Active; 'I' for Inactive)
REMARK    1  A    between atoms: O_2  and  C_9
REMARK    2  A    between atoms: O_3  and  C_10
REMARK    3  A    between atoms: N_6  and  C_14
REMARK    4  A    between atoms: N_7  and  C_17
REMARK    5  A    between atoms: C_11  and  C_13
REMARK    6  A    between atoms: C_12  and  C_14
REMARK    7  A    between atoms: C_13  and  C_15
REMARK    8  A    between atoms: C_16  and  C_18
REMARK    9  A    between atoms: C_17  and  C_19
REMARK                            x       y       z     vdW  Elec       q    Type
REMARK                         _______ _______ _______ _____ _____    ______ ____
ROOT
ATOM      1  O   UNL     1      -2.589  -0.828  23.689  0.00  0.00    -0.366 OA
ATOM      9  C   UNL     1      -3.290  -2.311  25.384  0.00  0.00    +0.175 C 
ATOM     10  C   UNL     1      -4.429  -2.160  24.397  0.00  0.00    +0.176 C 
ATOM     11  C   UNL     1      -2.100  -1.878  24.544  0.00  0.00    +0.158 C 
ATOM     12  C   UNL     1      -4.033  -0.893  23.647  0.00  0.00    +0.167 C 
ENDROOT
BRANCH   9   2
ATOM      2  O   UNL     1      -3.143  -3.628  25.871  0.00  0.00    -0.387 OA
ATOM     29  H   UNL     1      -3.209  -3.589  26.840  0.00  0.00    +0.210 HD
ENDBRANCH   9   2
BRANCH  10   3
ATOM      3  O   UNL     1      -4.428  -3.243  23.468  0.00  0.00    -0.387 OA
ATOM     30  H   UNL     1      -3.757  -3.046  22.793  0.00  0.00    +0.210 HD
ENDBRANCH  10   3
BRANCH  11  13
ATOM     13  C   UNL     1      -0.935  -1.363  25.371  0.00  0.00    +0.130 C 
BRANCH  13  15
ATOM      4  O   UNL     1      -0.108   0.887  25.047  0.00  0.00    -0.276 OA
ATOM      7  N   UNL     1       0.492  -0.770  23.532  0.00  0.00    -0.311 N 
ATOM     15  C   UNL     1      -0.150  -0.277  24.658  0.00  0.00    +0.216 C 
ATOM     32  H   UNL     1       0.397  -1.757  23.308  0.00  0.00    +0.149 HD
BRANCH   7  17
ATOM     17  C   UNL     1       1.308   0.051  22.667  0.00  0.00    +0.141 C 
BRANCH  17  19
ATOM      8  N   UNL     1       4.601  -1.384  23.850  0.00  0.00    -0.263 NA
ATOM     19  C   UNL     1       2.767  -0.053  23.006  0.00  0.00    -0.012 A 
ATOM     22  C   UNL     1       3.627   1.022  22.814  0.00  0.00    +0.008 A 
ATOM     23  C   UNL     1       3.299  -1.224  23.523  0.00  0.00    +0.115 A 
ATOM     27  C   UNL     1       4.973   0.897  23.140  0.00  0.00    +0.020 A 
ATOM     28  C   UNL     1       5.406  -0.317  23.650  0.00  0.00    +0.111 A 
ENDBRANCH  17  19
ENDBRANCH   7  17
ENDBRANCH  13  15
ENDBRANCH  11  13
BRANCH  12  14
ATOM     14  C   UNL     1      -4.575   0.375  24.292  0.00  0.00    +0.138 C 
BRANCH  14   6
ATOM      5  O   UNL     1      -4.752   2.895  25.657  0.00  0.00    -0.270 OA
ATOM      6  N   UNL     1      -3.587   1.413  24.305  0.00  0.00    -0.309 N 
ATOM     16  C   UNL     1      -3.757   2.609  24.998  0.00  0.00    +0.244 C 
ATOM     31  H   UNL     1      -2.763   1.263  23.733  0.00  0.00    +0.149 HD
BRANCH  16  18
ATOM     18  C   UNL     1      -2.650   3.594  24.890  0.00  0.00    +0.037 A 
ATOM     20  C   UNL     1      -2.805   4.879  25.410  0.00  0.00    +0.013 A 
ATOM     21  C   UNL     1      -1.455   3.233  24.270  0.00  0.00    +0.013 A 
ATOM     24  C   UNL     1      -1.765   5.804  25.308  0.00  0.00    +0.001 A 
ATOM     25  C   UNL     1      -0.414   4.157  24.167  0.00  0.00    +0.001 A 
ATOM     26  C   UNL     1      -0.570   5.442  24.687  0.00  0.00    +0.000 A 
ENDBRANCH  16  18
ENDBRANCH  14   6
ENDBRANCH  12  14
TORSDOF 9
ENDMDL
MODEL 5
REMARK VINA RESULT:      -3.7      1.752      4.586
REMARK  Name = 40778244
REMARK  9 active torsions:
REMARK  status: ('A' for Active; 'I' for Inactive)
REMARK    1  A    between atoms: O_2  and  C_9
REMARK    2  A    between atoms: O_3  and  C_10
REMARK    3  A    between atoms: N_6  and  C_14
REMARK    4  A    between atoms: N_7  and  C_17
REMARK    5  A    between atoms: C_11  and  C_13
REMARK    6  A    between atoms: C_12  and  C_14
REMARK    7  A    between atoms: C_13  and  C_15
REMARK    8  A    between atoms: C_16  and  C_18
REMARK    9  A    between atoms: C_17  and  C_19
REMARK                            x       y       z     vdW  Elec       q    Type
REMARK                         _______ _______ _______ _____ _____    ______ ____
ROOT
ATOM      1  O   UNL     1      -1.782  -1.231  23.999  0.00  0.00    -0.366 OA
ATOM      9  C   UNL     1      -2.949  -1.126  26.045  0.00  0.00    +0.175 C 
ATOM     10  C   UNL     1      -3.704  -2.065  25.126  0.00  0.00    +0.176 C 
ATOM     11  C   UNL     1      -1.566  -1.133  25.419  0.00  0.00    +0.158 C 
ATOM     12  C   UNL     1      -3.127  -1.703  23.762  0.00  0.00    +0.167 C 
ENDROOT
BRANCH   9   2
ATOM      2  O   UNL     1      -2.926  -1.558  27.388  0.00  0.00    -0.387 OA
ATOM     29  H   UNL     1      -2.227  -2.229  27.467  0.00  0.00    +0.210 HD
ENDBRANCH   9   2
BRANCH  10   3
ATOM      3  O   UNL     1      -3.358  -3.420  25.408  0.00  0.00    -0.387 OA
ATOM     30  H   UNL     1      -2.785  -3.730  24.687  0.00  0.00    +0.210 HD
ENDBRANCH  10   3
BRANCH  11  13
ATOM     13  C   UNL     1      -0.757   0.115  25.728  0.00  0.00    +0.130 C 
BRANCH  13  15
ATOM      4  O   UNL     1       0.232   1.759  24.256  0.00  0.00    -0.276 OA
ATOM      7  N   UNL     1       0.620  -0.497  23.858  0.00  0.00    -0.311 N 
ATOM     15  C   UNL     1       0.076   0.576  24.547  0.00  0.00    +0.216 C 
ATOM     32  H   UNL     1       0.434  -1.438  24.194  0.00  0.00    +0.149 HD
BRANCH   7  17
ATOM     17  C   UNL     1       1.456  -0.343  22.690  0.00  0.00    +0.141 C 
BRANCH  17  19
ATOM      8  N   UNL     1       4.871  -1.377  23.942  0.00  0.00    -0.263 NA
ATOM     19  C   UNL     1       2.913  -0.277  23.046  0.00  0.00    -0.012 A 
ATOM     22  C   UNL     1       3.652   0.881  22.835  0.00  0.00    +0.008 A 
ATOM     23  C   UNL     1       3.564  -1.369  23.598  0.00  0.00    +0.115 A 
ATOM     27  C   UNL     1       4.999   0.912  23.177  0.00  0.00    +0.020 A 
ATOM     28  C   UNL     1       5.556  -0.234  23.723  0.00  0.00    +0.111 A 
ENDBRANCH  17  19
ENDBRANCH   7  17
ENDBRANCH  13  15
ENDBRANCH  11  13
BRANCH  12  14
ATOM     14  C   UNL     1      -3.897  -0.588  23.066  0.00  0.00    +0.138 C 
BRANCH  14   6
ATOM      5  O   UNL     1      -2.484   1.817  22.386  0.00  0.00    -0.270 OA
ATOM      6  N   UNL     1      -3.855   0.624  23.828  0.00  0.00    -0.309 N 
ATOM     16  C   UNL     1      -3.140   1.748  23.421  0.00  0.00    +0.244 C 
ATOM     31  H   UNL     1      -4.330   0.614  24.724  0.00  0.00    +0.149 HD
BRANCH  16  18
ATOM     18  C   UNL     1      -3.175   2.917  24.338  0.00  0.00    +0.037 A 
ATOM     20  C   UNL     1      -4.382   3.325  24.905  0.00  0.00    +0.013 A 
ATOM     21  C   UNL     1      -1.999   3.606  24.632  0.00  0.00    +0.013 A 
ATOM     24  C   UNL     1      -4.413   4.423  25.765  0.00  0.00    +0.001 A 
ATOM     25  C   UNL     1      -2.029   4.704  25.492  0.00  0.00    +0.001 A 
ATOM     26  C   UNL     1      -3.237   5.112  26.059  0.00  0.00    +0.000 A 
ENDBRANCH  16  18
ENDBRANCH  14   6
ENDBRANCH  12  14
TORSDOF 9
ENDMDL
MODEL 6
REMARK VINA RESULT:      -3.0      1.969      5.744
REMARK  Name = 40778244
REMARK  9 active torsions:
REMARK  status: ('A' for Active; 'I' for Inactive)
REMARK    1  A    between atoms: O_2  and  C_9
REMARK    2  A    between atoms: O_3  and  C_10
REMARK    3  A    between atoms: N_6  and  C_14
REMARK    4  A    between atoms: N_7  and  C_17
REMARK    5  A    between atoms: C_11  and  C_13
REMARK    6  A    between atoms: C_12  and  C_14
REMARK    7  A    between atoms: C_13  and  C_15
REMARK    8  A    between atoms: C_16  and  C_18
REMARK    9  A    between atoms: C_17  and  C_19
REMARK                            x       y       z     vdW  Elec       q    Type
REMARK                         _______ _______ _______ _____ _____    ______ ____
ROOT
ATOM      1  O   UNL     1      -4.054   3.392  23.865  0.00  0.00    -0.366 OA
ATOM      9  C   UNL     1      -3.096   3.551  26.014  0.00  0.00    +0.175 C 
ATOM     10  C   UNL     1      -1.981   3.678  24.996  0.00  0.00    +0.176 C 
ATOM     11  C   UNL     1      -4.312   3.916  25.180  0.00  0.00    +0.158 C 
ATOM     12  C   UNL     1      -2.639   3.128  23.735  0.00  0.00    +0.167 C 
ENDROOT
BRANCH   9   2
ATOM      2  O   UNL     1      -2.939   4.406  27.125  0.00  0.00    -0.387 OA
ATOM     29  H   UNL     1      -2.403   3.933  27.784  0.00  0.00    +0.210 HD
ENDBRANCH   9   2
BRANCH  10   3
ATOM      3  O   UNL     1      -1.670   5.053  24.771  0.00  0.00    -0.387 OA
ATOM     30  H   UNL     1      -0.919   5.279  25.345  0.00  0.00    +0.210 HD
ENDBRANCH  10   3
BRANCH  11  13
ATOM     13  C   UNL     1      -5.608   3.333  25.717  0.00  0.00    +0.130 C 
BRANCH  13  15
ATOM      4  O   UNL     1      -6.967   1.810  24.420  0.00  0.00    -0.276 OA
ATOM      7  N   UNL     1      -4.986   1.041  25.362  0.00  0.00    -0.311 N 
ATOM     15  C   UNL     1      -5.952   1.997  25.086  0.00  0.00    +0.216 C 
ATOM     32  H   UNL     1      -4.178   1.309  25.917  0.00  0.00    +0.149 HD
BRANCH   7  17
ATOM     17  C   UNL     1      -5.065  -0.320  24.883  0.00  0.00    +0.141 C 
BRANCH  17  19
ATOM      8  N   UNL     1      -2.218  -2.683  24.099  0.00  0.00    -0.263 NA
ATOM     19  C   UNL     1      -3.744  -1.027  24.980  0.00  0.00    -0.012 A 
ATOM     22  C   UNL     1      -2.838  -0.719  25.990  0.00  0.00    +0.008 A 
ATOM     23  C   UNL     1      -3.389  -2.008  24.069  0.00  0.00    +0.115 A 
ATOM     27  C   UNL     1      -1.623  -1.393  26.055  0.00  0.00    +0.020 A 
ATOM     28  C   UNL     1      -1.363  -2.357  25.094  0.00  0.00    +0.111 A 
ENDBRANCH  17  19
ENDBRANCH   7  17
ENDBRANCH  13  15
ENDBRANCH  11  13
BRANCH  12  14
ATOM     14  C   UNL     1      -2.456   1.625  23.575  0.00  0.00    +0.138 C 
BRANCH  14   6
ATOM      5  O   UNL     1      -0.099   1.095  25.126  0.00  0.00    -0.270 OA
ATOM      6  N   UNL     1      -1.152   1.313  23.070  0.00  0.00    -0.309 N 
ATOM     16  C   UNL     1      -0.060   1.069  23.899  0.00  0.00    +0.244 C 
ATOM     31  H   UNL     1      -1.039   1.332  22.062  0.00  0.00    +0.149 HD
BRANCH  16  18
ATOM     18  C   UNL     1       1.231   0.786  23.219  0.00  0.00    +0.037 A 
ATOM     20  C   UNL     1       2.382   1.482  23.588  0.00  0.00    +0.013 A 
ATOM     21  C   UNL     1       1.291  -0.177  22.213  0.00  0.00    +0.013 A 
ATOM     24  C   UNL     1       3.593   1.216  22.949  0.00  0.00    +0.001 A 
ATOM     25  C   UNL     1       2.502  -0.444  21.574  0.00  0.00    +0.001 A 
ATOM     26  C   UNL     1       3.653   0.252  21.942  0.00  0.00    +0.000 A 
ENDBRANCH  16  18
ENDBRANCH  14   6
ENDBRANCH  12  14
TORSDOF 9
ENDMDL
