MODEL 1
REMARK VINA RESULT:      -0.1      0.000      0.000
REMARK  Name = 51136651
REMARK  12 active torsions:
REMARK  status: ('A' for Active; 'I' for Inactive)
REMARK    1  A    between atoms: O_2  and  C_18
REMARK    2  A    between atoms: O_4  and  C_29
REMARK    3  A    between atoms: O_4  and  C_30
REMARK    4  A    between atoms: C_7  and  C_12
REMARK    5  A    between atoms: C_8  and  C_13
REMARK    6  A    between atoms: C_12  and  C_15
REMARK    7  A    between atoms: C_13  and  C_18
REMARK    8  A    between atoms: C_14  and  C_16
REMARK    9  A    between atoms: C_16  and  C_17
REMARK   10  A    between atoms: C_17  and  C_21
REMARK   11  A    between atoms: C_17  and  C_22
REMARK   12  A    between atoms: C_17  and  C_23
REMARK                            x       y       z     vdW  Elec       q    Type
REMARK                         _______ _______ _______ _____ _____    ______ ____
ROOT
ATOM      1  O   UNL     1      -1.833  -2.987  23.942  0.00  0.00    -0.276 OA
ATOM      5  N   UNL     1      -0.465  -1.274  24.712  0.00  0.00    -0.301 N 
ATOM      7  C   UNL     1       0.417   1.045  24.576  0.00  0.00    +0.016 C 
ATOM      8  C   UNL     1       1.718   0.474  23.956  0.00  0.00    +0.006 C 
ATOM      9  C   UNL     1      -0.255  -0.025  25.455  0.00  0.00    +0.112 C 
ATOM     10  C   UNL     1       1.462  -0.858  23.232  0.00  0.00    +0.023 C 
ATOM     11  C   UNL     1       0.750  -1.856  24.141  0.00  0.00    +0.108 C 
ATOM     14  C   UNL     1      -1.689  -1.924  24.550  0.00  0.00    +0.216 C 
ENDROOT
BRANCH   7  12
ATOM     12  C   UNL     1      -0.578   1.590  23.545  0.00  0.00    +0.061 C 
BRANCH  12  15
ATOM      6  N   UNL     1      -0.245   3.941  23.902  0.00  0.00    -0.287 NA
ATOM     15  C   UNL     1      -1.071   2.950  23.976  0.00  0.00    +0.044 C 
ATOM     19  C   UNL     1      -2.467   3.083  24.468  0.00  0.00    -0.001 A 
ATOM     20  C   UNL     1      -2.768   4.233  25.208  0.00  0.00    -0.033 A 
ATOM     24  C   UNL     1      -0.742   5.273  24.263  0.00  0.00    +0.146 C 
ATOM     25  C   UNL     1      -1.678   5.231  25.465  0.00  0.00    +0.059 C 
ATOM     26  C   UNL     1      -3.446   2.115  24.232  0.00  0.00    +0.013 A 
ATOM     27  C   UNL     1      -4.052   4.398  25.734  0.00  0.00    +0.050 A 
ATOM     28  C   UNL     1      -4.729   2.298  24.747  0.00  0.00    +0.046 A 
ATOM     29  C   UNL     1      -5.032   3.433  25.499  0.00  0.00    +0.120 A 
BRANCH  29   4
ATOM      4  O   UNL     1      -6.285   3.600  26.005  0.00  0.00    -0.495 OA
ATOM     30  C   UNL     1      -6.906   2.455  26.589  0.00  0.00    +0.277 C 
ENDBRANCH  29   4
ENDBRANCH  12  15
ENDBRANCH   7  12
BRANCH   8  13
ATOM     13  C   UNL     1       2.426   1.463  23.031  0.00  0.00    +0.124 C 
BRANCH  13  18
ATOM      3  O   UNL     1       4.757   0.875  23.432  0.00  0.00    -0.251 OA
ATOM     18  C   UNL     1       3.809   0.994  22.672  0.00  0.00    +0.305 C 
BRANCH  18   2
ATOM      2  O   UNL     1       3.866   0.709  21.345  0.00  0.00    -0.481 OA
ATOM     31  H   UNL     1       4.341  -0.131  21.171  0.00  0.00    +0.295 HD
ENDBRANCH  18   2
ENDBRANCH  13  18
ENDBRANCH   8  13
BRANCH  14  16
ATOM     16  C   UNL     1      -2.893  -1.258  25.166  0.00  0.00    +0.102 C 
BRANCH  16  17
ATOM     17  C   UNL     1      -4.099  -1.201  24.211  0.00  0.00    -0.029 C 
ATOM     21  C   UNL     1      -5.262  -0.408  24.831  0.00  0.00    +0.011 C 
ATOM     22  C   UNL     1      -4.582  -2.614  23.842  0.00  0.00    +0.011 C 
ATOM     23  C   UNL     1      -3.648  -0.485  22.924  0.00  0.00    +0.011 C 
ENDBRANCH  16  17
ENDBRANCH  14  16
TORSDOF 8
ENDMDL
MODEL 2
REMARK VINA RESULT:       0.6      1.721      4.722
REMARK  Name = 51136651
REMARK  12 active torsions:
REMARK  status: ('A' for Active; 'I' for Inactive)
REMARK    1  A    between atoms: O_2  and  C_18
REMARK    2  A    between atoms: O_4  and  C_29
REMARK    3  A    between atoms: O_4  and  C_30
REMARK    4  A    between atoms: C_7  and  C_12
REMARK    5  A    between atoms: C_8  and  C_13
REMARK    6  A    between atoms: C_12  and  C_15
REMARK    7  A    between atoms: C_13  and  C_18
REMARK    8  A    between atoms: C_14  and  C_16
REMARK    9  A    between atoms: C_16  and  C_17
REMARK   10  A    between atoms: C_17  and  C_21
REMARK   11  A    between atoms: C_17  and  C_22
REMARK   12  A    between atoms: C_17  and  C_23
REMARK                            x       y       z     vdW  Elec       q    Type
REMARK                         _______ _______ _______ _____ _____    ______ ____
ROOT
ATOM      1  O   UNL     1       0.250   4.041  25.692  0.00  0.00    -0.276 OA
ATOM      5  N   UNL     1       0.134   2.448  24.005  0.00  0.00    -0.301 N 
ATOM      7  C   UNL     1       0.042   0.088  23.232  0.00  0.00    +0.016 C 
ATOM      8  C   UNL     1       1.534   0.200  22.831  0.00  0.00    +0.006 C 
ATOM      9  C   UNL     1      -0.615   1.480  23.193  0.00  0.00    +0.112 C 
ATOM     10  C   UNL     1       2.268   1.260  23.671  0.00  0.00    +0.023 C 
ATOM     11  C   UNL     1       1.540   2.601  23.631  0.00  0.00    +0.108 C 
ATOM     14  C   UNL     1      -0.396   3.215  25.042  0.00  0.00    +0.216 C 
ENDROOT
BRANCH   7  12
ATOM     12  C   UNL     1      -0.190  -0.572  24.596  0.00  0.00    +0.061 C 
BRANCH  12  15
ATOM      6  N   UNL     1      -1.404  -2.635  24.400  0.00  0.00    -0.287 NA
ATOM     15  C   UNL     1      -1.479  -1.357  24.574  0.00  0.00    +0.044 C 
ATOM     19  C   UNL     1      -2.763  -0.628  24.744  0.00  0.00    -0.001 A 
ATOM     20  C   UNL     1      -3.926  -1.297  24.340  0.00  0.00    -0.033 A 
ATOM     24  C   UNL     1      -2.652  -3.405  24.440  0.00  0.00    +0.146 C 
ATOM     25  C   UNL     1      -3.801  -2.673  23.757  0.00  0.00    +0.059 C 
ATOM     26  C   UNL     1      -2.834   0.665  25.265  0.00  0.00    +0.013 A 
ATOM     27  C   UNL     1      -5.161  -0.651  24.435  0.00  0.00    +0.050 A 
ATOM     28  C   UNL     1      -4.074   1.295  25.372  0.00  0.00    +0.046 A 
ATOM     29  C   UNL     1      -5.235   0.642  24.956  0.00  0.00    +0.120 A 
BRANCH  29   4
ATOM      4  O   UNL     1      -6.440   1.267  25.056  0.00  0.00    -0.495 OA
ATOM     30  C   UNL     1      -6.479   2.487  25.795  0.00  0.00    +0.277 C 
ENDBRANCH  29   4
ENDBRANCH  12  15
ENDBRANCH   7  12
BRANCH   8  13
ATOM     13  C   UNL     1       2.273  -1.137  22.887  0.00  0.00    +0.124 C 
BRANCH  13  18
ATOM      3  O   UNL     1       4.473  -0.088  22.831  0.00  0.00    -0.251 OA
ATOM     18  C   UNL     1       3.722  -0.956  23.249  0.00  0.00    +0.305 C 
BRANCH  18   2
ATOM      2  O   UNL     1       4.097  -1.917  24.132  0.00  0.00    -0.481 OA
ATOM     31  H   UNL     1       4.955  -1.708  24.558  0.00  0.00    +0.295 HD
ENDBRANCH  18   2
ENDBRANCH  13  18
ENDBRANCH   8  13
BRANCH  14  16
ATOM     16  C   UNL     1      -1.852   2.997  25.368  0.00  0.00    +0.102 C 
BRANCH  16  17
ATOM     17  C   UNL     1      -2.689   4.284  25.260  0.00  0.00    -0.029 C 
ATOM     21  C   UNL     1      -3.699   4.195  24.103  0.00  0.00    +0.011 C 
ATOM     22  C   UNL     1      -1.790   5.516  25.061  0.00  0.00    +0.011 C 
ATOM     23  C   UNL     1      -3.467   4.452  26.579  0.00  0.00    +0.011 C 
ENDBRANCH  16  17
ENDBRANCH  14  16
TORSDOF 8
ENDMDL
MODEL 3
REMARK VINA RESULT:       0.8      1.706      6.730
REMARK  Name = 51136651
REMARK  12 active torsions:
REMARK  status: ('A' for Active; 'I' for Inactive)
REMARK    1  A    between atoms: O_2  and  C_18
REMARK    2  A    between atoms: O_4  and  C_29
REMARK    3  A    between atoms: O_4  and  C_30
REMARK    4  A    between atoms: C_7  and  C_12
REMARK    5  A    between atoms: C_8  and  C_13
REMARK    6  A    between atoms: C_12  and  C_15
REMARK    7  A    between atoms: C_13  and  C_18
REMARK    8  A    between atoms: C_14  and  C_16
REMARK    9  A    between atoms: C_16  and  C_17
REMARK   10  A    between atoms: C_17  and  C_21
REMARK   11  A    between atoms: C_17  and  C_22
REMARK   12  A    between atoms: C_17  and  C_23
REMARK                            x       y       z     vdW  Elec       q    Type
REMARK                         _______ _______ _______ _____ _____    ______ ____
ROOT
ATOM      1  O   UNL     1      -5.578   4.065  24.675  0.00  0.00    -0.276 OA
ATOM      5  N   UNL     1      -4.843   2.003  25.452  0.00  0.00    -0.301 N 
ATOM      7  C   UNL     1      -3.421  -0.026  25.253  0.00  0.00    +0.016 C 
ATOM      8  C   UNL     1      -4.670  -0.809  24.775  0.00  0.00    +0.006 C 
ATOM      9  C   UNL     1      -3.854   1.159  26.136  0.00  0.00    +0.112 C 
ATOM     10  C   UNL     1      -5.700   0.120  24.111  0.00  0.00    +0.023 C 
ATOM     11  C   UNL     1      -6.049   1.299  25.016  0.00  0.00    +0.108 C 
ATOM     14  C   UNL     1      -4.720   3.374  25.230  0.00  0.00    +0.216 C 
ENDROOT
BRANCH   7  12
ATOM     12  C   UNL     1      -2.516   0.461  24.115  0.00  0.00    +0.061 C 
BRANCH  12  15
ATOM      6  N   UNL     1      -1.286   1.675  25.781  0.00  0.00    -0.287 NA
ATOM     15  C   UNL     1      -1.225   1.001  24.681  0.00  0.00    +0.044 C 
ATOM     19  C   UNL     1       0.041   0.741  23.949  0.00  0.00    -0.001 A 
ATOM     20  C   UNL     1       1.134   1.557  24.269  0.00  0.00    -0.033 A 
ATOM     24  C   UNL     1      -0.024   2.148  26.363  0.00  0.00    +0.146 C 
ATOM     25  C   UNL     1       0.954   2.631  25.300  0.00  0.00    +0.059 C 
ATOM     26  C   UNL     1       0.160  -0.252  22.974  0.00  0.00    +0.013 A 
ATOM     27  C   UNL     1       2.342   1.391  23.587  0.00  0.00    +0.050 A 
ATOM     28  C   UNL     1       1.375  -0.421  22.311  0.00  0.00    +0.046 A 
ATOM     29  C   UNL     1       2.463   0.399  22.612  0.00  0.00    +0.120 A 
BRANCH  29   4
ATOM      4  O   UNL     1       3.643   0.233  21.955  0.00  0.00    -0.495 OA
ATOM     30  C   UNL     1       4.838   0.355  22.727  0.00  0.00    +0.277 C 
ENDBRANCH  29   4
ENDBRANCH  12  15
ENDBRANCH   7  12
BRANCH   8  13
ATOM     13  C   UNL     1      -4.328  -1.980  23.854  0.00  0.00    +0.124 C 
BRANCH  13  18
ATOM      3  O   UNL     1      -2.074  -2.907  23.826  0.00  0.00    -0.251 OA
ATOM     18  C   UNL     1      -3.158  -2.771  24.372  0.00  0.00    +0.305 C 
BRANCH  18   2
ATOM      2  O   UNL     1      -3.478  -3.331  25.567  0.00  0.00    -0.481 OA
ATOM     31  H   UNL     1      -3.735  -2.657  26.231  0.00  0.00    +0.295 HD
ENDBRANCH  18   2
ENDBRANCH  13  18
ENDBRANCH   8  13
BRANCH  14  16
ATOM     16  C   UNL     1      -3.446   4.024  25.707  0.00  0.00    +0.102 C 
BRANCH  16  17
ATOM     17  C   UNL     1      -2.640   4.670  24.565  0.00  0.00    -0.029 C 
ATOM     21  C   UNL     1      -1.314   5.253  25.082  0.00  0.00    +0.011 C 
ATOM     22  C   UNL     1      -3.451   5.778  23.871  0.00  0.00    +0.011 C 
ATOM     23  C   UNL     1      -2.324   3.572  23.532  0.00  0.00    +0.011 C 
ENDBRANCH  16  17
ENDBRANCH  14  16
TORSDOF 8
ENDMDL
MODEL 4
REMARK VINA RESULT:       1.3      1.662      5.353
REMARK  Name = 51136651
REMARK  12 active torsions:
REMARK  status: ('A' for Active; 'I' for Inactive)
REMARK    1  A    between atoms: O_2  and  C_18
REMARK    2  A    between atoms: O_4  and  C_29
REMARK    3  A    between atoms: O_4  and  C_30
REMARK    4  A    between atoms: C_7  and  C_12
REMARK    5  A    between atoms: C_8  and  C_13
REMARK    6  A    between atoms: C_12  and  C_15
REMARK    7  A    between atoms: C_13  and  C_18
REMARK    8  A    between atoms: C_14  and  C_16
REMARK    9  A    between atoms: C_16  and  C_17
REMARK   10  A    between atoms: C_17  and  C_21
REMARK   11  A    between atoms: C_17  and  C_22
REMARK   12  A    between atoms: C_17  and  C_23
REMARK                            x       y       z     vdW  Elec       q    Type
REMARK                         _______ _______ _______ _____ _____    ______ ____
ROOT
ATOM      1  O   UNL     1      -2.858   5.042  26.539  0.00  0.00    -0.276 OA
ATOM      5  N   UNL     1      -2.064   3.603  24.898  0.00  0.00    -0.301 N 
ATOM      7  C   UNL     1      -0.894   1.526  24.193  0.00  0.00    +0.016 C 
ATOM      8  C   UNL     1       0.344   2.388  23.838  0.00  0.00    +0.006 C 
ATOM      9  C   UNL     1      -2.172   2.380  24.091  0.00  0.00    +0.112 C 
ATOM     10  C   UNL     1       0.389   3.681  24.670  0.00  0.00    +0.023 C 
ATOM     11  C   UNL     1      -0.922   4.455  24.565  0.00  0.00    +0.108 C 
ATOM     14  C   UNL     1      -2.958   3.996  25.893  0.00  0.00    +0.216 C 
ENDROOT
BRANCH   7  12
ATOM     12  C   UNL     1      -0.813   0.852  25.568  0.00  0.00    +0.061 C 
BRANCH  12  15
ATOM      6  N   UNL     1       0.046  -1.384  25.729  0.00  0.00    -0.287 NA
ATOM     15  C   UNL     1      -0.965  -0.642  25.417  0.00  0.00    +0.044 C 
ATOM     19  C   UNL     1      -2.254  -1.183  24.915  0.00  0.00    -0.001 A 
ATOM     20  C   UNL     1      -2.238  -2.496  24.425  0.00  0.00    -0.033 A 
ATOM     24  C   UNL     1      -0.122  -2.839  25.641  0.00  0.00    +0.146 C 
ATOM     25  C   UNL     1      -0.942  -3.250  24.425  0.00  0.00    +0.059 C 
ATOM     26  C   UNL     1      -3.434  -0.437  24.906  0.00  0.00    +0.013 A 
ATOM     27  C   UNL     1      -3.409  -3.050  23.900  0.00  0.00    +0.050 A 
ATOM     28  C   UNL     1      -4.601  -1.005  24.395  0.00  0.00    +0.046 A 
ATOM     29  C   UNL     1      -4.590  -2.306  23.890  0.00  0.00    +0.120 A 
BRANCH  29   4
ATOM      4  O   UNL     1      -5.731  -2.850  23.386  0.00  0.00    -0.495 OA
ATOM     30  C   UNL     1      -5.587  -3.991  22.541  0.00  0.00    +0.277 C 
ENDBRANCH  29   4
ENDBRANCH  12  15
ENDBRANCH   7  12
BRANCH   8  13
ATOM     13  C   UNL     1       1.661   1.623  23.958  0.00  0.00    +0.124 C 
BRANCH  13  18
ATOM      3  O   UNL     1       0.928  -0.237  22.565  0.00  0.00    -0.251 OA
ATOM     18  C   UNL     1       1.787   0.564  22.898  0.00  0.00    +0.305 C 
BRANCH  18   2
ATOM      2  O   UNL     1       3.024   0.618  22.341  0.00  0.00    -0.481 OA
ATOM     31  H   UNL     1       3.034   1.155  21.520  0.00  0.00    +0.295 HD
ENDBRANCH  18   2
ENDBRANCH  13  18
ENDBRANCH   8  13
BRANCH  14  16
ATOM     16  C   UNL     1      -4.106   3.061  26.177  0.00  0.00    +0.102 C 
BRANCH  16  17
ATOM     17  C   UNL     1      -5.286   3.251  25.207  0.00  0.00    -0.029 C 
ATOM     21  C   UNL     1      -4.804   3.287  23.746  0.00  0.00    +0.011 C 
ATOM     22  C   UNL     1      -6.062   4.541  25.522  0.00  0.00    +0.011 C 
ATOM     23  C   UNL     1      -6.237   2.052  25.381  0.00  0.00    +0.011 C 
ENDBRANCH  16  17
ENDBRANCH  14  16
TORSDOF 8
ENDMDL
MODEL 5
REMARK VINA RESULT:       1.6      1.672      7.290
REMARK  Name = 51136651
REMARK  12 active torsions:
REMARK  status: ('A' for Active; 'I' for Inactive)
REMARK    1  A    between atoms: O_2  and  C_18
REMARK    2  A    between atoms: O_4  and  C_29
REMARK    3  A    between atoms: O_4  and  C_30
REMARK    4  A    between atoms: C_7  and  C_12
REMARK    5  A    between atoms: C_8  and  C_13
REMARK    6  A    between atoms: C_12  and  C_15
REMARK    7  A    between atoms: C_13  and  C_18
REMARK    8  A    between atoms: C_14  and  C_16
REMARK    9  A    between atoms: C_16  and  C_17
REMARK   10  A    between atoms: C_17  and  C_21
REMARK   11  A    between atoms: C_17  and  C_22
REMARK   12  A    between atoms: C_17  and  C_23
REMARK                            x       y       z     vdW  Elec       q    Type
REMARK                         _______ _______ _______ _____ _____    ______ ____
ROOT
ATOM      1  O   UNL     1      -4.182   4.582  24.651  0.00  0.00    -0.276 OA
ATOM      5  N   UNL     1      -4.067   2.381  25.384  0.00  0.00    -0.301 N 
ATOM      7  C   UNL     1      -3.146   0.076  25.242  0.00  0.00    +0.016 C 
ATOM      8  C   UNL     1      -4.464  -0.368  24.559  0.00  0.00    +0.006 C 
ATOM      9  C   UNL     1      -3.409   1.303  26.135  0.00  0.00    +0.112 C 
ATOM     10  C   UNL     1      -5.144   0.802  23.827  0.00  0.00    +0.023 C 
ATOM     11  C   UNL     1      -5.331   2.001  24.753  0.00  0.00    +0.108 C 
ATOM     14  C   UNL     1      -3.596   3.688  25.267  0.00  0.00    +0.216 C 
ENDROOT
BRANCH   7  12
ATOM     12  C   UNL     1      -2.002   0.366  24.263  0.00  0.00    +0.061 C 
BRANCH  12  15
ATOM      6  N   UNL     1      -1.277  -1.818  24.950  0.00  0.00    -0.287 NA
ATOM     15  C   UNL     1      -0.948  -0.709  24.373  0.00  0.00    +0.044 C 
ATOM     19  C   UNL     1       0.407  -0.442  23.825  0.00  0.00    -0.001 A 
ATOM     20  C   UNL     1       1.443  -1.270  24.274  0.00  0.00    -0.033 A 
ATOM     24  C   UNL     1      -0.271  -2.885  25.002  0.00  0.00    +0.146 C 
ATOM     25  C   UNL     1       1.127  -2.345  25.272  0.00  0.00    +0.059 C 
ATOM     26  C   UNL     1       0.665   0.587  22.917  0.00  0.00    +0.013 A 
ATOM     27  C   UNL     1       2.748  -1.046  23.827  0.00  0.00    +0.050 A 
ATOM     28  C   UNL     1       1.968   0.793  22.465  0.00  0.00    +0.046 A 
ATOM     29  C   UNL     1       3.008  -0.017  22.920  0.00  0.00    +0.120 A 
BRANCH  29   4
ATOM      4  O   UNL     1       4.279   0.195  22.480  0.00  0.00    -0.495 OA
ATOM     30  C   UNL     1       5.327   0.074  23.442  0.00  0.00    +0.277 C 
ENDBRANCH  29   4
ENDBRANCH  12  15
ENDBRANCH   7  12
BRANCH   8  13
ATOM     13  C   UNL     1      -4.280  -1.558  23.617  0.00  0.00    +0.124 C 
BRANCH  13  18
ATOM      3  O   UNL     1      -3.775  -3.926  23.894  0.00  0.00    -0.251 OA
ATOM     18  C   UNL     1      -3.918  -2.810  24.368  0.00  0.00    +0.305 C 
BRANCH  18   2
ATOM      2  O   UNL     1      -3.767  -2.525  25.687  0.00  0.00    -0.481 OA
ATOM     31  H   UNL     1      -3.761  -1.559  25.855  0.00  0.00    +0.295 HD
ENDBRANCH  18   2
ENDBRANCH  13  18
ENDBRANCH   8  13
BRANCH  14  16
ATOM     16  C   UNL     1      -2.285   3.997  25.944  0.00  0.00    +0.102 C 
BRANCH  16  17
ATOM     17  C   UNL     1      -1.081   3.891  24.991  0.00  0.00    -0.029 C 
ATOM     21  C   UNL     1      -1.489   3.266  23.646  0.00  0.00    +0.011 C 
ATOM     22  C   UNL     1       0.052   3.061  25.619  0.00  0.00    +0.011 C 
ATOM     23  C   UNL     1      -0.559   5.317  24.731  0.00  0.00    +0.011 C 
ENDBRANCH  16  17
ENDBRANCH  14  16
TORSDOF 8
ENDMDL
MODEL 6
REMARK VINA RESULT:       3.8      1.628      6.132
REMARK  Name = 51136651
REMARK  12 active torsions:
REMARK  status: ('A' for Active; 'I' for Inactive)
REMARK    1  A    between atoms: O_2  and  C_18
REMARK    2  A    between atoms: O_4  and  C_29
REMARK    3  A    between atoms: O_4  and  C_30
REMARK    4  A    between atoms: C_7  and  C_12
REMARK    5  A    between atoms: C_8  and  C_13
REMARK    6  A    between atoms: C_12  and  C_15
REMARK    7  A    between atoms: C_13  and  C_18
REMARK    8  A    between atoms: C_14  and  C_16
REMARK    9  A    between atoms: C_16  and  C_17
REMARK   10  A    between atoms: C_17  and  C_21
REMARK   11  A    between atoms: C_17  and  C_22
REMARK   12  A    between atoms: C_17  and  C_23
REMARK                            x       y       z     vdW  Elec       q    Type
REMARK                         _______ _______ _______ _____ _____    ______ ____
ROOT
ATOM      1  O   UNL     1      -3.690  -1.923  26.588  0.00  0.00    -0.276 OA
ATOM      5  N   UNL     1      -3.821  -0.297  24.934  0.00  0.00    -0.301 N 
ATOM      7  C   UNL     1      -3.663   2.064  24.174  0.00  0.00    +0.016 C 
ATOM      8  C   UNL     1      -5.211   2.124  24.159  0.00  0.00    +0.006 C 
ATOM      9  C   UNL     1      -3.195   0.612  23.965  0.00  0.00    +0.112 C 
ATOM     10  C   UNL     1      -5.825   1.121  25.151  0.00  0.00    +0.023 C 
ATOM     11  C   UNL     1      -5.284  -0.287  24.923  0.00  0.00    +0.108 C 
ATOM     14  C   UNL     1      -3.138  -1.149  25.801  0.00  0.00    +0.216 C 
ENDROOT
BRANCH   7  12
ATOM     12  C   UNL     1      -3.027   2.651  25.440  0.00  0.00    +0.061 C 
BRANCH  12  15
ATOM      6  N   UNL     1      -2.016   4.815  25.195  0.00  0.00    -0.287 NA
ATOM     15  C   UNL     1      -1.865   3.538  25.066  0.00  0.00    +0.044 C 
ATOM     19  C   UNL     1      -0.616   2.908  24.566  0.00  0.00    -0.001 A 
ATOM     20  C   UNL     1       0.277   3.738  23.876  0.00  0.00    -0.033 A 
ATOM     24  C   UNL     1      -0.865   5.673  24.890  0.00  0.00    +0.146 C 
ATOM     25  C   UNL     1      -0.086   5.180  23.678  0.00  0.00    +0.059 C 
ATOM     26  C   UNL     1      -0.328   1.554  24.747  0.00  0.00    +0.013 A 
ATOM     27  C   UNL     1       1.451   3.198  23.344  0.00  0.00    +0.050 A 
ATOM     28  C   UNL     1       0.854   1.028  24.227  0.00  0.00    +0.046 A 
ATOM     29  C   UNL     1       1.740   1.845  23.524  0.00  0.00    +0.120 A 
BRANCH  29   4
ATOM      4  O   UNL     1       2.889   1.322  23.013  0.00  0.00    -0.495 OA
ATOM     30  C   UNL     1       2.877  -0.066  22.679  0.00  0.00    +0.277 C 
ENDBRANCH  29   4
ENDBRANCH  12  15
ENDBRANCH   7  12
BRANCH   8  13
ATOM     13  C   UNL     1      -5.760   3.529  24.405  0.00  0.00    +0.124 C 
BRANCH  13  18
ATOM      3  O   UNL     1      -5.861   2.978  26.777  0.00  0.00    -0.251 OA
ATOM     18  C   UNL     1      -6.030   3.772  25.864  0.00  0.00    +0.305 C 
BRANCH  18   2
ATOM      2  O   UNL     1      -6.503   5.033  26.039  0.00  0.00    -0.481 OA
ATOM     31  H   UNL     1      -5.795   5.655  26.309  0.00  0.00    +0.295 HD
ENDBRANCH  18   2
ENDBRANCH  13  18
ENDBRANCH   8  13
BRANCH  14  16
ATOM     16  C   UNL     1      -1.632  -1.097  25.753  0.00  0.00    +0.102 C 
BRANCH  16  17
ATOM     17  C   UNL     1      -1.026  -2.160  24.819  0.00  0.00    -0.029 C 
ATOM     21  C   UNL     1      -2.071  -3.223  24.435  0.00  0.00    +0.011 C 
ATOM     22  C   UNL     1       0.185  -2.847  25.472  0.00  0.00    +0.011 C 
ATOM     23  C   UNL     1      -0.556  -1.449  23.537  0.00  0.00    +0.011 C 
ENDBRANCH  16  17
ENDBRANCH  14  16
TORSDOF 8
ENDMDL
