MODEL 1
REMARK VINA RESULT:      -3.3      0.000      0.000
REMARK  Name = 25338308
REMARK  6 active torsions:
REMARK  status: ('A' for Active; 'I' for Inactive)
REMARK    1  A    between atoms: S_1  and  N_6
REMARK    2  A    between atoms: S_1  and  C_17
REMARK    3  A    between atoms: N_5  and  C_16
REMARK    4  A    between atoms: N_6  and  C_11
REMARK    5  A    between atoms: C_12  and  C_15
REMARK    6  A    between atoms: C_18  and  C_21
REMARK                            x       y       z     vdW  Elec       q    Type
REMARK                         _______ _______ _______ _____ _____    ______ ____
ROOT
ATOM      5  N   UNL     1      -2.427  -1.500  24.846  0.00  0.00    -0.293 NA
ATOM     11  C   UNL     1      -4.273  -0.130  24.453  0.00  0.00    +0.092 C 
ATOM     12  C   UNL     1      -2.118  -0.846  23.561  0.00  0.00    +0.147 C 
ATOM     13  C   UNL     1      -3.236   0.201  23.383  0.00  0.00    +0.050 C 
ATOM     14  C   UNL     1      -3.890  -1.516  24.946  0.00  0.00    +0.105 C 
ATOM     16  C   UNL     1      -1.860  -2.838  24.962  0.00  0.00    +0.105 C 
ENDROOT
BRANCH  12  15
ATOM      2  O   UNL     1      -0.674   1.124  23.508  0.00  0.00    -0.336 OA
ATOM      7  N   UNL     1       0.433  -0.823  23.465  0.00  0.00    -0.189 NA
ATOM      8  N   UNL     1       0.687   1.451  23.456  0.00  0.00    -0.054 NA
ATOM     15  C   UNL     1      -0.735  -0.233  23.510  0.00  0.00    +0.245 A 
ATOM     18  C   UNL     1       1.274   0.251  23.434  0.00  0.00    +0.222 A 
BRANCH  18  21
ATOM      9  N   UNL     1       3.417   1.170  23.012  0.00  0.00    -0.249 NA
ATOM     10  N   UNL     1       4.633  -1.277  23.646  0.00  0.00    -0.260 NA
ATOM     21  C   UNL     1       2.699   0.090  23.381  0.00  0.00    +0.129 A 
ATOM     25  C   UNL     1       3.297  -1.111  23.692  0.00  0.00    +0.142 A 
ATOM     26  C   UNL     1       4.754   1.005  22.966  0.00  0.00    +0.131 A 
ATOM     27  C   UNL     1       5.351  -0.197  23.277  0.00  0.00    +0.130 A 
ENDBRANCH  18  21
ENDBRANCH  12  15
BRANCH  11   6
ATOM      6  N   UNL     1      -4.181   0.849  25.565  0.00  0.00    -0.186 NA
ATOM     28  H   UNL     1      -4.071   0.476  26.516  0.00  0.00    +0.148 HD
BRANCH   6   1
ATOM      1  S   UNL     1      -4.656   2.459  25.314  0.00  0.00    +0.059 S 
ATOM      3  O   UNL     1      -5.403   2.928  26.465  0.00  0.00    -0.153 OA
ATOM      4  O   UNL     1      -5.218   2.575  23.982  0.00  0.00    -0.153 OA
BRANCH   1  17
ATOM     17  C   UNL     1      -3.101   3.300  25.293  0.00  0.00    +0.105 A 
ATOM     19  C   UNL     1      -3.016   4.596  24.786  0.00  0.00    +0.028 A 
ATOM     20  C   UNL     1      -1.959   2.666  25.784  0.00  0.00    +0.028 A 
ATOM     22  C   UNL     1      -1.789   5.259  24.768  0.00  0.00    +0.002 A 
ATOM     23  C   UNL     1      -0.732   3.330  25.767  0.00  0.00    +0.002 A 
ATOM     24  C   UNL     1      -0.648   4.627  25.260  0.00  0.00    +0.000 A 
ENDBRANCH   1  17
ENDBRANCH   6   1
ENDBRANCH  11   6
TORSDOF 5
ENDMDL
MODEL 2
REMARK VINA RESULT:      -3.1     16.304     19.210
REMARK  Name = 25338308
REMARK  6 active torsions:
REMARK  status: ('A' for Active; 'I' for Inactive)
REMARK    1  A    between atoms: S_1  and  N_6
REMARK    2  A    between atoms: S_1  and  C_17
REMARK    3  A    between atoms: N_5  and  C_16
REMARK    4  A    between atoms: N_6  and  C_11
REMARK    5  A    between atoms: C_12  and  C_15
REMARK    6  A    between atoms: C_18  and  C_21
REMARK                            x       y       z     vdW  Elec       q    Type
REMARK                         _______ _______ _______ _____ _____    ______ ____
ROOT
ATOM      5  N   UNL     1      13.884  -5.740  31.981  0.00  0.00    -0.293 NA
ATOM     11  C   UNL     1      15.138  -6.346  30.110  0.00  0.00    +0.092 C 
ATOM     12  C   UNL     1      12.879  -6.248  31.028  0.00  0.00    +0.147 C 
ATOM     13  C   UNL     1      13.710  -6.827  29.866  0.00  0.00    +0.050 C 
ATOM     14  C   UNL     1      15.004  -5.259  31.164  0.00  0.00    +0.105 C 
ATOM     16  C   UNL     1      13.367  -4.699  32.860  0.00  0.00    +0.105 C 
ENDROOT
BRANCH  12  15
ATOM      2  O   UNL     1      12.501  -8.262  32.358  0.00  0.00    -0.336 OA
ATOM      7  N   UNL     1      10.629  -7.333  31.553  0.00  0.00    -0.189 NA
ATOM      8  N   UNL     1      11.445  -9.067  32.803  0.00  0.00    -0.054 NA
ATOM     15  C   UNL     1      11.934  -7.265  31.629  0.00  0.00    +0.245 A 
ATOM     18  C   UNL     1      10.375  -8.453  32.288  0.00  0.00    +0.222 A 
BRANCH  18  21
ATOM      9  N   UNL     1       8.883 -10.270  32.583  0.00  0.00    -0.249 NA
ATOM     10  N   UNL     1       6.710  -8.506  32.773  0.00  0.00    -0.260 NA
ATOM     21  C   UNL     1       9.038  -8.934  32.490  0.00  0.00    +0.129 A 
ATOM     25  C   UNL     1       7.970  -8.068  32.584  0.00  0.00    +0.142 A 
ATOM     26  C   UNL     1       7.622 -10.709  32.772  0.00  0.00    +0.131 A 
ATOM     27  C   UNL     1       6.555  -9.842  32.865  0.00  0.00    +0.130 A 
ENDBRANCH  18  21
ENDBRANCH  12  15
BRANCH  11   6
ATOM      6  N   UNL     1      15.963  -7.463  30.634  0.00  0.00    -0.186 NA
ATOM     28  H   UNL     1      16.601  -7.256  31.413  0.00  0.00    +0.148 HD
BRANCH   6   1
ATOM      1  S   UNL     1      16.145  -8.880  29.718  0.00  0.00    +0.059 S 
ATOM      3  O   UNL     1      14.912  -9.642  29.756  0.00  0.00    -0.153 OA
ATOM      4  O   UNL     1      17.403  -9.506  30.075  0.00  0.00    -0.153 OA
BRANCH   1  17
ATOM     17  C   UNL     1      16.336  -8.235  28.082  0.00  0.00    +0.105 A 
ATOM     19  C   UNL     1      17.253  -7.213  27.838  0.00  0.00    +0.028 A 
ATOM     20  C   UNL     1      15.567  -8.747  27.037  0.00  0.00    +0.028 A 
ATOM     22  C   UNL     1      17.403  -6.704  26.549  0.00  0.00    +0.002 A 
ATOM     23  C   UNL     1      15.717  -8.238  25.747  0.00  0.00    +0.002 A 
ATOM     24  C   UNL     1      16.636  -7.217  25.503  0.00  0.00    +0.000 A 
ENDBRANCH   1  17
ENDBRANCH   6   1
ENDBRANCH  11   6
TORSDOF 5
ENDMDL
MODEL 3
REMARK VINA RESULT:      -2.9      1.617      4.091
REMARK  Name = 25338308
REMARK  6 active torsions:
REMARK  status: ('A' for Active; 'I' for Inactive)
REMARK    1  A    between atoms: S_1  and  N_6
REMARK    2  A    between atoms: S_1  and  C_17
REMARK    3  A    between atoms: N_5  and  C_16
REMARK    4  A    between atoms: N_6  and  C_11
REMARK    5  A    between atoms: C_12  and  C_15
REMARK    6  A    between atoms: C_18  and  C_21
REMARK                            x       y       z     vdW  Elec       q    Type
REMARK                         _______ _______ _______ _____ _____    ______ ____
ROOT
ATOM      5  N   UNL     1      -1.975   4.494  24.949  0.00  0.00    -0.293 NA
ATOM     11  C   UNL     1      -3.903   3.873  26.105  0.00  0.00    +0.092 C 
ATOM     12  C   UNL     1      -1.513   3.440  25.872  0.00  0.00    +0.147 C 
ATOM     13  C   UNL     1      -2.806   2.889  26.505  0.00  0.00    +0.050 C 
ATOM     14  C   UNL     1      -3.157   5.089  25.581  0.00  0.00    +0.105 C 
ATOM     16  C   UNL     1      -0.953   5.492  24.659  0.00  0.00    +0.105 C 
ENDROOT
BRANCH  12  15
ATOM      2  O   UNL     1      -1.030   1.076  25.481  0.00  0.00    -0.336 OA
ATOM      7  N   UNL     1       0.315   2.481  24.370  0.00  0.00    -0.189 NA
ATOM      8  N   UNL     1      -0.143   0.273  24.754  0.00  0.00    -0.054 NA
ATOM     15  C   UNL     1      -0.691   2.362  25.198  0.00  0.00    +0.245 A 
ATOM     18  C   UNL     1       0.617   1.173  24.125  0.00  0.00    +0.222 A 
BRANCH  18  21
ATOM      9  N   UNL     1       2.899   1.329  23.506  0.00  0.00    -0.249 NA
ATOM     10  N   UNL     1       2.474  -0.415  21.351  0.00  0.00    -0.260 NA
ATOM     21  C   UNL     1       1.687   0.800  23.244  0.00  0.00    +0.129 A 
ATOM     25  C   UNL     1       1.479  -0.057  22.185  0.00  0.00    +0.142 A 
ATOM     26  C   UNL     1       3.895   0.971  22.671  0.00  0.00    +0.131 A 
ATOM     27  C   UNL     1       3.686   0.114  21.613  0.00  0.00    +0.130 A 
ENDBRANCH  18  21
ENDBRANCH  12  15
BRANCH  11   6
ATOM      6  N   UNL     1      -4.739   3.286  25.028  0.00  0.00    -0.186 NA
ATOM     28  H   UNL     1      -4.863   3.838  24.171  0.00  0.00    +0.148 HD
BRANCH   6   1
ATOM      1  S   UNL     1      -5.766   1.980  25.375  0.00  0.00    +0.059 S 
ATOM      3  O   UNL     1      -6.847   1.944  24.409  0.00  0.00    -0.153 OA
ATOM      4  O   UNL     1      -6.056   1.981  26.796  0.00  0.00    -0.153 OA
BRANCH   1  17
ATOM     17  C   UNL     1      -4.712   0.595  25.064  0.00  0.00    +0.105 A 
ATOM     19  C   UNL     1      -4.264   0.336  23.769  0.00  0.00    +0.028 A 
ATOM     20  C   UNL     1      -4.328  -0.239  26.115  0.00  0.00    +0.028 A 
ATOM     22  C   UNL     1      -3.434  -0.757  23.523  0.00  0.00    +0.002 A 
ATOM     23  C   UNL     1      -3.498  -1.332  25.869  0.00  0.00    +0.002 A 
ATOM     24  C   UNL     1      -3.049  -1.591  24.573  0.00  0.00    +0.000 A 
ENDBRANCH   1  17
ENDBRANCH   6   1
ENDBRANCH  11   6
TORSDOF 5
ENDMDL
MODEL 4
REMARK VINA RESULT:      -2.9      1.373      3.777
REMARK  Name = 25338308
REMARK  6 active torsions:
REMARK  status: ('A' for Active; 'I' for Inactive)
REMARK    1  A    between atoms: S_1  and  N_6
REMARK    2  A    between atoms: S_1  and  C_17
REMARK    3  A    between atoms: N_5  and  C_16
REMARK    4  A    between atoms: N_6  and  C_11
REMARK    5  A    between atoms: C_12  and  C_15
REMARK    6  A    between atoms: C_18  and  C_21
REMARK                            x       y       z     vdW  Elec       q    Type
REMARK                         _______ _______ _______ _____ _____    ______ ____
ROOT
ATOM      5  N   UNL     1      -2.617   2.362  23.065  0.00  0.00    -0.293 NA
ATOM     11  C   UNL     1      -3.100   3.425  25.084  0.00  0.00    +0.092 C 
ATOM     12  C   UNL     1      -1.299   2.806  23.557  0.00  0.00    +0.147 C 
ATOM     13  C   UNL     1      -1.579   3.339  24.976  0.00  0.00    +0.050 C 
ATOM     14  C   UNL     1      -3.596   3.282  23.654  0.00  0.00    +0.105 C 
ATOM     16  C   UNL     1      -2.707   2.332  21.610  0.00  0.00    +0.105 C 
ENDROOT
BRANCH  12  15
ATOM      2  O   UNL     1      -0.705   0.435  23.559  0.00  0.00    -0.336 OA
ATOM      7  N   UNL     1       1.055   1.820  23.518  0.00  0.00    -0.189 NA
ATOM      8  N   UNL     1       0.432  -0.381  23.543  0.00  0.00    -0.054 NA
ATOM     15  C   UNL     1      -0.249   1.716  23.543  0.00  0.00    +0.245 A 
ATOM     18  C   UNL     1       1.429   0.508  23.518  0.00  0.00    +0.222 A 
BRANCH  18  21
ATOM      9  N   UNL     1       3.704   1.080  23.186  0.00  0.00    -0.249 NA
ATOM     10  N   UNL     1       4.489  -1.553  23.750  0.00  0.00    -0.260 NA
ATOM     21  C   UNL     1       2.811   0.119  23.493  0.00  0.00    +0.129 A 
ATOM     25  C   UNL     1       3.197  -1.174  23.770  0.00  0.00    +0.142 A 
ATOM     26  C   UNL     1       4.998   0.702  23.165  0.00  0.00    +0.131 A 
ATOM     27  C   UNL     1       5.383  -0.592  23.443  0.00  0.00    +0.130 A 
ENDBRANCH  18  21
ENDBRANCH  12  15
BRANCH  11   6
ATOM      6  N   UNL     1      -3.611   2.306  25.914  0.00  0.00    -0.186 NA
ATOM     28  H   UNL     1      -2.988   1.933  26.640  0.00  0.00    +0.148 HD
BRANCH   6   1
ATOM      1  S   UNL     1      -4.970   1.428  25.401  0.00  0.00    +0.059 S 
ATOM      3  O   UNL     1      -5.461   1.981  24.154  0.00  0.00    -0.153 OA
ATOM      4  O   UNL     1      -5.867   1.260  26.529  0.00  0.00    -0.153 OA
BRANCH   1  17
ATOM     17  C   UNL     1      -4.272  -0.159  25.056  0.00  0.00    +0.105 A 
ATOM     19  C   UNL     1      -3.238  -0.653  25.851  0.00  0.00    +0.028 A 
ATOM     20  C   UNL     1      -4.754  -0.916  23.989  0.00  0.00    +0.028 A 
ATOM     22  C   UNL     1      -2.686  -1.905  25.579  0.00  0.00    +0.002 A 
ATOM     23  C   UNL     1      -4.202  -2.167  23.716  0.00  0.00    +0.002 A 
ATOM     24  C   UNL     1      -3.169  -2.663  24.512  0.00  0.00    +0.000 A 
ENDBRANCH   1  17
ENDBRANCH   6   1
ENDBRANCH  11   6
TORSDOF 5
ENDMDL
MODEL 5
REMARK VINA RESULT:      -2.1     17.162     19.346
REMARK  Name = 25338308
REMARK  6 active torsions:
REMARK  status: ('A' for Active; 'I' for Inactive)
REMARK    1  A    between atoms: S_1  and  N_6
REMARK    2  A    between atoms: S_1  and  C_17
REMARK    3  A    between atoms: N_5  and  C_16
REMARK    4  A    between atoms: N_6  and  C_11
REMARK    5  A    between atoms: C_12  and  C_15
REMARK    6  A    between atoms: C_18  and  C_21
REMARK                            x       y       z     vdW  Elec       q    Type
REMARK                         _______ _______ _______ _____ _____    ______ ____
ROOT
ATOM      5  N   UNL     1      15.192  -9.505  26.436  0.00  0.00    -0.293 NA
ATOM     11  C   UNL     1      17.087  -8.606  25.414  0.00  0.00    +0.092 C 
ATOM     12  C   UNL     1      16.182  -9.429  27.527  0.00  0.00    +0.147 C 
ATOM     13  C   UNL     1      17.371  -8.663  26.914  0.00  0.00    +0.050 C 
ATOM     14  C   UNL     1      15.969  -9.613  25.196  0.00  0.00    +0.105 C 
ATOM     16  C   UNL     1      14.254 -10.611  26.587  0.00  0.00    +0.105 C 
ENDROOT
BRANCH  12  15
ATOM      2  O   UNL     1      16.434  -8.856  29.889  0.00  0.00    -0.336 OA
ATOM      7  N   UNL     1      14.532  -8.116  28.966  0.00  0.00    -0.189 NA
ATOM      8  N   UNL     1      15.744  -8.185  30.905  0.00  0.00    -0.054 NA
ATOM     15  C   UNL     1      15.651  -8.769  28.781  0.00  0.00    +0.245 A 
ATOM     18  C   UNL     1      14.633  -7.777  30.283  0.00  0.00    +0.222 A 
BRANCH  18  21
ATOM      9  N   UNL     1      12.372  -7.570  30.958  0.00  0.00    -0.249 NA
ATOM     10  N   UNL     1      12.920  -5.103  32.176  0.00  0.00    -0.260 NA
ATOM     21  C   UNL     1      13.606  -7.028  30.949  0.00  0.00    +0.129 A 
ATOM     25  C   UNL     1      13.875  -5.817  31.547  0.00  0.00    +0.142 A 
ATOM     26  C   UNL     1      11.416  -6.856  31.587  0.00  0.00    +0.131 A 
ATOM     27  C   UNL     1      11.686  -5.645  32.185  0.00  0.00    +0.130 A 
ENDBRANCH  18  21
ENDBRANCH  12  15
BRANCH  11   6
ATOM      6  N   UNL     1      16.626  -7.246  25.039  0.00  0.00    -0.186 NA
ATOM     28  H   UNL     1      16.697  -6.978  24.051  0.00  0.00    +0.148 HD
BRANCH   6   1
ATOM      1  S   UNL     1      16.399  -6.071  26.243  0.00  0.00    +0.059 S 
ATOM      3  O   UNL     1      17.405  -6.234  27.274  0.00  0.00    -0.153 OA
ATOM      4  O   UNL     1      14.992  -6.031  26.595  0.00  0.00    -0.153 OA
BRANCH   1  17
ATOM     17  C   UNL     1      16.754  -4.577  25.366  0.00  0.00    +0.105 A 
ATOM     19  C   UNL     1      17.068  -3.415  26.069  0.00  0.00    +0.028 A 
ATOM     20  C   UNL     1      16.719  -4.562  23.972  0.00  0.00    +0.028 A 
ATOM     22  C   UNL     1      17.347  -2.236  25.378  0.00  0.00    +0.002 A 
ATOM     23  C   UNL     1      16.998  -3.383  23.281  0.00  0.00    +0.002 A 
ATOM     24  C   UNL     1      17.314  -2.220  23.984  0.00  0.00    +0.000 A 
ENDBRANCH   1  17
ENDBRANCH   6   1
ENDBRANCH  11   6
TORSDOF 5
ENDMDL
MODEL 6
REMARK VINA RESULT:      -1.6      1.149      1.802
REMARK  Name = 25338308
REMARK  6 active torsions:
REMARK  status: ('A' for Active; 'I' for Inactive)
REMARK    1  A    between atoms: S_1  and  N_6
REMARK    2  A    between atoms: S_1  and  C_17
REMARK    3  A    between atoms: N_5  and  C_16
REMARK    4  A    between atoms: N_6  and  C_11
REMARK    5  A    between atoms: C_12  and  C_15
REMARK    6  A    between atoms: C_18  and  C_21
REMARK                            x       y       z     vdW  Elec       q    Type
REMARK                         _______ _______ _______ _____ _____    ______ ____
ROOT
ATOM      5  N   UNL     1      -3.563  -1.389  24.743  0.00  0.00    -0.293 NA
ATOM     11  C   UNL     1      -4.605   0.637  24.241  0.00  0.00    +0.092 C 
ATOM     12  C   UNL     1      -2.783  -0.859  23.608  0.00  0.00    +0.147 C 
ATOM     13  C   UNL     1      -3.339   0.562  23.390  0.00  0.00    +0.050 C 
ATOM     14  C   UNL     1      -4.903  -0.806  24.615  0.00  0.00    +0.105 C 
ATOM     16  C   UNL     1      -3.606  -2.845  24.781  0.00  0.00    +0.105 C 
ENDROOT
BRANCH  12  15
ATOM      2  O   UNL     1      -0.841  -1.648  24.864  0.00  0.00    -0.336 OA
ATOM      7  N   UNL     1      -0.343  -0.228  23.204  0.00  0.00    -0.189 NA
ATOM      8  N   UNL     1       0.551  -1.495  24.887  0.00  0.00    -0.054 NA
ATOM     15  C   UNL     1      -1.289  -0.869  23.844  0.00  0.00    +0.245 A 
ATOM     18  C   UNL     1       0.767  -0.644  23.879  0.00  0.00    +0.222 A 
BRANCH  18  21
ATOM      9  N   UNL     1       3.073  -1.101  23.582  0.00  0.00    -0.249 NA
ATOM     10  N   UNL     1       3.537   1.551  22.794  0.00  0.00    -0.260 NA
ATOM     21  C   UNL     1       2.081  -0.191  23.520  0.00  0.00    +0.129 A 
ATOM     25  C   UNL     1       2.309   1.112  23.134  0.00  0.00    +0.142 A 
ATOM     26  C   UNL     1       4.302  -0.662  23.243  0.00  0.00    +0.131 A 
ATOM     27  C   UNL     1       4.529   0.641  22.856  0.00  0.00    +0.130 A 
ENDBRANCH  18  21
ENDBRANCH  12  15
BRANCH  11   6
ATOM      6  N   UNL     1      -4.343   1.436  25.464  0.00  0.00    -0.186 NA
ATOM     28  H   UNL     1      -4.460   0.966  26.370  0.00  0.00    +0.148 HD
BRANCH   6   1
ATOM      1  S   UNL     1      -4.274   3.129  25.367  0.00  0.00    +0.059 S 
ATOM      3  O   UNL     1      -4.792   3.705  26.593  0.00  0.00    -0.153 OA
ATOM      4  O   UNL     1      -4.805   3.543  24.083  0.00  0.00    -0.153 OA
BRANCH   1  17
ATOM     17  C   UNL     1      -2.530   3.421  25.323  0.00  0.00    +0.105 A 
ATOM     19  C   UNL     1      -1.643   2.392  25.637  0.00  0.00    +0.028 A 
ATOM     20  C   UNL     1      -2.043   4.680  24.973  0.00  0.00    +0.028 A 
ATOM     22  C   UNL     1      -0.268   2.622  25.603  0.00  0.00    +0.002 A 
ATOM     23  C   UNL     1      -0.668   4.911  24.939  0.00  0.00    +0.002 A 
ATOM     24  C   UNL     1       0.220   3.881  25.253  0.00  0.00    +0.000 A 
ENDBRANCH   1  17
ENDBRANCH   6   1
ENDBRANCH  11   6
TORSDOF 5
ENDMDL
MODEL 7
REMARK VINA RESULT:      -1.3     15.978     18.778
REMARK  Name = 25338308
REMARK  6 active torsions:
REMARK  status: ('A' for Active; 'I' for Inactive)
REMARK    1  A    between atoms: S_1  and  N_6
REMARK    2  A    between atoms: S_1  and  C_17
REMARK    3  A    between atoms: N_5  and  C_16
REMARK    4  A    between atoms: N_6  and  C_11
REMARK    5  A    between atoms: C_12  and  C_15
REMARK    6  A    between atoms: C_18  and  C_21
REMARK                            x       y       z     vdW  Elec       q    Type
REMARK                         _______ _______ _______ _____ _____    ______ ____
ROOT
ATOM      5  N   UNL     1      12.184  -4.941  32.183  0.00  0.00    -0.293 NA
ATOM     11  C   UNL     1      14.239  -5.412  31.186  0.00  0.00    +0.092 C 
ATOM     12  C   UNL     1      11.849  -5.904  31.117  0.00  0.00    +0.147 C 
ATOM     13  C   UNL     1      13.216  -6.367  30.576  0.00  0.00    +0.050 C 
ATOM     14  C   UNL     1      13.410  -4.266  31.744  0.00  0.00    +0.105 C 
ATOM     16  C   UNL     1      11.111  -3.992  32.459  0.00  0.00    +0.105 C 
ENDROOT
BRANCH  12  15
ATOM      2  O   UNL     1      11.528  -7.862  32.543  0.00  0.00    -0.336 OA
ATOM      7  N   UNL     1       9.785  -7.403  31.213  0.00  0.00    -0.189 NA
ATOM      8  N   UNL     1      10.564  -8.840  32.814  0.00  0.00    -0.054 NA
ATOM     15  C   UNL     1      10.990  -7.056  31.590  0.00  0.00    +0.245 A 
ATOM     18  C   UNL     1       9.566  -8.502  31.991  0.00  0.00    +0.222 A 
BRANCH  18  21
ATOM      9  N   UNL     1       8.202 -10.094  30.889  0.00  0.00    -0.249 NA
ATOM     10  N   UNL     1       6.192  -9.766  32.819  0.00  0.00    -0.260 NA
ATOM     21  C   UNL     1       8.338  -9.240  31.923  0.00  0.00    +0.129 A 
ATOM     25  C   UNL     1       7.351  -9.079  32.871  0.00  0.00    +0.142 A 
ATOM     26  C   UNL     1       7.043 -10.781  30.836  0.00  0.00    +0.131 A 
ATOM     27  C   UNL     1       6.056 -10.619  31.785  0.00  0.00    +0.130 A 
ENDBRANCH  18  21
ENDBRANCH  12  15
BRANCH  11   6
ATOM      6  N   UNL     1      14.972  -6.091  32.283  0.00  0.00    -0.186 NA
ATOM     28  H   UNL     1      14.506  -6.153  33.196  0.00  0.00    +0.148 HD
BRANCH   6   1
ATOM      1  S   UNL     1      16.641  -6.363  32.139  0.00  0.00    +0.059 S 
ATOM      3  O   UNL     1      16.956  -7.698  32.610  0.00  0.00    -0.153 OA
ATOM      4  O   UNL     1      17.347  -5.214  32.674  0.00  0.00    -0.153 OA
BRANCH   1  17
ATOM     17  C   UNL     1      16.866  -6.336  30.386  0.00  0.00    +0.105 A 
ATOM     19  C   UNL     1      16.703  -7.506  29.644  0.00  0.00    +0.028 A 
ATOM     20  C   UNL     1      17.208  -5.145  29.745  0.00  0.00    +0.028 A 
ATOM     22  C   UNL     1      16.882  -7.485  28.261  0.00  0.00    +0.002 A 
ATOM     23  C   UNL     1      17.387  -5.125  28.362  0.00  0.00    +0.002 A 
ATOM     24  C   UNL     1      17.222  -6.295  27.619  0.00  0.00    +0.000 A 
ENDBRANCH   1  17
ENDBRANCH   6   1
ENDBRANCH  11   6
TORSDOF 5
ENDMDL
