MODEL 1
REMARK VINA RESULT:      -0.2      0.000      0.000
REMARK  Name = 71693896
REMARK  7 active torsions:
REMARK  status: ('A' for Active; 'I' for Inactive)
REMARK    1  A    between atoms: O_1  and  C_10
REMARK    2  A    between atoms: O_2  and  C_12
REMARK    3  A    between atoms: O_4  and  C_20
REMARK    4  A    between atoms: O_4  and  C_28
REMARK    5  A    between atoms: N_7  and  C_9
REMARK    6  A    between atoms: C_8  and  C_13
REMARK    7  A    between atoms: C_16  and  C_19
REMARK                            x       y       z     vdW  Elec       q    Type
REMARK                         _______ _______ _______ _____ _____    ______ ____
ROOT
ATOM      8  C   UNL     1      -2.403  -0.734  25.548  0.00  0.00    +0.044 C 
ATOM      9  C   UNL     1      -1.760  -1.341  24.280  0.00  0.00    +0.112 C 
ATOM     10  C   UNL     1      -1.973  -2.844  24.456  0.00  0.00    +0.164 C 
ATOM     11  C   UNL     1      -3.424  -1.788  26.049  0.00  0.00    +0.044 C 
ATOM     12  C   UNL     1      -3.382  -2.928  25.033  0.00  0.00    +0.145 C 
ENDROOT
BRANCH   8  13
ATOM     13  C   UNL     1      -2.990   0.641  25.314  0.00  0.00    -0.042 A 
ATOM     14  C   UNL     1      -2.173   1.769  25.385  0.00  0.00    +0.007 A 
ATOM     15  C   UNL     1      -4.349   0.780  25.029  0.00  0.00    +0.007 A 
ATOM     17  C   UNL     1      -2.714   3.036  25.169  0.00  0.00    +0.046 A 
ATOM     18  C   UNL     1      -4.890   2.048  24.814  0.00  0.00    +0.046 A 
ATOM     20  C   UNL     1      -4.073   3.176  24.884  0.00  0.00    +0.120 A 
BRANCH  20   4
ATOM      4  O   UNL     1      -4.600   4.413  24.675  0.00  0.00    -0.495 OA
ATOM     28  C   UNL     1      -5.795   4.738  25.382  0.00  0.00    +0.277 C 
ENDBRANCH  20   4
ENDBRANCH   8  13
BRANCH   9   7
ATOM      3  O   UNL     1      -0.597   0.593  22.504  0.00  0.00    -0.270 OA
ATOM      7  N   UNL     1      -0.363  -1.006  24.169  0.00  0.00    -0.305 N 
ATOM     16  C   UNL     1       0.108  -0.052  23.276  0.00  0.00    +0.245 C 
ATOM     29  H   UNL     1       0.281  -1.519  24.759  0.00  0.00    +0.149 HD
BRANCH  16  19
ATOM      5  O   UNL     1       4.607  -1.766  23.888  0.00  0.00    -0.485 OA
ATOM      6  O   UNL     1       5.684   0.809  23.168  0.00  0.00    -0.485 OA
ATOM     19  C   UNL     1       1.578   0.159  23.264  0.00  0.00    +0.040 A 
ATOM     21  C   UNL     1       2.436  -0.898  23.567  0.00  0.00    +0.062 A 
ATOM     22  C   UNL     1       2.098   1.415  22.953  0.00  0.00    +0.017 A 
ATOM     23  C   UNL     1       3.816  -0.695  23.562  0.00  0.00    +0.163 A 
ATOM     24  C   UNL     1       3.479   1.616  22.935  0.00  0.00    +0.050 A 
ATOM     25  C   UNL     1       4.338   0.556  23.224  0.00  0.00    +0.162 A 
ATOM     26  C   UNL     1       5.947  -1.368  24.186  0.00  0.00    +0.270 C 
ATOM     27  C   UNL     1       6.452  -0.397  23.138  0.00  0.00    +0.270 C 
ENDBRANCH  16  19
ENDBRANCH   9   7
BRANCH  10   1
ATOM      1  O   UNL     1      -1.880  -3.547  23.233  0.00  0.00    -0.387 OA
ATOM     30  H   UNL     1      -1.130  -4.161  23.305  0.00  0.00    +0.210 HD
ENDBRANCH  10   1
BRANCH  12   2
ATOM      2  O   UNL     1      -4.360  -2.679  24.028  0.00  0.00    -0.389 OA
ATOM     31  H   UNL     1      -5.211  -3.016  24.358  0.00  0.00    +0.210 HD
ENDBRANCH  12   2
TORSDOF 6
ENDMDL
