MODEL 1
REMARK VINA RESULT:      -4.7      0.000      0.000
REMARK  Name = 75537131
REMARK  4 active torsions:
REMARK  status: ('A' for Active; 'I' for Inactive)
REMARK    1  A    between atoms: N_2  and  C_8
REMARK    2  A    between atoms: N_4  and  C_19
REMARK    3  A    between atoms: N_5  and  C_23
REMARK    4  A    between atoms: C_19  and  C_20
REMARK                            x       y       z     vdW  Elec       q    Type
REMARK                         _______ _______ _______ _____ _____    ______ ____
ROOT
ATOM      1  O   UNL     1      -4.717  -9.942  17.045  0.00  0.00    -0.252 OA
ATOM      2  N   UNL     1      -6.664 -10.007  15.713  0.00  0.00    -0.281 N 
ATOM      3  N   UNL     1      -4.692 -10.523  14.769  0.00  0.00    -0.278 N 
ATOM      4  N   UNL     1      -3.851 -10.591  12.086  0.00  0.00    -0.292 NA
ATOM      7  C   UNL     1      -5.670 -10.781  13.732  0.00  0.00    +0.109 C 
ATOM      9  C   UNL     1      -6.966 -10.212  14.307  0.00  0.00    +0.133 C 
ATOM     10  C   UNL     1      -5.224 -10.154  12.412  0.00  0.00    +0.109 C 
ATOM     13  C   UNL     1      -5.285 -10.138  15.978  0.00  0.00    +0.305 C 
ATOM     14  C   UNL     1      -3.293 -10.778  14.501  0.00  0.00    +0.125 C 
ATOM     15  C   UNL     1      -2.904 -10.185  13.144  0.00  0.00    +0.104 C 
ENDROOT
BRANCH   2   8
ATOM      8  C   UNL     1      -7.667  -9.576  16.656  0.00  0.00    +0.078 C 
ATOM     11  C   UNL     1      -8.087 -10.735  17.562  0.00  0.00    +0.022 C 
ATOM     12  C   UNL     1      -8.871  -8.973  15.928  0.00  0.00    +0.022 C 
ATOM     16  C   UNL     1      -9.187 -10.320  18.535  0.00  0.00    +0.002 C 
ATOM     17  C   UNL     1      -9.969  -8.559  16.903  0.00  0.00    +0.002 C 
ATOM     18  C   UNL     1     -10.384  -9.716  17.807  0.00  0.00    +0.000 C 
ENDBRANCH   2   8
BRANCH   4  19
ATOM     19  C   UNL     1      -3.436 -10.045  10.794  0.00  0.00    +0.158 C 
BRANCH  19  20
ATOM      5  N   UNL     1      -5.094  -9.592   8.957  0.00  0.00    -0.336 N 
ATOM      6  N   UNL     1      -5.060  -8.132  10.630  0.00  0.00    -0.239 NA
ATOM     20  C   UNL     1      -4.531  -9.235  10.150  0.00  0.00    +0.124 A 
ATOM     21  C   UNL     1      -6.045  -8.656   8.657  0.00  0.00    +0.106 A 
ATOM     22  C   UNL     1      -6.005  -7.767   9.704  0.00  0.00    +0.130 A 
ATOM     23  C   UNL     1      -4.761 -10.741   8.148  0.00  0.00    +0.150 C 
ENDBRANCH  19  20
ENDBRANCH   4  19
TORSDOF 3
ENDMDL
MODEL 2
REMARK VINA RESULT:      -3.0     23.452     25.419
REMARK  Name = 75537131
REMARK  4 active torsions:
REMARK  status: ('A' for Active; 'I' for Inactive)
REMARK    1  A    between atoms: N_2  and  C_8
REMARK    2  A    between atoms: N_4  and  C_19
REMARK    3  A    between atoms: N_5  and  C_23
REMARK    4  A    between atoms: C_19  and  C_20
REMARK                            x       y       z     vdW  Elec       q    Type
REMARK                         _______ _______ _______ _____ _____    ______ ____
ROOT
ATOM      1  O   UNL     1      10.905  -5.985  32.871  0.00  0.00    -0.252 OA
ATOM      2  N   UNL     1      10.902  -8.242  32.186  0.00  0.00    -0.281 N 
ATOM      3  N   UNL     1      12.746  -7.009  31.833  0.00  0.00    -0.278 N 
ATOM      4  N   UNL     1      14.927  -7.340  30.088  0.00  0.00    -0.292 NA
ATOM      7  C   UNL     1      13.119  -8.347  31.420  0.00  0.00    +0.109 C 
ATOM      9  C   UNL     1      11.799  -9.115  31.448  0.00  0.00    +0.133 C 
ATOM     10  C   UNL     1      13.812  -8.310  30.059  0.00  0.00    +0.109 C 
ATOM     13  C   UNL     1      11.451  -6.956  32.365  0.00  0.00    +0.305 C 
ATOM     14  C   UNL     1      13.727  -5.947  31.759  0.00  0.00    +0.125 C 
ATOM     15  C   UNL     1      14.437  -5.984  30.403  0.00  0.00    +0.104 C 
ENDROOT
BRANCH   2   8
ATOM      8  C   UNL     1       9.562  -8.644  32.537  0.00  0.00    +0.078 C 
ATOM     11  C   UNL     1       9.434 -10.168  32.514  0.00  0.00    +0.022 C 
ATOM     12  C   UNL     1       8.539  -7.984  31.609  0.00  0.00    +0.022 C 
ATOM     16  C   UNL     1       8.011 -10.619  32.831  0.00  0.00    +0.002 C 
ATOM     17  C   UNL     1       7.116  -8.437  31.929  0.00  0.00    +0.002 C 
ATOM     18  C   UNL     1       6.992  -9.958  31.907  0.00  0.00    +0.000 C 
ENDBRANCH   2   8
BRANCH   4  19
ATOM     19  C   UNL     1      15.634  -7.341  28.807  0.00  0.00    +0.158 C 
BRANCH  19  20
ATOM      5  N   UNL     1      16.094  -9.181  27.154  0.00  0.00    -0.336 N 
ATOM      6  N   UNL     1      16.627  -9.605  29.268  0.00  0.00    -0.239 NA
ATOM     20  C   UNL     1      16.126  -8.716  28.439  0.00  0.00    +0.124 A 
ATOM     21  C   UNL     1      16.607 -10.448  27.164  0.00  0.00    +0.106 A 
ATOM     22  C   UNL     1      16.928 -10.687  28.479  0.00  0.00    +0.130 A 
ATOM     23  C   UNL     1      15.612  -8.478  25.989  0.00  0.00    +0.150 C 
ENDBRANCH  19  20
ENDBRANCH   4  19
TORSDOF 3
ENDMDL
MODEL 3
REMARK VINA RESULT:      -2.5      1.543      2.097
REMARK  Name = 75537131
REMARK  4 active torsions:
REMARK  status: ('A' for Active; 'I' for Inactive)
REMARK    1  A    between atoms: N_2  and  C_8
REMARK    2  A    between atoms: N_4  and  C_19
REMARK    3  A    between atoms: N_5  and  C_23
REMARK    4  A    between atoms: C_19  and  C_20
REMARK                            x       y       z     vdW  Elec       q    Type
REMARK                         _______ _______ _______ _____ _____    ______ ____
ROOT
ATOM      1  O   UNL     1      -4.553  -9.875  18.326  0.00  0.00    -0.252 OA
ATOM      2  N   UNL     1      -6.084  -9.954  16.532  0.00  0.00    -0.281 N 
ATOM      3  N   UNL     1      -3.942 -10.509  16.148  0.00  0.00    -0.278 N 
ATOM      4  N   UNL     1      -2.429 -10.644  13.781  0.00  0.00    -0.292 NA
ATOM      7  C   UNL     1      -4.618 -10.781  14.896  0.00  0.00    +0.109 C 
ATOM      9  C   UNL     1      -6.011 -10.189  15.101  0.00  0.00    +0.133 C 
ATOM     10  C   UNL     1      -3.833 -10.189  13.727  0.00  0.00    +0.109 C 
ATOM     13  C   UNL     1      -4.825 -10.091  17.152  0.00  0.00    +0.305 C 
ATOM     14  C   UNL     1      -2.524 -10.780  16.260  0.00  0.00    +0.125 C 
ATOM     15  C   UNL     1      -1.786 -10.222  15.041  0.00  0.00    +0.104 C 
ENDROOT
BRANCH   2   8
ATOM      8  C   UNL     1      -7.293  -9.494  17.171  0.00  0.00    +0.078 C 
ATOM     11  C   UNL     1      -7.999 -10.649  17.882  0.00  0.00    +0.022 C 
ATOM     12  C   UNL     1      -8.217  -8.816  16.156  0.00  0.00    +0.022 C 
ATOM     16  C   UNL     1      -9.310 -10.200  18.522  0.00  0.00    +0.002 C 
ATOM     17  C   UNL     1      -9.527  -8.367  16.799  0.00  0.00    +0.002 C 
ATOM     18  C   UNL     1     -10.228  -9.522  17.510  0.00  0.00    +0.000 C 
ENDBRANCH   2   8
BRANCH   4  19
ATOM     19  C   UNL     1      -1.684 -10.131  12.631  0.00  0.00    +0.158 C 
BRANCH  19  20
ATOM      5  N   UNL     1      -2.224  -9.038  10.431  0.00  0.00    -0.336 N 
ATOM      6  N   UNL     1      -3.766 -10.409  11.251  0.00  0.00    -0.239 NA
ATOM     20  C   UNL     1      -2.580  -9.878  11.448  0.00  0.00    +0.124 A 
ATOM     21  C   UNL     1      -3.249  -9.032   9.526  0.00  0.00    +0.106 A 
ATOM     22  C   UNL     1      -4.188  -9.885  10.054  0.00  0.00    +0.130 A 
ATOM     23  C   UNL     1      -0.996  -8.287  10.315  0.00  0.00    +0.150 C 
ENDBRANCH  19  20
ENDBRANCH   4  19
TORSDOF 3
ENDMDL
MODEL 4
REMARK VINA RESULT:      -2.0     24.277     26.430
REMARK  Name = 75537131
REMARK  4 active torsions:
REMARK  status: ('A' for Active; 'I' for Inactive)
REMARK    1  A    between atoms: N_2  and  C_8
REMARK    2  A    between atoms: N_4  and  C_19
REMARK    3  A    between atoms: N_5  and  C_23
REMARK    4  A    between atoms: C_19  and  C_20
REMARK                            x       y       z     vdW  Elec       q    Type
REMARK                         _______ _______ _______ _____ _____    ______ ____
ROOT
ATOM      1  O   UNL     1      11.010  -5.333  32.394  0.00  0.00    -0.252 OA
ATOM      2  N   UNL     1      11.694  -7.562  32.752  0.00  0.00    -0.281 N 
ATOM      3  N   UNL     1      13.264  -5.993  32.411  0.00  0.00    -0.278 N 
ATOM      4  N   UNL     1      15.955  -6.165  31.610  0.00  0.00    -0.292 NA
ATOM      7  C   UNL     1      14.012  -7.195  32.715  0.00  0.00    +0.109 C 
ATOM      9  C   UNL     1      12.949  -8.292  32.717  0.00  0.00    +0.133 C 
ATOM     10  C   UNL     1      15.138  -7.393  31.701  0.00  0.00    +0.109 C 
ATOM     13  C   UNL     1      11.880  -6.186  32.509  0.00  0.00    +0.305 C 
ATOM     14  C   UNL     1      13.979  -4.760  32.156  0.00  0.00    +0.125 C 
ATOM     15  C   UNL     1      15.133  -5.016  31.183  0.00  0.00    +0.104 C 
ENDROOT
BRANCH   2   8
ATOM      8  C   UNL     1      10.423  -8.233  32.873  0.00  0.00    +0.078 C 
ATOM     11  C   UNL     1      10.605  -9.749  32.792  0.00  0.00    +0.022 C 
ATOM     12  C   UNL     1       9.442  -7.732  31.810  0.00  0.00    +0.022 C 
ATOM     16  C   UNL     1       9.268 -10.483  32.865  0.00  0.00    +0.002 C 
ATOM     17  C   UNL     1       8.106  -8.466  31.885  0.00  0.00    +0.002 C 
ATOM     18  C   UNL     1       8.291  -9.979  31.807  0.00  0.00    +0.000 C 
ENDBRANCH   2   8
BRANCH   4  19
ATOM     19  C   UNL     1      17.072  -6.365  30.687  0.00  0.00    +0.158 C 
BRANCH  19  20
ATOM      5  N   UNL     1      16.776  -5.546  28.326  0.00  0.00    -0.336 N 
ATOM      6  N   UNL     1      15.992  -7.577  28.766  0.00  0.00    -0.239 NA
ATOM     20  C   UNL     1      16.602  -6.525  29.265  0.00  0.00    +0.124 A 
ATOM     21  C   UNL     1      16.243  -6.004  27.153  0.00  0.00    +0.106 A 
ATOM     22  C   UNL     1      15.767  -7.258  27.450  0.00  0.00    +0.130 A 
ATOM     23  C   UNL     1      17.405  -4.261  28.519  0.00  0.00    +0.150 C 
ENDBRANCH  19  20
ENDBRANCH   4  19
TORSDOF 3
ENDMDL
MODEL 5
REMARK VINA RESULT:      -0.9     15.655     16.792
REMARK  Name = 75537131
REMARK  4 active torsions:
REMARK  status: ('A' for Active; 'I' for Inactive)
REMARK    1  A    between atoms: N_2  and  C_8
REMARK    2  A    between atoms: N_4  and  C_19
REMARK    3  A    between atoms: N_5  and  C_23
REMARK    4  A    between atoms: C_19  and  C_20
REMARK                            x       y       z     vdW  Elec       q    Type
REMARK                         _______ _______ _______ _____ _____    ______ ____
ROOT
ATOM      1  O   UNL     1      -1.842   4.044  24.654  0.00  0.00    -0.252 OA
ATOM      2  N   UNL     1      -2.845   1.909  24.613  0.00  0.00    -0.281 N 
ATOM      3  N   UNL     1      -0.604   2.050  24.552  0.00  0.00    -0.278 N 
ATOM      4  N   UNL     1       1.375   0.228  23.730  0.00  0.00    -0.292 NA
ATOM      7  C   UNL     1      -0.877   0.630  24.639  0.00  0.00    +0.109 C 
ATOM      9  C   UNL     1      -2.389   0.539  24.448  0.00  0.00    +0.133 C 
ATOM     10  C   UNL     1      -0.052  -0.135  23.605  0.00  0.00    +0.109 C 
ATOM     13  C   UNL     1      -1.771   2.822  24.616  0.00  0.00    +0.305 C 
ATOM     14  C   UNL     1       0.770   2.506  24.516  0.00  0.00    +0.125 C 
ATOM     15  C   UNL     1       1.572   1.674  23.512  0.00  0.00    +0.104 C 
ENDROOT
BRANCH   2   8
ATOM      8  C   UNL     1      -4.245   2.254  24.616  0.00  0.00    +0.078 C 
ATOM     11  C   UNL     1      -4.525   3.355  25.640  0.00  0.00    +0.022 C 
ATOM     12  C   UNL     1      -5.107   1.016  24.880  0.00  0.00    +0.022 C 
ATOM     16  C   UNL     1      -6.010   3.703  25.703  0.00  0.00    +0.002 C 
ATOM     17  C   UNL     1      -6.591   1.366  24.941  0.00  0.00    +0.002 C 
ATOM     18  C   UNL     1      -6.867   2.467  25.962  0.00  0.00    +0.000 C 
ENDBRANCH   2   8
BRANCH   4  19
ATOM     19  C   UNL     1       2.181  -0.545  22.784  0.00  0.00    +0.158 C 
BRANCH  19  20
ATOM      5  N   UNL     1       4.534   0.323  22.978  0.00  0.00    -0.336 N 
ATOM      6  N   UNL     1       4.142  -1.664  23.889  0.00  0.00    -0.239 NA
ATOM     20  C   UNL     1       3.615  -0.657  23.230  0.00  0.00    +0.124 A 
ATOM     21  C   UNL     1       5.725  -0.086  23.510  0.00  0.00    +0.106 A 
ATOM     22  C   UNL     1       5.458  -1.314  24.066  0.00  0.00    +0.130 A 
ATOM     23  C   UNL     1       4.308   1.567  22.280  0.00  0.00    +0.150 C 
ENDBRANCH  19  20
ENDBRANCH   4  19
TORSDOF 3
ENDMDL
