MODEL 1
REMARK VINA RESULT:      -3.5      0.000      0.000
REMARK  Name = 51137098
REMARK  4 active torsions:
REMARK  status: ('A' for Active; 'I' for Inactive)
REMARK    1  A    between atoms: N_2  and  C_10
REMARK    2  A    between atoms: C_5  and  C_9
REMARK    3  A    between atoms: C_10  and  C_11
REMARK    4  A    between atoms: C_18  and  C_23
REMARK                            x       y       z     vdW  Elec       q    Type
REMARK                         _______ _______ _______ _____ _____    ______ ____
ROOT
ATOM      2  N   UNL     1       0.584  -0.684  23.652  0.00  0.00    -0.297 NA
ATOM      5  C   UNL     1      -1.208  -0.166  25.072  0.00  0.00    +0.070 C 
ATOM      6  C   UNL     1      -1.408  -1.573  24.483  0.00  0.00    +0.028 C 
ATOM      7  C   UNL     1      -0.131   0.476  24.187  0.00  0.00    +0.096 C 
ATOM      8  C   UNL     1      -0.463  -1.640  23.291  0.00  0.00    +0.085 C 
ENDROOT
BRANCH   5   9
ATOM      3  N   UNL     1      -2.412   2.032  25.212  0.00  0.00    -0.342 N 
ATOM      4  N   UNL     1      -3.701   0.221  25.216  0.00  0.00    -0.232 NA
ATOM      9  C   UNL     1      -2.465   0.666  25.168  0.00  0.00    +0.113 A 
ATOM     12  C   UNL     1      -3.698   2.499  25.296  0.00  0.00    +0.066 A 
ATOM     13  C   UNL     1      -4.485   1.350  25.296  0.00  0.00    +0.089 A 
ATOM     14  C   UNL     1      -4.226   3.789  25.367  0.00  0.00    +0.031 A 
ATOM     15  C   UNL     1      -5.882   1.476  25.374  0.00  0.00    +0.030 A 
ATOM     18  C   UNL     1      -5.619   3.895  25.444  0.00  0.00    -0.048 A 
ATOM     19  C   UNL     1      -6.434   2.761  25.447  0.00  0.00    +0.005 A 
ATOM     23  C   UNL     1      -6.245   5.249  25.523  0.00  0.00    +0.044 C 
ATOM     24  H   UNL     1      -1.575   2.600  25.187  0.00  0.00    +0.167 HD
ENDBRANCH   5   9
BRANCH   2  10
ATOM     10  C   UNL     1       1.434  -0.340  22.521  0.00  0.00    +0.119 C 
BRANCH  10  11
ATOM      1  F   UNL     1       6.858   0.020  24.004  0.00  0.00    -0.205 F 
ATOM     11  C   UNL     1       2.883  -0.243  22.917  0.00  0.00    -0.033 A 
ATOM     16  C   UNL     1       3.505  -1.319  23.551  0.00  0.00    +0.008 A 
ATOM     17  C   UNL     1       3.604   0.921  22.651  0.00  0.00    +0.008 A 
ATOM     20  C   UNL     1       4.849  -1.230  23.918  0.00  0.00    +0.038 A 
ATOM     21  C   UNL     1       4.946   1.010  23.019  0.00  0.00    +0.038 A 
ATOM     22  C   UNL     1       5.568  -0.066  23.651  0.00  0.00    +0.123 A 
ENDBRANCH  10  11
ENDBRANCH   2  10
TORSDOF 3
ENDMDL
MODEL 2
REMARK VINA RESULT:      -2.6      2.562      7.733
REMARK  Name = 51137098
REMARK  4 active torsions:
REMARK  status: ('A' for Active; 'I' for Inactive)
REMARK    1  A    between atoms: N_2  and  C_10
REMARK    2  A    between atoms: C_5  and  C_9
REMARK    3  A    between atoms: C_10  and  C_11
REMARK    4  A    between atoms: C_18  and  C_23
REMARK                            x       y       z     vdW  Elec       q    Type
REMARK                         _______ _______ _______ _____ _____    ______ ____
ROOT
ATOM      2  N   UNL     1      -3.122  -0.287  24.584  0.00  0.00    -0.297 NA
ATOM      5  C   UNL     1      -1.062  -1.000  23.719  0.00  0.00    +0.070 C 
ATOM      6  C   UNL     1      -1.359  -1.752  25.028  0.00  0.00    +0.028 C 
ATOM      7  C   UNL     1      -2.036   0.186  23.723  0.00  0.00    +0.096 C 
ATOM      8  C   UNL     1      -2.454  -0.941  25.709  0.00  0.00    +0.085 C 
ENDROOT
BRANCH   5   9
ATOM      3  N   UNL     1       1.408  -1.420  23.862  0.00  0.00    -0.342 N 
ATOM      4  N   UNL     1       0.810   0.574  23.083  0.00  0.00    -0.232 NA
ATOM      9  C   UNL     1       0.378  -0.580  23.542  0.00  0.00    +0.113 A 
ATOM     12  C   UNL     1       2.582  -0.764  23.593  0.00  0.00    +0.066 A 
ATOM     13  C   UNL     1       2.182   0.478  23.108  0.00  0.00    +0.089 A 
ATOM     14  C   UNL     1       3.919  -1.141  23.728  0.00  0.00    +0.031 A 
ATOM     15  C   UNL     1       3.160   1.413  22.732  0.00  0.00    +0.030 A 
ATOM     18  C   UNL     1       4.879  -0.197  23.348  0.00  0.00    -0.048 A 
ATOM     19  C   UNL     1       4.509   1.058  22.859  0.00  0.00    +0.005 A 
ATOM     23  C   UNL     1       6.328  -0.539  23.469  0.00  0.00    +0.044 C 
ATOM     24  H   UNL     1       1.323  -2.358  24.231  0.00  0.00    +0.167 HD
ENDBRANCH   5   9
BRANCH   2  10
ATOM     10  C   UNL     1      -4.001   0.791  25.011  0.00  0.00    +0.119 C 
BRANCH  10  11
ATOM      1  F   UNL     1      -1.324   5.746  25.181  0.00  0.00    -0.205 F 
ATOM     11  C   UNL     1      -3.285   2.115  25.057  0.00  0.00    -0.033 A 
ATOM     16  C   UNL     1      -3.891   3.253  24.525  0.00  0.00    +0.008 A 
ATOM     17  C   UNL     1      -2.017   2.204  25.631  0.00  0.00    +0.008 A 
ATOM     20  C   UNL     1      -3.228   4.480  24.567  0.00  0.00    +0.038 A 
ATOM     21  C   UNL     1      -1.355   3.430  25.673  0.00  0.00    +0.038 A 
ATOM     22  C   UNL     1      -1.961   4.568  25.141  0.00  0.00    +0.123 A 
ENDBRANCH  10  11
ENDBRANCH   2  10
TORSDOF 3
ENDMDL
MODEL 3
REMARK VINA RESULT:      -1.9      2.955      7.715
REMARK  Name = 51137098
REMARK  4 active torsions:
REMARK  status: ('A' for Active; 'I' for Inactive)
REMARK    1  A    between atoms: N_2  and  C_10
REMARK    2  A    between atoms: C_5  and  C_9
REMARK    3  A    between atoms: C_10  and  C_11
REMARK    4  A    between atoms: C_18  and  C_23
REMARK                            x       y       z     vdW  Elec       q    Type
REMARK                         _______ _______ _______ _____ _____    ______ ____
ROOT
ATOM      2  N   UNL     1      -3.620   2.110  25.093  0.00  0.00    -0.297 NA
ATOM      5  C   UNL     1      -1.367   2.458  24.547  0.00  0.00    +0.070 C 
ATOM      6  C   UNL     1      -2.262   3.175  23.521  0.00  0.00    +0.028 C 
ATOM      7  C   UNL     1      -2.307   1.486  25.272  0.00  0.00    +0.096 C 
ATOM      8  C   UNL     1      -3.641   2.554  23.700  0.00  0.00    +0.085 C 
ENDROOT
BRANCH   5   9
ATOM      3  N   UNL     1       1.110   2.081  24.395  0.00  0.00    -0.342 N 
ATOM      4  N   UNL     1      -0.141   0.858  23.023  0.00  0.00    -0.232 NA
ATOM      9  C   UNL     1      -0.151   1.777  23.963  0.00  0.00    +0.113 A 
ATOM     12  C   UNL     1       1.993   1.307  23.685  0.00  0.00    +0.066 A 
ATOM     13  C   UNL     1       1.188   0.553  22.836  0.00  0.00    +0.089 A 
ATOM     14  C   UNL     1       3.384   1.205  23.714  0.00  0.00    +0.031 A 
ATOM     15  C   UNL     1       1.789  -0.361  21.955  0.00  0.00    +0.030 A 
ATOM     18  C   UNL     1       3.966   0.290  22.831  0.00  0.00    -0.048 A 
ATOM     19  C   UNL     1       3.184  -0.480  21.966  0.00  0.00    +0.005 A 
ATOM     23  C   UNL     1       5.451   0.134  22.813  0.00  0.00    +0.044 C 
ATOM     24  H   UNL     1       1.352   2.754  25.109  0.00  0.00    +0.167 HD
ENDBRANCH   5   9
BRANCH   2  10
ATOM     10  C   UNL     1      -4.714   1.201  25.402  0.00  0.00    +0.119 C 
BRANCH  10  11
ATOM      1  F   UNL     1      -3.380  -4.153  24.257  0.00  0.00    -0.205 F 
ATOM     11  C   UNL     1      -4.357  -0.230  25.095  0.00  0.00    -0.033 A 
ATOM     16  C   UNL     1      -3.650  -0.986  26.029  0.00  0.00    +0.008 A 
ATOM     17  C   UNL     1      -4.734  -0.798  23.879  0.00  0.00    +0.008 A 
ATOM     20  C   UNL     1      -3.319  -2.312  25.746  0.00  0.00    +0.038 A 
ATOM     21  C   UNL     1      -4.404  -2.123  23.595  0.00  0.00    +0.038 A 
ATOM     22  C   UNL     1      -3.697  -2.880  24.529  0.00  0.00    +0.123 A 
ENDBRANCH  10  11
ENDBRANCH   2  10
TORSDOF 3
ENDMDL
MODEL 4
REMARK VINA RESULT:      -1.0      0.794      1.834
REMARK  Name = 51137098
REMARK  4 active torsions:
REMARK  status: ('A' for Active; 'I' for Inactive)
REMARK    1  A    between atoms: N_2  and  C_10
REMARK    2  A    between atoms: C_5  and  C_9
REMARK    3  A    between atoms: C_10  and  C_11
REMARK    4  A    between atoms: C_18  and  C_23
REMARK                            x       y       z     vdW  Elec       q    Type
REMARK                         _______ _______ _______ _____ _____    ______ ____
ROOT
ATOM      2  N   UNL     1       0.713  -0.710  23.542  0.00  0.00    -0.297 NA
ATOM      5  C   UNL     1      -0.820   0.207  25.060  0.00  0.00    +0.070 C 
ATOM      6  C   UNL     1      -1.455  -1.005  24.356  0.00  0.00    +0.028 C 
ATOM      7  C   UNL     1       0.401   0.560  24.201  0.00  0.00    +0.096 C 
ATOM      8  C   UNL     1      -0.583  -1.250  23.132  0.00  0.00    +0.085 C 
ENDROOT
BRANCH   5   9
ATOM      3  N   UNL     1      -3.077   1.299  24.945  0.00  0.00    -0.342 N 
ATOM      4  N   UNL     1      -1.436   2.555  25.764  0.00  0.00    -0.232 NA
ATOM      9  C   UNL     1      -1.751   1.378  25.270  0.00  0.00    +0.113 A 
ATOM     12  C   UNL     1      -3.655   2.506  25.247  0.00  0.00    +0.066 A 
ATOM     13  C   UNL     1      -2.610   3.272  25.758  0.00  0.00    +0.089 A 
ATOM     14  C   UNL     1      -4.962   2.978  25.124  0.00  0.00    +0.031 A 
ATOM     15  C   UNL     1      -2.866   4.589  26.173  0.00  0.00    +0.030 A 
ATOM     18  C   UNL     1      -5.199   4.291  25.542  0.00  0.00    -0.048 A 
ATOM     19  C   UNL     1      -4.171   5.085  26.057  0.00  0.00    +0.005 A 
ATOM     23  C   UNL     1      -6.578   4.855  25.435  0.00  0.00    +0.044 C 
ATOM     24  H   UNL     1      -3.550   0.497  24.551  0.00  0.00    +0.167 HD
ENDBRANCH   5   9
BRANCH   2  10
ATOM     10  C   UNL     1       1.624  -0.544  22.419  0.00  0.00    +0.119 C 
BRANCH  10  11
ATOM      1  F   UNL     1       6.946   0.181  24.122  0.00  0.00    -0.205 F 
ATOM     11  C   UNL     1       3.047  -0.351  22.874  0.00  0.00    -0.033 A 
ATOM     16  C   UNL     1       3.696   0.861  22.636  0.00  0.00    +0.008 A 
ATOM     17  C   UNL     1       3.715  -1.382  23.534  0.00  0.00    +0.008 A 
ATOM     20  C   UNL     1       5.014   1.040  23.058  0.00  0.00    +0.038 A 
ATOM     21  C   UNL     1       5.032  -1.203  23.955  0.00  0.00    +0.038 A 
ATOM     22  C   UNL     1       5.681   0.009  23.717  0.00  0.00    +0.123 A 
ENDBRANCH  10  11
ENDBRANCH   2  10
TORSDOF 3
ENDMDL
MODEL 5
REMARK VINA RESULT:      -0.7      3.969      7.188
REMARK  Name = 51137098
REMARK  4 active torsions:
REMARK  status: ('A' for Active; 'I' for Inactive)
REMARK    1  A    between atoms: N_2  and  C_10
REMARK    2  A    between atoms: C_5  and  C_9
REMARK    3  A    between atoms: C_10  and  C_11
REMARK    4  A    between atoms: C_18  and  C_23
REMARK                            x       y       z     vdW  Elec       q    Type
REMARK                         _______ _______ _______ _____ _____    ______ ____
ROOT
ATOM      2  N   UNL     1      -0.141   3.628  25.167  0.00  0.00    -0.297 NA
ATOM      5  C   UNL     1      -0.099   1.284  25.130  0.00  0.00    +0.070 C 
ATOM      6  C   UNL     1       0.659   1.832  23.909  0.00  0.00    +0.028 C 
ATOM      7  C   UNL     1      -0.907   2.479  25.654  0.00  0.00    +0.096 C 
ATOM      8  C   UNL     1       0.220   3.286  23.792  0.00  0.00    +0.085 C 
ENDROOT
BRANCH   5   9
ATOM      3  N   UNL     1      -2.250   0.195  24.434  0.00  0.00    -0.342 N 
ATOM      4  N   UNL     1      -0.595  -1.189  24.970  0.00  0.00    -0.232 NA
ATOM      9  C   UNL     1      -0.955   0.070  24.854  0.00  0.00    +0.113 A 
ATOM     12  C   UNL     1      -2.760  -1.068  24.269  0.00  0.00    +0.066 A 
ATOM     13  C   UNL     1      -1.707  -1.914  24.609  0.00  0.00    +0.089 A 
ATOM     14  C   UNL     1      -4.013  -1.529  23.862  0.00  0.00    +0.031 A 
ATOM     15  C   UNL     1      -1.899  -3.304  24.547  0.00  0.00    +0.030 A 
ATOM     18  C   UNL     1      -4.185  -2.916  23.806  0.00  0.00    -0.048 A 
ATOM     19  C   UNL     1      -3.148  -3.790  24.142  0.00  0.00    +0.005 A 
ATOM     23  C   UNL     1      -5.504  -3.472  23.378  0.00  0.00    +0.044 C 
ATOM     24  H   UNL     1      -2.747   1.060  24.272  0.00  0.00    +0.167 HD
ENDBRANCH   5   9
BRANCH   2  10
ATOM     10  C   UNL     1      -0.892   4.872  25.250  0.00  0.00    +0.119 C 
BRANCH  10  11
ATOM      1  F   UNL     1      -6.446   3.955  25.502  0.00  0.00    -0.205 F 
ATOM     11  C   UNL     1      -2.377   4.627  25.318  0.00  0.00    -0.033 A 
ATOM     16  C   UNL     1      -3.115   4.495  24.142  0.00  0.00    +0.008 A 
ATOM     17  C   UNL     1      -3.013   4.533  26.555  0.00  0.00    +0.008 A 
ATOM     20  C   UNL     1      -4.491   4.267  24.204  0.00  0.00    +0.038 A 
ATOM     21  C   UNL     1      -4.387   4.306  26.618  0.00  0.00    +0.038 A 
ATOM     22  C   UNL     1      -5.126   4.173  25.442  0.00  0.00    +0.123 A 
ENDBRANCH  10  11
ENDBRANCH   2  10
TORSDOF 3
ENDMDL
MODEL 6
REMARK VINA RESULT:      -0.4      2.608      7.439
REMARK  Name = 51137098
REMARK  4 active torsions:
REMARK  status: ('A' for Active; 'I' for Inactive)
REMARK    1  A    between atoms: N_2  and  C_10
REMARK    2  A    between atoms: C_5  and  C_9
REMARK    3  A    between atoms: C_10  and  C_11
REMARK    4  A    between atoms: C_18  and  C_23
REMARK                            x       y       z     vdW  Elec       q    Type
REMARK                         _______ _______ _______ _____ _____    ______ ____
ROOT
ATOM      2  N   UNL     1      -4.605   0.396  24.752  0.00  0.00    -0.297 NA
ATOM      5  C   UNL     1      -2.720  -0.837  24.101  0.00  0.00    +0.070 C 
ATOM      6  C   UNL     1      -3.160  -1.274  25.509  0.00  0.00    +0.028 C 
ATOM      7  C   UNL     1      -3.445   0.494  23.863  0.00  0.00    +0.096 C 
ATOM      8  C   UNL     1      -4.080  -0.162  25.997  0.00  0.00    +0.085 C 
ENDROOT
BRANCH   5   9
ATOM      3  N   UNL     1      -0.648   0.400  23.412  0.00  0.00    -0.342 N 
ATOM      4  N   UNL     1      -0.333  -1.665  24.172  0.00  0.00    -0.232 NA
ATOM      9  C   UNL     1      -1.225  -0.736  23.907  0.00  0.00    +0.113 A 
ATOM     12  C   UNL     1       0.706   0.190  23.352  0.00  0.00    +0.066 A 
ATOM     13  C   UNL     1       0.877  -1.105  23.832  0.00  0.00    +0.089 A 
ATOM     14  C   UNL     1       1.764   0.999  22.933  0.00  0.00    +0.031 A 
ATOM     15  C   UNL     1       2.173  -1.643  23.905  0.00  0.00    +0.030 A 
ATOM     18  C   UNL     1       3.047   0.447  23.013  0.00  0.00    -0.048 A 
ATOM     19  C   UNL     1       3.250  -0.851  23.489  0.00  0.00    +0.005 A 
ATOM     23  C   UNL     1       4.221   1.262  22.579  0.00  0.00    +0.044 C 
ATOM     24  H   UNL     1      -1.130   1.246  23.137  0.00  0.00    +0.167 HD
ENDBRANCH   5   9
BRANCH   2  10
ATOM     10  C   UNL     1      -5.260   1.680  24.953  0.00  0.00    +0.119 C 
BRANCH  10  11
ATOM      1  F   UNL     1      -1.547   5.905  25.282  0.00  0.00    -0.205 F 
ATOM     11  C   UNL     1      -4.268   2.809  25.042  0.00  0.00    -0.033 A 
ATOM     16  C   UNL     1      -3.730   3.357  23.877  0.00  0.00    +0.008 A 
ATOM     17  C   UNL     1      -3.886   3.308  26.287  0.00  0.00    +0.008 A 
ATOM     20  C   UNL     1      -2.811   4.403  23.958  0.00  0.00    +0.038 A 
ATOM     21  C   UNL     1      -2.967   4.353  26.368  0.00  0.00    +0.038 A 
ATOM     22  C   UNL     1      -2.430   4.901  25.204  0.00  0.00    +0.123 A 
ENDBRANCH  10  11
ENDBRANCH   2  10
TORSDOF 3
ENDMDL
