MODEL 1
REMARK VINA RESULT:      10.3      0.000      0.000
REMARK  Name = 11885131
REMARK  4 active torsions:
REMARK  status: ('A' for Active; 'I' for Inactive)
REMARK    1  A    between atoms: O_3  and  C_30
REMARK    2  A    between atoms: O_3  and  C_31
REMARK    3  A    between atoms: N_6  and  C_15
REMARK    4  A    between atoms: C_22  and  C_25
REMARK                            x       y       z     vdW  Elec       q    Type
REMARK                         _______ _______ _______ _____ _____    ______ ____
ROOT
ATOM      1  O   UNL     1      -3.403   2.071  26.581  0.00  0.00    -0.253 OA
ATOM      2  O   UNL     1      -0.320  -0.450  22.052  0.00  0.00    -0.267 OA
ATOM      4  N   UNL     1      -4.223   0.453  25.131  0.00  0.00    -0.285 N 
ATOM      5  N   UNL     1      -1.816  -1.138  23.703  0.00  0.00    -0.311 N 
ATOM      6  N   UNL     1      -4.087   2.727  24.492  0.00  0.00    -0.296 N 
ATOM      7  C   UNL     1      -4.340  -1.270  23.307  0.00  0.00    +0.027 C 
ATOM      8  C   UNL     1      -3.419  -1.881  25.498  0.00  0.00    +0.054 C 
ATOM      9  C   UNL     1      -4.315  -2.366  24.363  0.00  0.00    +0.018 C 
ATOM     10  C   UNL     1      -4.893   0.047  23.886  0.00  0.00    +0.114 C 
ATOM     11  C   UNL     1      -4.030  -0.614  26.120  0.00  0.00    +0.119 C 
ATOM     12  C   UNL     1      -2.925  -1.097  22.741  0.00  0.00    +0.130 C 
ATOM     13  C   UNL     1      -2.013  -1.588  25.010  0.00  0.00    +0.027 A 
ATOM     14  C   UNL     1      -3.870   1.771  25.478  0.00  0.00    +0.302 C 
ATOM     16  C   UNL     1      -0.964  -1.736  25.836  0.00  0.00    +0.022 A 
ATOM     17  C   UNL     1      -0.537  -0.814  23.209  0.00  0.00    +0.259 A 
ATOM     22  C   UNL     1       0.613  -0.952  24.170  0.00  0.00    +0.047 A 
ATOM     24  C   UNL     1       0.365  -1.405  25.407  0.00  0.00    +0.015 A 
ATOM     32  H   UNL     1      -4.605   2.500  23.656  0.00  0.00    +0.151 HD
ENDROOT
BRANCH   6  15
ATOM     15  C   UNL     1      -3.781   4.126  24.697  0.00  0.00    +0.074 C 
ATOM     18  C   UNL     1      -3.166   4.357  26.081  0.00  0.00    +0.022 C 
ATOM     19  C   UNL     1      -2.869   4.659  23.587  0.00  0.00    +0.022 C 
ATOM     20  C   UNL     1      -1.739   3.821  26.184  0.00  0.00    +0.002 C 
ATOM     21  C   UNL     1      -1.443   4.121  23.694  0.00  0.00    +0.002 C 
ATOM     23  C   UNL     1      -0.847   4.374  25.076  0.00  0.00    +0.000 C 
ENDBRANCH   6  15
BRANCH  22  25
ATOM     25  C   UNL     1       1.986  -0.594  23.774  0.00  0.00    -0.012 A 
ATOM     26  C   UNL     1       2.247   0.655  23.207  0.00  0.00    +0.012 A 
ATOM     27  C   UNL     1       3.028  -1.503  23.965  0.00  0.00    +0.012 A 
ATOM     28  C   UNL     1       3.547   0.992  22.831  0.00  0.00    +0.046 A 
ATOM     29  C   UNL     1       4.328  -1.165  23.590  0.00  0.00    +0.046 A 
ATOM     30  C   UNL     1       4.588   0.083  23.023  0.00  0.00    +0.120 A 
BRANCH  30   3
ATOM      3  O   UNL     1       5.856   0.414  22.657  0.00  0.00    -0.495 OA
ATOM     31  C   UNL     1       6.917  -0.341  23.239  0.00  0.00    +0.277 C 
ENDBRANCH  30   3
ENDBRANCH  22  25
TORSDOF 3
ENDMDL
MODEL 2
REMARK VINA RESULT:      10.8      1.696      4.610
REMARK  Name = 11885131
REMARK  4 active torsions:
REMARK  status: ('A' for Active; 'I' for Inactive)
REMARK    1  A    between atoms: O_3  and  C_30
REMARK    2  A    between atoms: O_3  and  C_31
REMARK    3  A    between atoms: N_6  and  C_15
REMARK    4  A    between atoms: C_22  and  C_25
REMARK                            x       y       z     vdW  Elec       q    Type
REMARK                         _______ _______ _______ _____ _____    ______ ____
ROOT
ATOM      1  O   UNL     1      -4.484  -0.080  23.572  0.00  0.00    -0.253 OA
ATOM      2  O   UNL     1       0.732   1.933  25.832  0.00  0.00    -0.267 OA
ATOM      4  N   UNL     1      -4.238   1.785  24.933  0.00  0.00    -0.285 N 
ATOM      5  N   UNL     1      -1.197   2.844  24.893  0.00  0.00    -0.311 N 
ATOM      6  N   UNL     1      -4.246  -0.404  25.830  0.00  0.00    -0.296 N 
ATOM      7  C   UNL     1      -3.189   3.610  26.305  0.00  0.00    +0.027 C 
ATOM      8  C   UNL     1      -3.276   3.824  23.862  0.00  0.00    +0.054 C 
ATOM      9  C   UNL     1      -3.448   4.590  25.170  0.00  0.00    +0.018 C 
ATOM     10  C   UNL     1      -4.177   2.428  26.255  0.00  0.00    +0.114 C 
ATOM     11  C   UNL     1      -4.325   2.703  23.790  0.00  0.00    +0.119 C 
ATOM     12  C   UNL     1      -1.731   3.140  26.229  0.00  0.00    +0.130 C 
ATOM     13  C   UNL     1      -1.883   3.236  23.741  0.00  0.00    +0.027 A 
ATOM     14  C   UNL     1      -4.331   0.400  24.699  0.00  0.00    +0.302 C 
ATOM     16  C   UNL     1      -1.321   3.067  22.533  0.00  0.00    +0.022 A 
ATOM     17  C   UNL     1       0.081   2.256  24.838  0.00  0.00    +0.259 A 
ATOM     22  C   UNL     1       0.669   2.045  23.468  0.00  0.00    +0.047 A 
ATOM     24  C   UNL     1      -0.029   2.457  22.400  0.00  0.00    +0.015 A 
ATOM     32  H   UNL     1      -4.273  -0.000  26.756  0.00  0.00    +0.151 HD
ENDROOT
BRANCH   6  15
ATOM     15  C   UNL     1      -4.331  -1.845  25.757  0.00  0.00    +0.074 C 
ATOM     18  C   UNL     1      -4.460  -2.316  24.305  0.00  0.00    +0.022 C 
ATOM     19  C   UNL     1      -3.134  -2.504  26.450  0.00  0.00    +0.022 C 
ATOM     20  C   UNL     1      -3.160  -2.149  23.518  0.00  0.00    +0.002 C 
ATOM     21  C   UNL     1      -1.836  -2.336  25.660  0.00  0.00    +0.002 C 
ATOM     23  C   UNL     1      -1.985  -2.822  24.222  0.00  0.00    +0.000 C 
ENDBRANCH   6  15
BRANCH  22  25
ATOM     25  C   UNL     1       1.979   1.394  23.291  0.00  0.00    -0.012 A 
ATOM     26  C   UNL     1       3.114   2.165  23.035  0.00  0.00    +0.012 A 
ATOM     27  C   UNL     1       2.086   0.005  23.379  0.00  0.00    +0.012 A 
ATOM     28  C   UNL     1       4.353   1.547  22.867  0.00  0.00    +0.046 A 
ATOM     29  C   UNL     1       3.325  -0.612  23.212  0.00  0.00    +0.046 A 
ATOM     30  C   UNL     1       4.459   0.159  22.956  0.00  0.00    +0.120 A 
BRANCH  30   3
ATOM      3  O   UNL     1       5.669  -0.442  22.792  0.00  0.00    -0.495 OA
ATOM     31  C   UNL     1       6.462  -0.635  23.962  0.00  0.00    +0.277 C 
ENDBRANCH  30   3
ENDBRANCH  22  25
TORSDOF 3
ENDMDL
