MODEL 1
REMARK VINA RESULT:      -7.2      0.000      0.000
REMARK  Name = 51137058
REMARK  3 active torsions:
REMARK  status: ('A' for Active; 'I' for Inactive)
REMARK    1  A    between atoms: N_2  and  C_5
REMARK    2  A    between atoms: C_4  and  C_5
REMARK    3  A    between atoms: C_6  and  C_15
REMARK                            x       y       z     vdW  Elec       q    Type
REMARK                         _______ _______ _______ _____ _____    ______ ____
ROOT
ATOM      2  N   UNL     1      -0.476   3.839  25.309  0.00  0.00    -0.301 NA
ATOM      6  C   UNL     1      -0.358   1.498  25.397  0.00  0.00    +0.090 C 
ATOM      7  C   UNL     1      -1.255   2.687  25.769  0.00  0.00    +0.097 C 
ATOM     10  C   UNL     1       0.043   3.445  24.000  0.00  0.00    +0.085 C 
ATOM     11  C   UNL     1       0.511   2.015  24.236  0.00  0.00    +0.029 C 
ENDROOT
BRANCH   6  15
ATOM      1  O   UNL     1      -2.436   0.428  24.704  0.00  0.00    -0.439 OA
ATOM      3  N   UNL     1      -0.741  -1.008  25.157  0.00  0.00    -0.213 NA
ATOM     15  C   UNL     1      -1.143   0.242  25.093  0.00  0.00    +0.201 A 
ATOM     16  C   UNL     1      -2.894  -0.843  24.502  0.00  0.00    +0.155 A 
ATOM     17  C   UNL     1      -1.854  -1.718  24.779  0.00  0.00    +0.110 A 
ATOM     18  C   UNL     1      -4.165  -1.227  24.091  0.00  0.00    +0.048 A 
ATOM     19  C   UNL     1      -2.074  -3.096  24.645  0.00  0.00    +0.031 A 
ATOM     20  C   UNL     1      -4.367  -2.605  23.961  0.00  0.00    +0.004 A 
ATOM     21  C   UNL     1      -3.344  -3.523  24.232  0.00  0.00    +0.002 A 
ENDBRANCH   6  15
BRANCH   2   5
ATOM      5  C   UNL     1      -1.271   5.057  25.246  0.00  0.00    +0.088 C 
BRANCH   5   4
ATOM      4  C   UNL     1      -2.746   4.734  25.017  0.00  0.00    +0.003 C 
ATOM      8  C   UNL     1      -2.913   3.771  23.834  0.00  0.00    +0.005 C 
ATOM      9  C   UNL     1      -3.376   4.150  26.289  0.00  0.00    +0.005 C 
ATOM     12  C   UNL     1      -4.377   3.391  23.619  0.00  0.00    +0.000 C 
ATOM     13  C   UNL     1      -4.839   3.769  26.070  0.00  0.00    +0.000 C 
ATOM     14  C   UNL     1      -5.001   2.820  24.887  0.00  0.00    +0.000 C 
ENDBRANCH   5   4
ENDBRANCH   2   5
TORSDOF 3
ENDMDL
MODEL 2
REMARK VINA RESULT:      -6.6      2.879      6.416
REMARK  Name = 51137058
REMARK  3 active torsions:
REMARK  status: ('A' for Active; 'I' for Inactive)
REMARK    1  A    between atoms: N_2  and  C_5
REMARK    2  A    between atoms: C_4  and  C_5
REMARK    3  A    between atoms: C_6  and  C_15
REMARK                            x       y       z     vdW  Elec       q    Type
REMARK                         _______ _______ _______ _____ _____    ______ ____
ROOT
ATOM      2  N   UNL     1       0.898  -0.270  23.659  0.00  0.00    -0.301 NA
ATOM      6  C   UNL     1      -0.731   0.521  25.149  0.00  0.00    +0.090 C 
ATOM      7  C   UNL     1       0.199   0.967  24.012  0.00  0.00    +0.097 C 
ATOM     10  C   UNL     1      -0.140  -1.301  23.656  0.00  0.00    +0.085 C 
ATOM     11  C   UNL     1      -0.935  -0.987  24.916  0.00  0.00    +0.029 C 
ENDROOT
BRANCH   6  15
ATOM      1  O   UNL     1      -3.164   0.635  25.049  0.00  0.00    -0.439 OA
ATOM      3  N   UNL     1      -2.141   2.624  25.420  0.00  0.00    -0.213 NA
ATOM     15  C   UNL     1      -2.005   1.332  25.219  0.00  0.00    +0.201 A 
ATOM     16  C   UNL     1      -4.131   1.592  25.157  0.00  0.00    +0.155 A 
ATOM     17  C   UNL     1      -3.502   2.807  25.384  0.00  0.00    +0.110 A 
ATOM     18  C   UNL     1      -5.507   1.418  25.062  0.00  0.00    +0.048 A 
ATOM     19  C   UNL     1      -4.287   3.960  25.532  0.00  0.00    +0.031 A 
ATOM     20  C   UNL     1      -6.275   2.577  25.213  0.00  0.00    +0.004 A 
ATOM     21  C   UNL     1      -5.680   3.824  25.443  0.00  0.00    +0.002 A 
ENDBRANCH   6  15
BRANCH   2   5
ATOM      5  C   UNL     1       1.586  -0.173  22.380  0.00  0.00    +0.088 C 
BRANCH   5   4
ATOM      4  C   UNL     1       3.096  -0.310  22.563  0.00  0.00    +0.003 C 
ATOM      8  C   UNL     1       3.725   1.044  22.919  0.00  0.00    +0.005 C 
ATOM      9  C   UNL     1       3.419  -1.360  23.635  0.00  0.00    +0.005 C 
ATOM     12  C   UNL     1       5.228   0.921  23.159  0.00  0.00    +0.000 C 
ATOM     13  C   UNL     1       4.922  -1.479  23.874  0.00  0.00    +0.000 C 
ATOM     14  C   UNL     1       5.545  -0.129  24.218  0.00  0.00    +0.000 C 
ENDBRANCH   5   4
ENDBRANCH   2   5
TORSDOF 3
ENDMDL
MODEL 3
REMARK VINA RESULT:      -6.1      1.408      3.529
REMARK  Name = 51137058
REMARK  3 active torsions:
REMARK  status: ('A' for Active; 'I' for Inactive)
REMARK    1  A    between atoms: N_2  and  C_5
REMARK    2  A    between atoms: C_4  and  C_5
REMARK    3  A    between atoms: C_6  and  C_15
REMARK                            x       y       z     vdW  Elec       q    Type
REMARK                         _______ _______ _______ _____ _____    ______ ____
ROOT
ATOM      2  N   UNL     1      -3.437   4.459  24.959  0.00  0.00    -0.301 NA
ATOM      6  C   UNL     1      -4.380   2.386  24.398  0.00  0.00    +0.090 C 
ATOM      7  C   UNL     1      -3.124   3.246  24.201  0.00  0.00    +0.097 C 
ATOM     10  C   UNL     1      -4.047   3.982  26.200  0.00  0.00    +0.085 C 
ATOM     11  C   UNL     1      -4.995   2.893  25.715  0.00  0.00    +0.029 C 
ENDROOT
BRANCH   6  15
ATOM      1  O   UNL     1      -2.796   0.544  24.604  0.00  0.00    -0.439 OA
ATOM      3  N   UNL     1      -4.920  -0.087  24.125  0.00  0.00    -0.213 NA
ATOM     15  C   UNL     1      -4.088   0.903  24.362  0.00  0.00    +0.201 A 
ATOM     16  C   UNL     1      -2.820  -0.818  24.509  0.00  0.00    +0.155 A 
ATOM     17  C   UNL     1      -4.120  -1.200  24.217  0.00  0.00    +0.110 A 
ATOM     18  C   UNL     1      -1.754  -1.695  24.672  0.00  0.00    +0.048 A 
ATOM     19  C   UNL     1      -4.408  -2.565  24.068  0.00  0.00    +0.031 A 
ATOM     20  C   UNL     1      -2.058  -3.051  24.520  0.00  0.00    +0.004 A 
ATOM     21  C   UNL     1      -3.358  -3.481  24.224  0.00  0.00    +0.002 A 
ENDBRANCH   6  15
BRANCH   2   5
ATOM      5  C   UNL     1      -2.262   5.283  25.201  0.00  0.00    +0.088 C 
BRANCH   5   4
ATOM      4  C   UNL     1      -1.001   4.423  25.271  0.00  0.00    +0.003 C 
ATOM      8  C   UNL     1      -1.144   3.335  26.344  0.00  0.00    +0.005 C 
ATOM      9  C   UNL     1      -0.691   3.804  23.902  0.00  0.00    +0.005 C 
ATOM     12  C   UNL     1       0.084   2.430  26.395  0.00  0.00    +0.000 C 
ATOM     13  C   UNL     1       0.537   2.897  23.958  0.00  0.00    +0.000 C 
ATOM     14  C   UNL     1       0.394   1.823  25.031  0.00  0.00    +0.000 C 
ENDBRANCH   5   4
ENDBRANCH   2   5
TORSDOF 3
ENDMDL
MODEL 4
REMARK VINA RESULT:      -5.6     16.515     19.137
REMARK  Name = 51137058
REMARK  3 active torsions:
REMARK  status: ('A' for Active; 'I' for Inactive)
REMARK    1  A    between atoms: N_2  and  C_5
REMARK    2  A    between atoms: C_4  and  C_5
REMARK    3  A    between atoms: C_6  and  C_15
REMARK                            x       y       z     vdW  Elec       q    Type
REMARK                         _______ _______ _______ _____ _____    ______ ____
ROOT
ATOM      2  N   UNL     1      11.083  -9.052  31.712  0.00  0.00    -0.301 NA
ATOM      6  C   UNL     1      12.719  -7.742  30.660  0.00  0.00    +0.090 C 
ATOM      7  C   UNL     1      11.607  -7.684  31.717  0.00  0.00    +0.097 C 
ATOM     10  C   UNL     1      12.267  -9.909  31.659  0.00  0.00    +0.085 C 
ATOM     11  C   UNL     1      13.137  -9.222  30.615  0.00  0.00    +0.029 C 
ENDROOT
BRANCH   6  15
ATOM      1  O   UNL     1      13.470  -5.537  31.379  0.00  0.00    -0.439 OA
ATOM      3  N   UNL     1      15.138  -6.961  30.807  0.00  0.00    -0.213 NA
ATOM     15  C   UNL     1      13.844  -6.771  30.938  0.00  0.00    +0.201 A 
ATOM     16  C   UNL     1      14.658  -4.883  31.544  0.00  0.00    +0.155 A 
ATOM     17  C   UNL     1      15.676  -5.758  31.193  0.00  0.00    +0.110 A 
ATOM     18  C   UNL     1      14.850  -3.578  31.982  0.00  0.00    +0.048 A 
ATOM     19  C   UNL     1      17.005  -5.319  31.277  0.00  0.00    +0.031 A 
ATOM     20  C   UNL     1      16.182  -3.157  32.061  0.00  0.00    +0.004 A 
ATOM     21  C   UNL     1      17.240  -4.008  31.716  0.00  0.00    +0.002 A 
ENDBRANCH   6  15
BRANCH   2   5
ATOM      5  C   UNL     1      10.249  -9.331  32.872  0.00  0.00    +0.088 C 
BRANCH   5   4
ATOM      4  C   UNL     1       8.795  -9.548  32.456  0.00  0.00    +0.003 C 
ATOM      8  C   UNL     1       8.146  -8.221  32.039  0.00  0.00    +0.005 C 
ATOM      9  C   UNL     1       8.703 -10.581  31.325  0.00  0.00    +0.005 C 
ATOM     12  C   UNL     1       6.707  -8.421  31.568  0.00  0.00    +0.000 C 
ATOM     13  C   UNL     1       7.263 -10.777  30.856  0.00  0.00    +0.000 C 
ATOM     14  C   UNL     1       6.619  -9.454  30.450  0.00  0.00    +0.000 C 
ENDBRANCH   5   4
ENDBRANCH   2   5
TORSDOF 3
ENDMDL
MODEL 5
REMARK VINA RESULT:      -4.7     17.646     20.024
REMARK  Name = 51137058
REMARK  3 active torsions:
REMARK  status: ('A' for Active; 'I' for Inactive)
REMARK    1  A    between atoms: N_2  and  C_5
REMARK    2  A    between atoms: C_4  and  C_5
REMARK    3  A    between atoms: C_6  and  C_15
REMARK                            x       y       z     vdW  Elec       q    Type
REMARK                         _______ _______ _______ _____ _____    ______ ____
ROOT
ATOM      2  N   UNL     1      12.923 -10.040  32.076  0.00  0.00    -0.301 NA
ATOM      6  C   UNL     1      14.249 -10.363  30.168  0.00  0.00    +0.090 C 
ATOM      7  C   UNL     1      12.918  -9.760  30.638  0.00  0.00    +0.097 C 
ATOM     10  C   UNL     1      14.285  -9.736  32.514  0.00  0.00    +0.085 C 
ATOM     11  C   UNL     1      15.142 -10.360  31.421  0.00  0.00    +0.029 C 
ENDROOT
BRANCH   6  15
ATOM      1  O   UNL     1      15.022  -8.304  29.118  0.00  0.00    -0.439 OA
ATOM      3  N   UNL     1      15.172 -10.145  27.805  0.00  0.00    -0.213 NA
ATOM     15  C   UNL     1      14.830  -9.645  28.971  0.00  0.00    +0.201 A 
ATOM     16  C   UNL     1      15.542  -7.922  27.915  0.00  0.00    +0.155 A 
ATOM     17  C   UNL     1      15.633  -9.050  27.115  0.00  0.00    +0.110 A 
ATOM     18  C   UNL     1      15.925  -6.643  27.527  0.00  0.00    +0.048 A 
ATOM     19  C   UNL     1      16.142  -8.920  25.814  0.00  0.00    +0.031 A 
ATOM     20  C   UNL     1      16.431  -6.531  26.228  0.00  0.00    +0.004 A 
ATOM     21  C   UNL     1      16.539  -7.645  25.387  0.00  0.00    +0.002 A 
ENDBRANCH   6  15
BRANCH   2   5
ATOM      5  C   UNL     1      11.923  -9.267  32.796  0.00  0.00    +0.088 C 
BRANCH   5   4
ATOM      4  C   UNL     1      10.563  -9.360  32.107  0.00  0.00    +0.003 C 
ATOM      8  C   UNL     1       9.872 -10.688  32.446  0.00  0.00    +0.005 C 
ATOM      9  C   UNL     1       9.676  -8.169  32.495  0.00  0.00    +0.005 C 
ATOM     12  C   UNL     1       8.487 -10.781  31.811  0.00  0.00    +0.000 C 
ATOM     13  C   UNL     1       8.291  -8.267  31.859  0.00  0.00    +0.000 C 
ATOM     14  C   UNL     1       7.612  -9.592  32.191  0.00  0.00    +0.000 C 
ENDBRANCH   5   4
ENDBRANCH   2   5
TORSDOF 3
ENDMDL
MODEL 6
REMARK VINA RESULT:      -4.4     16.841     19.095
REMARK  Name = 51137058
REMARK  3 active torsions:
REMARK  status: ('A' for Active; 'I' for Inactive)
REMARK    1  A    between atoms: N_2  and  C_5
REMARK    2  A    between atoms: C_4  and  C_5
REMARK    3  A    between atoms: C_6  and  C_15
REMARK                            x       y       z     vdW  Elec       q    Type
REMARK                         _______ _______ _______ _____ _____    ______ ____
ROOT
ATOM      2  N   UNL     1      11.566  -7.701  32.482  0.00  0.00    -0.301 NA
ATOM      6  C   UNL     1      13.568  -8.361  31.453  0.00  0.00    +0.090 C 
ATOM      7  C   UNL     1      12.043  -8.386  31.278  0.00  0.00    +0.097 C 
ATOM     10  C   UNL     1      12.461  -6.555  32.643  0.00  0.00    +0.085 C 
ATOM     11  C   UNL     1      13.834  -7.156  32.374  0.00  0.00    +0.029 C 
ENDROOT
BRANCH   6  15
ATOM      1  O   UNL     1      14.660  -7.096  29.679  0.00  0.00    -0.439 OA
ATOM      3  N   UNL     1      14.661  -9.343  29.374  0.00  0.00    -0.213 NA
ATOM     15  C   UNL     1      14.310  -8.331  30.137  0.00  0.00    +0.201 A 
ATOM     16  C   UNL     1      15.301  -7.362  28.502  0.00  0.00    +0.155 A 
ATOM     17  C   UNL     1      15.300  -8.736  28.320  0.00  0.00    +0.110 A 
ATOM     18  C   UNL     1      15.865  -6.446  27.622  0.00  0.00    +0.048 A 
ATOM     19  C   UNL     1      15.904  -9.268  27.171  0.00  0.00    +0.031 A 
ATOM     20  C   UNL     1      16.464  -6.992  26.482  0.00  0.00    +0.004 A 
ATOM     21  C   UNL     1      16.485  -8.375  26.259  0.00  0.00    +0.002 A 
ENDBRANCH   6  15
BRANCH   2   5
ATOM      5  C   UNL     1      10.169  -7.302  32.377  0.00  0.00    +0.088 C 
BRANCH   5   4
ATOM      4  C   UNL     1       9.315  -8.450  31.841  0.00  0.00    +0.003 C 
ATOM      8  C   UNL     1       9.258  -9.603  32.851  0.00  0.00    +0.005 C 
ATOM      9  C   UNL     1       7.904  -7.957  31.494  0.00  0.00    +0.005 C 
ATOM     12  C   UNL     1       8.366 -10.740  32.359  0.00  0.00    +0.000 C 
ATOM     13  C   UNL     1       7.014  -9.097  31.004  0.00  0.00    +0.000 C 
ATOM     14  C   UNL     1       6.967 -10.245  32.007  0.00  0.00    +0.000 C 
ENDBRANCH   5   4
ENDBRANCH   2   5
TORSDOF 3
ENDMDL
MODEL 7
REMARK VINA RESULT:      -4.4      2.213      4.960
REMARK  Name = 51137058
REMARK  3 active torsions:
REMARK  status: ('A' for Active; 'I' for Inactive)
REMARK    1  A    between atoms: N_2  and  C_5
REMARK    2  A    between atoms: C_4  and  C_5
REMARK    3  A    between atoms: C_6  and  C_15
REMARK                            x       y       z     vdW  Elec       q    Type
REMARK                         _______ _______ _______ _____ _____    ______ ____
ROOT
ATOM      2  N   UNL     1      -3.769   1.993  25.244  0.00  0.00    -0.301 NA
ATOM      6  C   UNL     1      -1.434   2.196  25.160  0.00  0.00    +0.090 C 
ATOM      7  C   UNL     1      -2.567   1.160  25.168  0.00  0.00    +0.097 C 
ATOM     10  C   UNL     1      -3.526   3.093  24.311  0.00  0.00    +0.085 C 
ATOM     11  C   UNL     1      -2.082   3.478  24.608  0.00  0.00    +0.029 C 
ENDROOT
BRANCH   6  15
ATOM      1  O   UNL     1      -0.415   0.709  23.519  0.00  0.00    -0.439 OA
ATOM      3  N   UNL     1       1.023   2.167  24.491  0.00  0.00    -0.213 NA
ATOM     15  C   UNL     1      -0.212   1.725  24.404  0.00  0.00    +0.201 A 
ATOM     16  C   UNL     1       0.826   0.491  22.992  0.00  0.00    +0.155 A 
ATOM     17  C   UNL     1       1.702   1.385  23.589  0.00  0.00    +0.110 A 
ATOM     18  C   UNL     1       1.183  -0.447  22.031  0.00  0.00    +0.048 A 
ATOM     19  C   UNL     1       3.053   1.361  23.214  0.00  0.00    +0.031 A 
ATOM     20  C   UNL     1       2.533  -0.457  21.668  0.00  0.00    +0.004 A 
ATOM     21  C   UNL     1       3.453   0.428  22.246  0.00  0.00    +0.002 A 
ENDBRANCH   6  15
BRANCH   2   5
ATOM      5  C   UNL     1      -4.980   1.252  24.924  0.00  0.00    +0.088 C 
BRANCH   5   4
ATOM      4  C   UNL     1      -4.727  -0.253  24.980  0.00  0.00    +0.003 C 
ATOM      8  C   UNL     1      -4.337  -0.790  23.597  0.00  0.00    +0.005 C 
ATOM      9  C   UNL     1      -3.646  -0.582  26.019  0.00  0.00    +0.005 C 
ATOM     12  C   UNL     1      -4.027  -2.285  23.639  0.00  0.00    +0.000 C 
ATOM     13  C   UNL     1      -3.337  -2.077  26.057  0.00  0.00    +0.000 C 
ATOM     14  C   UNL     1      -2.959  -2.609  24.678  0.00  0.00    +0.000 C 
ENDBRANCH   5   4
ENDBRANCH   2   5
TORSDOF 3
ENDMDL
MODEL 8
REMARK VINA RESULT:      -4.3      3.024      5.195
REMARK  Name = 51137058
REMARK  3 active torsions:
REMARK  status: ('A' for Active; 'I' for Inactive)
REMARK    1  A    between atoms: N_2  and  C_5
REMARK    2  A    between atoms: C_4  and  C_5
REMARK    3  A    between atoms: C_6  and  C_15
REMARK                            x       y       z     vdW  Elec       q    Type
REMARK                         _______ _______ _______ _____ _____    ______ ____
ROOT
ATOM      2  N   UNL     1      -2.608   0.104  24.180  0.00  0.00    -0.301 NA
ATOM      6  C   UNL     1      -0.534  -0.812  23.580  0.00  0.00    +0.090 C 
ATOM      7  C   UNL     1      -1.449   0.395  23.332  0.00  0.00    +0.097 C 
ATOM     10  C   UNL     1      -2.042  -0.386  25.436  0.00  0.00    +0.085 C 
ATOM     11  C   UNL     1      -0.946  -1.334  24.968  0.00  0.00    +0.029 C 
ENDROOT
BRANCH   6  15
ATOM      1  O   UNL     1       1.806  -1.421  23.886  0.00  0.00    -0.439 OA
ATOM      3  N   UNL     1       1.478   0.611  22.937  0.00  0.00    -0.213 NA
ATOM     15  C   UNL     1       0.933  -0.476  23.437  0.00  0.00    +0.201 A 
ATOM     16  C   UNL     1       3.031  -0.868  23.641  0.00  0.00    +0.155 A 
ATOM     17  C   UNL     1       2.825   0.374  23.060  0.00  0.00    +0.110 A 
ATOM     18  C   UNL     1       4.277  -1.421  23.910  0.00  0.00    +0.048 A 
ATOM     19  C   UNL     1       3.939   1.151  22.710  0.00  0.00    +0.031 A 
ATOM     20  C   UNL     1       5.377  -0.634  23.554  0.00  0.00    +0.004 A 
ATOM     21  C   UNL     1       5.215   0.627  22.965  0.00  0.00    +0.002 A 
ENDBRANCH   6  15
BRANCH   2   5
ATOM      5  C   UNL     1      -3.460   1.269  24.373  0.00  0.00    +0.088 C 
BRANCH   5   4
ATOM      4  C   UNL     1      -2.703   2.384  25.090  0.00  0.00    +0.003 C 
ATOM      8  C   UNL     1      -1.564   2.919  24.212  0.00  0.00    +0.005 C 
ATOM      9  C   UNL     1      -3.659   3.515  25.494  0.00  0.00    +0.005 C 
ATOM     12  C   UNL     1      -0.826   4.073  24.887  0.00  0.00    +0.000 C 
ATOM     13  C   UNL     1      -2.917   4.668  26.167  0.00  0.00    +0.000 C 
ATOM     14  C   UNL     1      -1.780   5.190  25.294  0.00  0.00    +0.000 C 
ENDBRANCH   5   4
ENDBRANCH   2   5
TORSDOF 3
ENDMDL
MODEL 9
REMARK VINA RESULT:      -4.3     17.414     19.737
REMARK  Name = 51137058
REMARK  3 active torsions:
REMARK  status: ('A' for Active; 'I' for Inactive)
REMARK    1  A    between atoms: N_2  and  C_5
REMARK    2  A    between atoms: C_4  and  C_5
REMARK    3  A    between atoms: C_6  and  C_15
REMARK                            x       y       z     vdW  Elec       q    Type
REMARK                         _______ _______ _______ _____ _____    ______ ____
ROOT
ATOM      2  N   UNL     1      12.852  -7.031  31.854  0.00  0.00    -0.301 NA
ATOM      6  C   UNL     1      14.868  -7.176  30.664  0.00  0.00    +0.090 C 
ATOM      7  C   UNL     1      13.368  -7.489  30.562  0.00  0.00    +0.097 C 
ATOM     10  C   UNL     1      13.517  -5.750  32.093  0.00  0.00    +0.085 C 
ATOM     11  C   UNL     1      14.958  -6.036  31.694  0.00  0.00    +0.029 C 
ENDROOT
BRANCH   6  15
ATOM      1  O   UNL     1      15.262  -7.784  28.336  0.00  0.00    -0.439 OA
ATOM      3  N   UNL     1      16.245  -5.847  28.985  0.00  0.00    -0.213 NA
ATOM     15  C   UNL     1      15.497  -6.874  29.323  0.00  0.00    +0.201 A 
ATOM     16  C   UNL     1      15.934  -7.272  27.263  0.00  0.00    +0.155 A 
ATOM     17  C   UNL     1      16.533  -6.087  27.664  0.00  0.00    +0.110 A 
ATOM     18  C   UNL     1      16.023  -7.812  25.986  0.00  0.00    +0.048 A 
ATOM     19  C   UNL     1      17.291  -5.362  26.732  0.00  0.00    +0.031 A 
ATOM     20  C   UNL     1      16.780  -7.076  25.069  0.00  0.00    +0.004 A 
ATOM     21  C   UNL     1      17.403  -5.875  25.432  0.00  0.00    +0.002 A 
ENDBRANCH   6  15
BRANCH   2   5
ATOM      5  C   UNL     1      11.401  -6.912  31.861  0.00  0.00    +0.088 C 
BRANCH   5   4
ATOM      4  C   UNL     1      10.759  -8.118  32.544  0.00  0.00    +0.003 C 
ATOM      8  C   UNL     1       9.293  -8.266  32.119  0.00  0.00    +0.005 C 
ATOM      9  C   UNL     1      11.550  -9.398  32.236  0.00  0.00    +0.005 C 
ATOM     12  C   UNL     1       8.646  -9.498  32.748  0.00  0.00    +0.000 C 
ATOM     13  C   UNL     1      10.899 -10.627  32.866  0.00  0.00    +0.000 C 
ATOM     14  C   UNL     1       9.438 -10.766  32.448  0.00  0.00    +0.000 C 
ENDBRANCH   5   4
ENDBRANCH   2   5
TORSDOF 3
ENDMDL
MODEL 10
REMARK VINA RESULT:      -4.1      3.413      5.211
REMARK  Name = 51137058
REMARK  3 active torsions:
REMARK  status: ('A' for Active; 'I' for Inactive)
REMARK    1  A    between atoms: N_2  and  C_5
REMARK    2  A    between atoms: C_4  and  C_5
REMARK    3  A    between atoms: C_6  and  C_15
REMARK                            x       y       z     vdW  Elec       q    Type
REMARK                         _______ _______ _______ _____ _____    ______ ____
ROOT
ATOM      2  N   UNL     1      -1.601   1.481  24.109  0.00  0.00    -0.301 NA
ATOM      6  C   UNL     1       0.214   0.294  23.216  0.00  0.00    +0.090 C 
ATOM      7  C   UNL     1      -0.286   1.715  23.506  0.00  0.00    +0.097 C 
ATOM     10  C   UNL     1      -1.399   0.365  25.031  0.00  0.00    +0.085 C 
ATOM     11  C   UNL     1      -0.541  -0.597  24.219  0.00  0.00    +0.029 C 
ENDROOT
BRANCH   6  15
ATOM      1  O   UNL     1       2.212  -1.052  23.592  0.00  0.00    -0.439 OA
ATOM      3  N   UNL     1       2.620   1.112  23.056  0.00  0.00    -0.213 NA
ATOM     15  C   UNL     1       1.721   0.178  23.273  0.00  0.00    +0.201 A 
ATOM     16  C   UNL     1       3.565  -0.871  23.572  0.00  0.00    +0.155 A 
ATOM     17  C   UNL     1       3.811   0.453  23.244  0.00  0.00    +0.110 A 
ATOM     18  C   UNL     1       4.548  -1.820  23.829  0.00  0.00    +0.048 A 
ATOM     19  C   UNL     1       5.139   0.895  23.159  0.00  0.00    +0.031 A 
ATOM     20  C   UNL     1       5.867  -1.363  23.738  0.00  0.00    +0.004 A 
ATOM     21  C   UNL     1       6.160  -0.034  23.410  0.00  0.00    +0.002 A 
ENDBRANCH   6  15
BRANCH   2   5
ATOM      5  C   UNL     1      -2.124   2.664  24.776  0.00  0.00    +0.088 C 
BRANCH   5   4
ATOM      4  C   UNL     1      -3.648   2.713  24.680  0.00  0.00    +0.003 C 
ATOM      8  C   UNL     1      -4.250   1.315  24.875  0.00  0.00    +0.005 C 
ATOM      9  C   UNL     1      -4.224   3.702  25.703  0.00  0.00    +0.005 C 
ATOM     12  C   UNL     1      -5.776   1.348  24.836  0.00  0.00    +0.000 C 
ATOM     13  C   UNL     1      -5.750   3.731  25.663  0.00  0.00    +0.000 C 
ATOM     14  C   UNL     1      -6.343   2.337  25.847  0.00  0.00    +0.000 C 
ENDBRANCH   5   4
ENDBRANCH   2   5
TORSDOF 3
ENDMDL
