MODEL 1
REMARK VINA RESULT:       6.3      0.000      0.000
REMARK  Name = 51136827
REMARK  5 active torsions:
REMARK  status: ('A' for Active; 'I' for Inactive)
REMARK    1  A    between atoms: N_4  and  C_14
REMARK    2  A    between atoms: C_10  and  C_15
REMARK    3  A    between atoms: C_14  and  C_18
REMARK    4  A    between atoms: C_22  and  C_23
REMARK    5  A    between atoms: C_26  and  C_30
REMARK                            x       y       z     vdW  Elec       q    Type
REMARK                         _______ _______ _______ _____ _____    ______ ____
ROOT
ATOM      2  O   UNL     1      -6.015   1.013  25.030  0.00  0.00    -0.336 OA
ATOM      7  N   UNL     1      -3.827   1.192  25.471  0.00  0.00    -0.190 NA
ATOM      8  N   UNL     1      -5.425  -0.168  24.560  0.00  0.00    -0.056 NA
ATOM     15  C   UNL     1      -5.005   1.757  25.551  0.00  0.00    +0.245 A 
ATOM     22  C   UNL     1      -4.135   0.013  24.856  0.00  0.00    +0.202 A 
ENDROOT
BRANCH  22  23
ATOM      3  O   UNL     1       4.561   1.138  21.885  0.00  0.00    -0.276 OA
ATOM      5  N   UNL     1       0.395  -1.119  23.656  0.00  0.00    -0.312 N 
ATOM      6  N   UNL     1       3.076  -0.189  23.082  0.00  0.00    -0.299 N 
ATOM      9  N   UNL     1      -1.167  -2.864  23.956  0.00  0.00    -0.240 NA
ATOM     16  C   UNL     1       1.556  -1.957  23.967  0.00  0.00    +0.125 C 
ATOM     17  C   UNL     1       0.626   0.160  22.979  0.00  0.00    +0.125 C 
ATOM     19  C   UNL     1       2.800  -1.097  24.197  0.00  0.00    +0.126 C 
ATOM     20  C   UNL     1       1.947   0.135  22.213  0.00  0.00    +0.126 C 
ATOM     21  C   UNL     1      -0.897  -1.540  23.960  0.00  0.00    +0.122 A 
ATOM     23  C   UNL     1      -3.128  -0.963  24.550  0.00  0.00    +0.027 A 
ATOM     25  C   UNL     1      -1.833  -0.558  24.246  0.00  0.00    +0.055 A 
ATOM     26  C   UNL     1       4.326   0.374  22.823  0.00  0.00    +0.213 C 
ATOM     27  C   UNL     1      -3.444  -2.317  24.557  0.00  0.00    +0.031 A 
ATOM     30  C   UNL     1       5.436  -0.004  23.773  0.00  0.00    +0.109 C 
ATOM     31  C   UNL     1      -2.436  -3.219  24.257  0.00  0.00    +0.113 A 
ENDBRANCH  22  23
BRANCH  15  10
ATOM      4  N   UNL     1      -4.464   4.179  25.729  0.00  0.00    -0.287 NA
ATOM     10  C   UNL     1      -5.388   3.101  26.134  0.00  0.00    +0.146 C 
ATOM     11  C   UNL     1      -6.776   3.579  25.666  0.00  0.00    +0.030 C 
ATOM     12  C   UNL     1      -6.541   4.958  25.067  0.00  0.00    +0.017 C 
ATOM     13  C   UNL     1      -5.250   5.414  25.716  0.00  0.00    +0.085 C 
BRANCH   4  14
ATOM     14  C   UNL     1      -3.292   4.284  26.588  0.00  0.00    +0.127 C 
BRANCH  14  18
ATOM      1  S   UNL     1      -1.095   2.775  25.796  0.00  0.00    -0.100 S 
ATOM     18  C   UNL     1      -2.012   4.221  25.799  0.00  0.00    +0.004 A 
ATOM     24  C   UNL     1      -1.427   5.206  25.034  0.00  0.00    +0.012 A 
ATOM     28  C   UNL     1      -0.210   4.767  24.436  0.00  0.00    +0.008 A 
ATOM     29  C   UNL     1       0.089   3.464  24.768  0.00  0.00    +0.045 A 
ENDBRANCH  14  18
ENDBRANCH   4  14
ENDBRANCH  15  10
TORSDOF 4
ENDMDL
