MODEL 1
REMARK VINA RESULT:      -2.6      0.000      0.000
REMARK  Name = 75368572
REMARK  3 active torsions:
REMARK  status: ('A' for Active; 'I' for Inactive)
REMARK    1  A    between atoms: N_3  and  C_11
REMARK    2  A    between atoms: C_11  and  C_13
REMARK    3  A    between atoms: C_11  and  C_14
REMARK                            x       y       z     vdW  Elec       q    Type
REMARK                         _______ _______ _______ _____ _____    ______ ____
ROOT
ATOM      1  O   UNL     1      -0.540  -1.649  24.202  0.00  0.00    -0.252 OA
ATOM      2  N   UNL     1      -1.839   0.176  24.848  0.00  0.00    -0.278 N 
ATOM      3  N   UNL     1      -4.122   1.784  25.191  0.00  0.00    -0.297 NA
ATOM      4  N   UNL     1       0.231   0.612  24.043  0.00  0.00    -0.238 N 
ATOM      5  N   UNL     1       2.018  -0.759  23.253  0.00  0.00    -0.240 NA
ATOM      6  C   UNL     1      -1.674   1.596  25.035  0.00  0.00    +0.109 C 
ATOM      7  C   UNL     1      -2.914   2.349  24.557  0.00  0.00    +0.108 C 
ATOM      8  C   UNL     1      -0.396   1.910  24.268  0.00  0.00    +0.140 C 
ATOM      9  C   UNL     1      -3.061  -0.459  25.299  0.00  0.00    +0.125 C 
ATOM     10  C   UNL     1      -4.275   0.355  24.849  0.00  0.00    +0.103 C 
ATOM     12  C   UNL     1      -0.681  -0.441  24.347  0.00  0.00    +0.311 C 
ATOM     15  C   UNL     1       1.547   0.481  23.512  0.00  0.00    +0.129 A 
ATOM     16  C   UNL     1       2.266   1.645  23.290  0.00  0.00    +0.044 A 
ATOM     17  C   UNL     1       3.551   1.529  22.772  0.00  0.00    +0.005 A 
ATOM     18  C   UNL     1       3.271  -0.833  22.750  0.00  0.00    +0.113 A 
ATOM     19  C   UNL     1       4.070   0.270  22.493  0.00  0.00    +0.020 A 
ENDROOT
BRANCH   3  11
ATOM     11  C   UNL     1      -5.311   2.535  24.785  0.00  0.00    +0.051 C 
ATOM     13  C   UNL     1      -6.553   1.681  25.015  0.00  0.00    +0.024 C 
ATOM     14  C   UNL     1      -5.396   3.848  25.558  0.00  0.00    +0.024 C 
ENDBRANCH   3  11
TORSDOF 1
ENDMDL
MODEL 2
REMARK VINA RESULT:      -2.1      1.789      7.012
REMARK  Name = 75368572
REMARK  3 active torsions:
REMARK  status: ('A' for Active; 'I' for Inactive)
REMARK    1  A    between atoms: N_3  and  C_11
REMARK    2  A    between atoms: C_11  and  C_13
REMARK    3  A    between atoms: C_11  and  C_14
REMARK                            x       y       z     vdW  Elec       q    Type
REMARK                         _______ _______ _______ _____ _____    ______ ____
ROOT
ATOM      1  O   UNL     1      -1.563   3.840  25.263  0.00  0.00    -0.252 OA
ATOM      2  N   UNL     1      -0.418   1.878  24.739  0.00  0.00    -0.278 N 
ATOM      3  N   UNL     1       1.494   0.191  23.550  0.00  0.00    -0.297 NA
ATOM      4  N   UNL     1      -2.671   1.746  24.923  0.00  0.00    -0.238 N 
ATOM      5  N   UNL     1      -4.381   3.329  25.441  0.00  0.00    -0.240 NA
ATOM      6  C   UNL     1      -0.705   0.471  24.618  0.00  0.00    +0.109 C 
ATOM      7  C   UNL     1       0.058  -0.134  23.440  0.00  0.00    +0.108 C 
ATOM      8  C   UNL     1      -2.222   0.426  24.491  0.00  0.00    +0.140 C 
ATOM      9  C   UNL     1       0.960   2.324  24.706  0.00  0.00    +0.125 C 
ATOM     10  C   UNL     1       1.703   1.653  23.549  0.00  0.00    +0.103 C 
ATOM     12  C   UNL     1      -1.565   2.642  25.015  0.00  0.00    +0.311 C 
ATOM     15  C   UNL     1      -4.046   2.057  25.126  0.00  0.00    +0.129 A 
ATOM     16  C   UNL     1      -4.962   1.027  24.984  0.00  0.00    +0.044 A 
ATOM     17  C   UNL     1      -6.308   1.320  25.180  0.00  0.00    +0.005 A 
ATOM     18  C   UNL     1      -5.697   3.575  25.623  0.00  0.00    +0.113 A 
ATOM     19  C   UNL     1      -6.690   2.617  25.505  0.00  0.00    +0.020 A 
ENDROOT
BRANCH   3  11
ATOM     11  C   UNL     1       2.244  -0.432  22.459  0.00  0.00    +0.051 C 
ATOM     13  C   UNL     1       1.343  -0.563  21.235  0.00  0.00    +0.024 C 
ATOM     14  C   UNL     1       3.490   0.387  22.138  0.00  0.00    +0.024 C 
ENDBRANCH   3  11
TORSDOF 1
ENDMDL
MODEL 3
REMARK VINA RESULT:      -1.8      1.288      6.742
REMARK  Name = 75368572
REMARK  3 active torsions:
REMARK  status: ('A' for Active; 'I' for Inactive)
REMARK    1  A    between atoms: N_3  and  C_11
REMARK    2  A    between atoms: C_11  and  C_13
REMARK    3  A    between atoms: C_11  and  C_14
REMARK                            x       y       z     vdW  Elec       q    Type
REMARK                         _______ _______ _______ _____ _____    ______ ____
ROOT
ATOM      1  O   UNL     1      -2.937  -0.815  24.755  0.00  0.00    -0.252 OA
ATOM      2  N   UNL     1      -0.982  -0.020  23.764  0.00  0.00    -0.278 N 
ATOM      3  N   UNL     1       1.758   0.191  23.160  0.00  0.00    -0.297 NA
ATOM      4  N   UNL     1      -2.539   1.512  24.359  0.00  0.00    -0.238 N 
ATOM      5  N   UNL     1      -4.699   1.366  25.364  0.00  0.00    -0.240 NA
ATOM      6  C   UNL     1      -0.472   1.226  23.250  0.00  0.00    +0.109 C 
ATOM      7  C   UNL     1       1.008   1.386  23.596  0.00  0.00    +0.108 C 
ATOM      8  C   UNL     1      -1.393   2.270  23.870  0.00  0.00    +0.140 C 
ATOM      9  C   UNL     1      -0.240  -1.241  23.523  0.00  0.00    +0.125 C 
ATOM     10  C   UNL     1       1.245  -1.023  23.826  0.00  0.00    +0.103 C 
ATOM     12  C   UNL     1      -2.255   0.114  24.344  0.00  0.00    +0.311 C 
ATOM     15  C   UNL     1      -3.720   2.142  24.849  0.00  0.00    +0.129 A 
ATOM     16  C   UNL     1      -3.787   3.524  24.767  0.00  0.00    +0.044 A 
ATOM     17  C   UNL     1      -4.935   4.149  25.243  0.00  0.00    +0.005 A 
ATOM     18  C   UNL     1      -5.799   2.009  25.817  0.00  0.00    +0.113 A 
ATOM     19  C   UNL     1      -5.964   3.384  25.780  0.00  0.00    +0.020 A 
ENDROOT
BRANCH   3  11
ATOM     11  C   UNL     1       3.185   0.357  23.434  0.00  0.00    +0.051 C 
ATOM     13  C   UNL     1       3.835  -1.015  23.588  0.00  0.00    +0.024 C 
ATOM     14  C   UNL     1       3.849   1.156  22.315  0.00  0.00    +0.024 C 
ENDBRANCH   3  11
TORSDOF 1
ENDMDL
MODEL 4
REMARK VINA RESULT:      -1.6      1.944      2.598
REMARK  Name = 75368572
REMARK  3 active torsions:
REMARK  status: ('A' for Active; 'I' for Inactive)
REMARK    1  A    between atoms: N_3  and  C_11
REMARK    2  A    between atoms: C_11  and  C_13
REMARK    3  A    between atoms: C_11  and  C_14
REMARK                            x       y       z     vdW  Elec       q    Type
REMARK                         _______ _______ _______ _____ _____    ______ ____
ROOT
ATOM      1  O   UNL     1       0.146   3.353  25.317  0.00  0.00    -0.252 OA
ATOM      2  N   UNL     1      -2.097   3.138  24.719  0.00  0.00    -0.278 N 
ATOM      3  N   UNL     1      -4.894   3.042  25.007  0.00  0.00    -0.297 NA
ATOM      4  N   UNL     1      -0.616   1.761  23.700  0.00  0.00    -0.238 N 
ATOM      5  N   UNL     1       1.751   1.489  23.838  0.00  0.00    -0.240 NA
ATOM      6  C   UNL     1      -2.879   2.441  23.729  0.00  0.00    +0.109 C 
ATOM      7  C   UNL     1      -4.186   1.933  24.337  0.00  0.00    +0.108 C 
ATOM      8  C   UNL     1      -1.937   1.353  23.232  0.00  0.00    +0.140 C 
ATOM      9  C   UNL     1      -2.733   4.146  25.543  0.00  0.00    +0.125 C 
ATOM     10  C   UNL     1      -4.065   3.620  26.085  0.00  0.00    +0.103 C 
ATOM     12  C   UNL     1      -0.731   2.816  24.653  0.00  0.00    +0.311 C 
ATOM     15  C   UNL     1       0.578   1.103  23.288  0.00  0.00    +0.129 A 
ATOM     16  C   UNL     1       0.459   0.096  22.343  0.00  0.00    +0.044 A 
ATOM     17  C   UNL     1       1.619  -0.554  21.934  0.00  0.00    +0.005 A 
ATOM     18  C   UNL     1       2.856   0.835  23.416  0.00  0.00    +0.113 A 
ATOM     19  C   UNL     1       2.844  -0.183  22.477  0.00  0.00    +0.020 A 
ENDROOT
BRANCH   3  11
ATOM     11  C   UNL     1      -6.175   2.581  25.543  0.00  0.00    +0.051 C 
ATOM     13  C   UNL     1      -6.782   1.555  24.591  0.00  0.00    +0.024 C 
ATOM     14  C   UNL     1      -5.984   1.990  26.937  0.00  0.00    +0.024 C 
ENDBRANCH   3  11
TORSDOF 1
ENDMDL
MODEL 5
REMARK VINA RESULT:      -0.4      2.900      5.196
REMARK  Name = 75368572
REMARK  3 active torsions:
REMARK  status: ('A' for Active; 'I' for Inactive)
REMARK    1  A    between atoms: N_3  and  C_11
REMARK    2  A    between atoms: C_11  and  C_13
REMARK    3  A    between atoms: C_11  and  C_14
REMARK                            x       y       z     vdW  Elec       q    Type
REMARK                         _______ _______ _______ _____ _____    ______ ____
ROOT
ATOM      1  O   UNL     1       0.556   1.396  24.646  0.00  0.00    -0.252 OA
ATOM      2  N   UNL     1      -1.155  -0.118  25.107  0.00  0.00    -0.278 N 
ATOM      3  N   UNL     1      -2.722  -2.448  24.918  0.00  0.00    -0.297 NA
ATOM      4  N   UNL     1      -1.685   2.083  25.134  0.00  0.00    -0.238 N 
ATOM      5  N   UNL     1      -0.436   4.086  24.780  0.00  0.00    -0.240 NA
ATOM      6  C   UNL     1      -2.520  -0.084  25.571  0.00  0.00    +0.109 C 
ATOM      7  C   UNL     1      -3.365  -1.121  24.832  0.00  0.00    +0.108 C 
ATOM      8  C   UNL     1      -2.937   1.363  25.345  0.00  0.00    +0.140 C 
ATOM      9  C   UNL     1      -0.474  -1.393  25.006  0.00  0.00    +0.125 C 
ATOM     10  C   UNL     1      -1.375  -2.418  24.313  0.00  0.00    +0.103 C 
ATOM     12  C   UNL     1      -0.612   1.165  24.932  0.00  0.00    +0.311 C 
ATOM     15  C   UNL     1      -1.623   3.505  25.066  0.00  0.00    +0.129 A 
ATOM     16  C   UNL     1      -2.794   4.207  25.296  0.00  0.00    +0.044 A 
ATOM     17  C   UNL     1      -2.745   5.596  25.232  0.00  0.00    +0.005 A 
ATOM     18  C   UNL     1      -0.426   5.437  24.726  0.00  0.00    +0.113 A 
ATOM     19  C   UNL     1      -1.542   6.229  24.941  0.00  0.00    +0.020 A 
ENDROOT
BRANCH   3  11
ATOM     11  C   UNL     1      -3.552  -3.460  24.264  0.00  0.00    +0.051 C 
ATOM     13  C   UNL     1      -4.770  -2.789  23.637  0.00  0.00    +0.024 C 
ATOM     14  C   UNL     1      -2.739  -4.213  23.215  0.00  0.00    +0.024 C 
ENDBRANCH   3  11
TORSDOF 1
ENDMDL
MODEL 6
REMARK VINA RESULT:      -0.2      1.841      2.879
REMARK  Name = 75368572
REMARK  3 active torsions:
REMARK  status: ('A' for Active; 'I' for Inactive)
REMARK    1  A    between atoms: N_3  and  C_11
REMARK    2  A    between atoms: C_11  and  C_13
REMARK    3  A    between atoms: C_11  and  C_14
REMARK                            x       y       z     vdW  Elec       q    Type
REMARK                         _______ _______ _______ _____ _____    ______ ____
ROOT
ATOM      1  O   UNL     1       1.282   2.644  23.568  0.00  0.00    -0.252 OA
ATOM      2  N   UNL     1      -0.551   1.205  23.521  0.00  0.00    -0.278 N 
ATOM      3  N   UNL     1      -3.106   0.186  24.113  0.00  0.00    -0.297 NA
ATOM      4  N   UNL     1       1.507   0.261  23.513  0.00  0.00    -0.238 N 
ATOM      5  N   UNL     1       3.726   1.140  23.530  0.00  0.00    -0.240 NA
ATOM      6  C   UNL     1      -0.803  -0.203  23.339  0.00  0.00    +0.109 C 
ATOM      7  C   UNL     1      -1.917  -0.675  24.273  0.00  0.00    +0.108 C 
ATOM      8  C   UNL     1       0.557  -0.843  23.587  0.00  0.00    +0.140 C 
ATOM      9  C   UNL     1      -1.668   2.127  23.533  0.00  0.00    +0.125 C 
ATOM     10  C   UNL     1      -2.784   1.592  24.433  0.00  0.00    +0.103 C 
ATOM     12  C   UNL     1       0.820   1.511  23.532  0.00  0.00    +0.311 C 
ATOM     15  C   UNL     1       2.918   0.057  23.511  0.00  0.00    +0.129 A 
ATOM     16  C   UNL     1       3.374  -1.251  23.493  0.00  0.00    +0.044 A 
ATOM     17  C   UNL     1       4.749  -1.462  23.491  0.00  0.00    +0.005 A 
ATOM     18  C   UNL     1       5.056   0.896  23.527  0.00  0.00    +0.113 A 
ATOM     19  C   UNL     1       5.612  -0.372  23.509  0.00  0.00    +0.020 A 
ENDROOT
BRANCH   3  11
ATOM     11  C   UNL     1      -4.200  -0.291  24.959  0.00  0.00    +0.051 C 
ATOM     13  C   UNL     1      -3.629  -1.122  26.104  0.00  0.00    +0.024 C 
ATOM     14  C   UNL     1      -5.012   0.887  25.488  0.00  0.00    +0.024 C 
ENDBRANCH   3  11
TORSDOF 1
ENDMDL
MODEL 7
REMARK VINA RESULT:       0.1      1.657      6.828
REMARK  Name = 75368572
REMARK  3 active torsions:
REMARK  status: ('A' for Active; 'I' for Inactive)
REMARK    1  A    between atoms: N_3  and  C_11
REMARK    2  A    between atoms: C_11  and  C_13
REMARK    3  A    between atoms: C_11  and  C_14
REMARK                            x       y       z     vdW  Elec       q    Type
REMARK                         _______ _______ _______ _____ _____    ______ ____
ROOT
ATOM      1  O   UNL     1      -1.743  -0.107  23.516  0.00  0.00    -0.252 OA
ATOM      2  N   UNL     1       0.464   0.495  23.067  0.00  0.00    -0.278 N 
ATOM      3  N   UNL     1       3.244   0.222  22.731  0.00  0.00    -0.297 NA
ATOM      4  N   UNL     1      -0.799   1.975  24.224  0.00  0.00    -0.238 N 
ATOM      5  N   UNL     1      -3.066   1.983  24.970  0.00  0.00    -0.240 NA
ATOM      6  C   UNL     1       1.302   1.662  23.188  0.00  0.00    +0.109 C 
ATOM      7  C   UNL     1       2.712   1.268  23.628  0.00  0.00    +0.108 C 
ATOM      8  C   UNL     1       0.545   2.543  24.174  0.00  0.00    +0.140 C 
ATOM      9  C   UNL     1       0.954  -0.654  22.332  0.00  0.00    +0.125 C 
ATOM     10  C   UNL     1       2.387  -0.980  22.760  0.00  0.00    +0.103 C 
ATOM     12  C   UNL     1      -0.823   0.696  23.594  0.00  0.00    +0.311 C 
ATOM     15  C   UNL     1      -1.876   2.621  24.897  0.00  0.00    +0.129 A 
ATOM     16  C   UNL     1      -1.632   3.871  25.443  0.00  0.00    +0.044 A 
ATOM     17  C   UNL     1      -2.676   4.509  26.103  0.00  0.00    +0.005 A 
ATOM     18  C   UNL     1      -4.057   2.634  25.619  0.00  0.00    +0.113 A 
ATOM     19  C   UNL     1      -3.915   3.885  26.197  0.00  0.00    +0.020 A 
ENDROOT
BRANCH   3  11
ATOM     11  C   UNL     1       4.616  -0.121  23.107  0.00  0.00    +0.051 C 
ATOM     13  C   UNL     1       5.220   1.020  23.918  0.00  0.00    +0.024 C 
ATOM     14  C   UNL     1       4.637  -1.427  23.896  0.00  0.00    +0.024 C 
ENDBRANCH   3  11
TORSDOF 1
ENDMDL
MODEL 8
REMARK VINA RESULT:       0.1      3.517      5.255
REMARK  Name = 75368572
REMARK  3 active torsions:
REMARK  status: ('A' for Active; 'I' for Inactive)
REMARK    1  A    between atoms: N_3  and  C_11
REMARK    2  A    between atoms: C_11  and  C_13
REMARK    3  A    between atoms: C_11  and  C_14
REMARK                            x       y       z     vdW  Elec       q    Type
REMARK                         _______ _______ _______ _____ _____    ______ ____
ROOT
ATOM      1  O   UNL     1      -5.400   0.925  24.611  0.00  0.00    -0.252 OA
ATOM      2  N   UNL     1      -3.667   2.326  25.295  0.00  0.00    -0.278 N 
ATOM      3  N   UNL     1      -2.108   4.658  25.518  0.00  0.00    -0.297 NA
ATOM      4  N   UNL     1      -3.140   0.171  24.845  0.00  0.00    -0.238 N 
ATOM      5  N   UNL     1      -4.406  -1.727  24.145  0.00  0.00    -0.240 NA
ATOM      6  C   UNL     1      -2.283   2.209  25.680  0.00  0.00    +0.109 C 
ATOM      7  C   UNL     1      -1.471   3.382  25.133  0.00  0.00    +0.108 C 
ATOM      8  C   UNL     1      -1.878   0.842  25.142  0.00  0.00    +0.140 C 
ATOM      9  C   UNL     1      -4.351   3.589  25.490  0.00  0.00    +0.125 C 
ATOM     10  C   UNL     1      -3.481   4.742  24.982  0.00  0.00    +0.103 C 
ATOM     12  C   UNL     1      -4.220   1.101  24.885  0.00  0.00    +0.311 C 
ATOM     15  C   UNL     1      -3.207  -1.207  24.489  0.00  0.00    +0.129 A 
ATOM     16  C   UNL     1      -2.027  -1.932  24.517  0.00  0.00    +0.044 A 
ATOM     17  C   UNL     1      -2.081  -3.279  24.171  0.00  0.00    +0.005 A 
ATOM     18  C   UNL     1      -4.420  -3.038  23.814  0.00  0.00    +0.113 A 
ATOM     19  C   UNL     1      -3.296  -3.849  23.811  0.00  0.00    +0.020 A 
ENDROOT
BRANCH   3  11
ATOM     11  C   UNL     1      -1.308   5.789  25.049  0.00  0.00    +0.051 C 
ATOM     13  C   UNL     1      -0.082   5.270  24.305  0.00  0.00    +0.024 C 
ATOM     14  C   UNL     1      -2.148   6.697  24.156  0.00  0.00    +0.024 C 
ENDBRANCH   3  11
TORSDOF 1
ENDMDL
MODEL 9
REMARK VINA RESULT:       1.1      2.800      5.123
REMARK  Name = 75368572
REMARK  3 active torsions:
REMARK  status: ('A' for Active; 'I' for Inactive)
REMARK    1  A    between atoms: N_3  and  C_11
REMARK    2  A    between atoms: C_11  and  C_13
REMARK    3  A    between atoms: C_11  and  C_14
REMARK                            x       y       z     vdW  Elec       q    Type
REMARK                         _______ _______ _______ _____ _____    ______ ____
ROOT
ATOM      1  O   UNL     1      -0.308  -0.755  25.271  0.00  0.00    -0.252 OA
ATOM      2  N   UNL     1      -0.946   1.396  24.635  0.00  0.00    -0.278 N 
ATOM      3  N   UNL     1      -1.234   4.192  24.752  0.00  0.00    -0.297 NA
ATOM      4  N   UNL     1      -2.422  -0.279  24.252  0.00  0.00    -0.238 N 
ATOM      5  N   UNL     1      -2.381  -2.635  24.633  0.00  0.00    -0.240 NA
ATOM      6  C   UNL     1      -2.014   2.021  23.895  0.00  0.00    +0.109 C 
ATOM      7  C   UNL     1      -2.423   3.339  24.552  0.00  0.00    +0.108 C 
ATOM      8  C   UNL     1      -3.100   0.954  23.866  0.00  0.00    +0.140 C 
ATOM      9  C   UNL     1       0.207   2.185  25.018  0.00  0.00    +0.125 C 
ATOM     10  C   UNL     1      -0.244   3.519  25.618  0.00  0.00    +0.103 C 
ATOM     12  C   UNL     1      -1.126   0.009  24.775  0.00  0.00    +0.311 C 
ATOM     15  C   UNL     1      -3.051  -1.555  24.172  0.00  0.00    +0.129 A 
ATOM     16  C   UNL     1      -4.323  -1.607  23.625  0.00  0.00    +0.044 A 
ATOM     17  C   UNL     1      -4.946  -2.847  23.542  0.00  0.00    +0.005 A 
ATOM     18  C   UNL     1      -3.018  -3.823  24.536  0.00  0.00    +0.113 A 
ATOM     19  C   UNL     1      -4.288  -3.981  24.006  0.00  0.00    +0.020 A 
ENDROOT
BRANCH   3  11
ATOM     11  C   UNL     1      -1.621   5.480  25.327  0.00  0.00    +0.051 C 
ATOM     13  C   UNL     1      -1.869   6.483  24.204  0.00  0.00    +0.024 C 
ATOM     14  C   UNL     1      -2.860   5.318  26.202  0.00  0.00    +0.024 C 
ENDBRANCH   3  11
TORSDOF 1
ENDMDL
