MODEL 1
REMARK VINA RESULT:      -5.6      0.000      0.000
REMARK  Name = 51137120
REMARK  4 active torsions:
REMARK  status: ('A' for Active; 'I' for Inactive)
REMARK    1  A    between atoms: N_4  and  C_12
REMARK    2  A    between atoms: C_7  and  C_11
REMARK    3  A    between atoms: C_12  and  C_13
REMARK    4  A    between atoms: C_22  and  C_25
REMARK                            x       y       z     vdW  Elec       q    Type
REMARK                         _______ _______ _______ _____ _____    ______ ____
ROOT
ATOM      4  N   UNL     1      -2.655 -10.727  15.488  0.00  0.00    -0.297 NA
ATOM      7  C   UNL     1      -3.251 -10.781  13.221  0.00  0.00    +0.070 C 
ATOM      8  C   UNL     1      -1.866 -10.128  13.373  0.00  0.00    +0.028 C 
ATOM      9  C   UNL     1      -3.845 -10.767  14.635  0.00  0.00    +0.096 C 
ATOM     10  C   UNL     1      -1.766  -9.758  14.847  0.00  0.00    +0.085 C 
ENDROOT
BRANCH   7  11
ATOM      5  N   UNL     1      -5.511 -10.118  12.351  0.00  0.00    -0.342 N 
ATOM      6  N   UNL     1      -3.778  -9.523  11.093  0.00  0.00    -0.232 NA
ATOM     11  C   UNL     1      -4.153 -10.128  12.197  0.00  0.00    +0.113 A 
ATOM     14  C   UNL     1      -6.049  -9.462  11.274  0.00  0.00    +0.066 A 
ATOM     15  C   UNL     1      -4.948  -9.100  10.503  0.00  0.00    +0.089 A 
ATOM     18  C   UNL     1      -7.365  -9.163  10.918  0.00  0.00    +0.028 A 
ATOM     19  C   UNL     1      -5.152  -8.398   9.303  0.00  0.00    +0.030 A 
ATOM     23  C   UNL     1      -7.550  -8.464   9.722  0.00  0.00    +0.002 A 
ATOM     24  C   UNL     1      -6.464  -8.087   8.926  0.00  0.00    +0.002 A 
ATOM     26  H   UNL     1      -6.030 -10.521  13.120  0.00  0.00    +0.167 HD
ENDBRANCH   7  11
BRANCH   4  12
ATOM     12  C   UNL     1      -2.967 -10.366  16.863  0.00  0.00    +0.119 C 
BRANCH  12  13
ATOM     13  C   UNL     1      -4.449 -10.228  17.083  0.00  0.00    -0.033 A 
ATOM     16  C   UNL     1      -5.030 -10.719  18.253  0.00  0.00    +0.005 A 
ATOM     17  C   UNL     1      -5.244  -9.608  16.117  0.00  0.00    +0.005 A 
ATOM     20  C   UNL     1      -6.403 -10.591  18.457  0.00  0.00    +0.012 A 
ATOM     21  C   UNL     1      -6.617  -9.480  16.322  0.00  0.00    +0.012 A 
ATOM     22  C   UNL     1      -7.197  -9.971  17.492  0.00  0.00    +0.055 A 
BRANCH  22  25
ATOM      1  F   UNL     1      -9.073  -8.539  17.884  0.00  0.00    -0.166 F 
ATOM      2  F   UNL     1      -9.096 -10.501  18.820  0.00  0.00    -0.166 F 
ATOM      3  F   UNL     1      -9.422 -10.308  16.679  0.00  0.00    -0.166 F 
ATOM     25  C   UNL     1      -8.666  -9.832  17.711  0.00  0.00    +0.417 C 
ENDBRANCH  22  25
ENDBRANCH  12  13
ENDBRANCH   4  12
TORSDOF 4
ENDMDL
MODEL 2
REMARK VINA RESULT:      -4.6      1.026      2.094
REMARK  Name = 51137120
REMARK  4 active torsions:
REMARK  status: ('A' for Active; 'I' for Inactive)
REMARK    1  A    between atoms: N_4  and  C_12
REMARK    2  A    between atoms: C_7  and  C_11
REMARK    3  A    between atoms: C_12  and  C_13
REMARK    4  A    between atoms: C_22  and  C_25
REMARK                            x       y       z     vdW  Elec       q    Type
REMARK                         _______ _______ _______ _____ _____    ______ ____
ROOT
ATOM      4  N   UNL     1      -2.545 -10.761  13.875  0.00  0.00    -0.297 NA
ATOM      7  C   UNL     1      -3.693 -10.627  11.835  0.00  0.00    +0.070 C 
ATOM      8  C   UNL     1      -2.331  -9.925  11.705  0.00  0.00    +0.028 C 
ATOM      9  C   UNL     1      -3.910 -10.779  13.346  0.00  0.00    +0.096 C 
ATOM     10  C   UNL     1      -1.870  -9.693  13.138  0.00  0.00    +0.085 C 
ENDROOT
BRANCH   7  11
ATOM      5  N   UNL     1      -4.619  -9.054  10.112  0.00  0.00    -0.342 N 
ATOM      6  N   UNL     1      -6.118 -10.048  11.420  0.00  0.00    -0.232 NA
ATOM     11  C   UNL     1      -4.839  -9.925  11.142  0.00  0.00    +0.113 A 
ATOM     14  C   UNL     1      -5.838  -8.583   9.695  0.00  0.00    +0.066 A 
ATOM     15  C   UNL     1      -6.757  -9.218  10.527  0.00  0.00    +0.089 A 
ATOM     18  C   UNL     1      -6.205  -7.684   8.693  0.00  0.00    +0.028 A 
ATOM     19  C   UNL     1      -8.127  -8.951  10.363  0.00  0.00    +0.030 A 
ATOM     23  C   UNL     1      -7.572  -7.431   8.544  0.00  0.00    +0.002 A 
ATOM     24  C   UNL     1      -8.518  -8.052   9.364  0.00  0.00    +0.002 A 
ATOM     26  H   UNL     1      -3.721  -8.800   9.723  0.00  0.00    +0.167 HD
ENDBRANCH   7  11
BRANCH   4  12
ATOM     12  C   UNL     1      -2.509 -10.550  15.314  0.00  0.00    +0.119 C 
BRANCH  12  13
ATOM     13  C   UNL     1      -3.890 -10.414  15.896  0.00  0.00    -0.033 A 
ATOM     16  C   UNL     1      -4.936  -9.940  15.104  0.00  0.00    +0.005 A 
ATOM     17  C   UNL     1      -4.125 -10.763  17.226  0.00  0.00    +0.005 A 
ATOM     20  C   UNL     1      -6.217  -9.814  15.642  0.00  0.00    +0.012 A 
ATOM     21  C   UNL     1      -5.405 -10.637  17.764  0.00  0.00    +0.012 A 
ATOM     22  C   UNL     1      -6.451 -10.163  16.972  0.00  0.00    +0.055 A 
BRANCH  22  25
ATOM      1  F   UNL     1      -8.806 -10.509  16.730  0.00  0.00    -0.166 F 
ATOM      2  F   UNL     1      -8.159  -8.734  17.807  0.00  0.00    -0.166 F 
ATOM      3  F   UNL     1      -7.986 -10.696  18.729  0.00  0.00    -0.166 F 
ATOM     25  C   UNL     1      -7.821 -10.031  17.547  0.00  0.00    +0.417 C 
ENDBRANCH  22  25
ENDBRANCH  12  13
ENDBRANCH   4  12
TORSDOF 4
ENDMDL
MODEL 3
REMARK VINA RESULT:      -2.6     14.683     16.552
REMARK  Name = 51137120
REMARK  4 active torsions:
REMARK  status: ('A' for Active; 'I' for Inactive)
REMARK    1  A    between atoms: N_4  and  C_12
REMARK    2  A    between atoms: C_7  and  C_11
REMARK    3  A    between atoms: C_12  and  C_13
REMARK    4  A    between atoms: C_22  and  C_25
REMARK                            x       y       z     vdW  Elec       q    Type
REMARK                         _______ _______ _______ _____ _____    ______ ____
ROOT
ATOM      4  N   UNL     1      -2.992  -0.878  24.541  0.00  0.00    -0.297 NA
ATOM      7  C   UNL     1      -0.885  -1.434  23.675  0.00  0.00    +0.070 C 
ATOM      8  C   UNL     1      -1.131  -2.220  24.974  0.00  0.00    +0.028 C 
ATOM      9  C   UNL     1      -1.940  -0.320  23.689  0.00  0.00    +0.096 C 
ATOM     10  C   UNL     1      -2.282  -1.496  25.660  0.00  0.00    +0.085 C 
ENDROOT
BRANCH   7  11
ATOM      5  N   UNL     1       1.605  -1.641  23.908  0.00  0.00    -0.342 N 
ATOM      6  N   UNL     1       0.873   0.244  22.983  0.00  0.00    -0.232 NA
ATOM     11  C   UNL     1       0.523  -0.910  23.505  0.00  0.00    +0.113 A 
ATOM     14  C   UNL     1       2.731  -0.910  23.626  0.00  0.00    +0.066 A 
ATOM     15  C   UNL     1       2.249   0.262  23.049  0.00  0.00    +0.089 A 
ATOM     18  C   UNL     1       4.089  -1.165  23.820  0.00  0.00    +0.028 A 
ATOM     19  C   UNL     1       3.160   1.248  22.636  0.00  0.00    +0.030 A 
ATOM     23  C   UNL     1       4.982  -0.173  23.403  0.00  0.00    +0.002 A 
ATOM     24  C   UNL     1       4.528   1.013  22.822  0.00  0.00    +0.002 A 
ATOM     26  H   UNL     1       1.585  -2.556  24.336  0.00  0.00    +0.167 HD
ENDBRANCH   7  11
BRANCH   4  12
ATOM     12  C   UNL     1      -3.946   0.130  24.979  0.00  0.00    +0.119 C 
BRANCH  12  13
ATOM     13  C   UNL     1      -3.350   1.511  24.961  0.00  0.00    -0.033 A 
ATOM     16  C   UNL     1      -4.069   2.575  24.415  0.00  0.00    +0.005 A 
ATOM     17  C   UNL     1      -2.078   1.730  25.492  0.00  0.00    +0.005 A 
ATOM     20  C   UNL     1      -3.517   3.855  24.398  0.00  0.00    +0.012 A 
ATOM     21  C   UNL     1      -1.527   3.011  25.476  0.00  0.00    +0.012 A 
ATOM     22  C   UNL     1      -2.246   4.073  24.929  0.00  0.00    +0.055 A 
BRANCH  22  25
ATOM      1  F   UNL     1      -0.292   5.452  24.982  0.00  0.00    -0.166 F 
ATOM      2  F   UNL     1      -2.080   6.208  25.962  0.00  0.00    -0.166 F 
ATOM      3  F   UNL     1      -1.961   6.159  23.791  0.00  0.00    -0.166 F 
ATOM     25  C   UNL     1      -1.656   5.443  24.914  0.00  0.00    +0.417 C 
ENDBRANCH  22  25
ENDBRANCH  12  13
ENDBRANCH   4  12
TORSDOF 4
ENDMDL
MODEL 4
REMARK VINA RESULT:      -2.2     13.959     15.851
REMARK  Name = 51137120
REMARK  4 active torsions:
REMARK  status: ('A' for Active; 'I' for Inactive)
REMARK    1  A    between atoms: N_4  and  C_12
REMARK    2  A    between atoms: C_7  and  C_11
REMARK    3  A    between atoms: C_12  and  C_13
REMARK    4  A    between atoms: C_22  and  C_25
REMARK                            x       y       z     vdW  Elec       q    Type
REMARK                         _______ _______ _______ _____ _____    ______ ____
ROOT
ATOM      4  N   UNL     1      -2.729  -1.857  24.536  0.00  0.00    -0.297 NA
ATOM      7  C   UNL     1      -0.388  -1.997  24.540  0.00  0.00    +0.070 C 
ATOM      8  C   UNL     1      -0.882  -1.585  25.938  0.00  0.00    +0.028 C 
ATOM      9  C   UNL     1      -1.592  -1.761  23.618  0.00  0.00    +0.096 C 
ATOM     10  C   UNL     1      -2.315  -1.116  25.727  0.00  0.00    +0.085 C 
ENDROOT
BRANCH   7  11
ATOM      5  N   UNL     1       2.103  -1.805  24.306  0.00  0.00    -0.342 N 
ATOM      6  N   UNL     1       0.918  -0.147  23.419  0.00  0.00    -0.232 NA
ATOM     11  C   UNL     1       0.861  -1.286  24.071  0.00  0.00    +0.113 A 
ATOM     14  C   UNL     1       3.025  -0.943  23.769  0.00  0.00    +0.066 A 
ATOM     15  C   UNL     1       2.261   0.084  23.221  0.00  0.00    +0.089 A 
ATOM     18  C   UNL     1       4.419  -0.972  23.716  0.00  0.00    +0.028 A 
ATOM     19  C   UNL     1       2.909   1.152  22.579  0.00  0.00    +0.030 A 
ATOM     23  C   UNL     1       5.047   0.099  23.073  0.00  0.00    +0.002 A 
ATOM     24  C   UNL     1       4.307   1.144  22.515  0.00  0.00    +0.002 A 
ATOM     26  H   UNL     1       2.311  -2.669  24.789  0.00  0.00    +0.167 HD
ENDBRANCH   7  11
BRANCH   4  12
ATOM     12  C   UNL     1      -3.957  -1.333  23.956  0.00  0.00    +0.119 C 
BRANCH  12  13
ATOM     13  C   UNL     1      -4.138   0.130  24.255  0.00  0.00    -0.033 A 
ATOM     16  C   UNL     1      -5.094   0.539  25.185  0.00  0.00    +0.005 A 
ATOM     17  C   UNL     1      -3.349   1.079  23.604  0.00  0.00    +0.005 A 
ATOM     20  C   UNL     1      -5.263   1.895  25.463  0.00  0.00    +0.012 A 
ATOM     21  C   UNL     1      -3.518   2.435  23.881  0.00  0.00    +0.012 A 
ATOM     22  C   UNL     1      -4.474   2.843  24.811  0.00  0.00    +0.055 A 
BRANCH  22  25
ATOM      1  F   UNL     1      -5.926   4.625  25.477  0.00  0.00    -0.166 F 
ATOM      2  F   UNL     1      -4.362   5.089  24.040  0.00  0.00    -0.166 F 
ATOM      3  F   UNL     1      -3.860   4.745  26.127  0.00  0.00    -0.166 F 
ATOM     25  C   UNL     1      -4.652   4.294  25.110  0.00  0.00    +0.417 C 
ENDBRANCH  22  25
ENDBRANCH  12  13
ENDBRANCH   4  12
TORSDOF 4
ENDMDL
