MODEL 1
REMARK VINA RESULT:      -3.3      0.000      0.000
REMARK  Name = 51137714
REMARK  7 active torsions:
REMARK  status: ('A' for Active; 'I' for Inactive)
REMARK    1  A    between atoms: O_3  and  C_18
REMARK    2  A    between atoms: O_3  and  C_22
REMARK    3  A    between atoms: O_4  and  C_21
REMARK    4  A    between atoms: O_4  and  C_23
REMARK    5  A    between atoms: C_8  and  C_12
REMARK    6  A    between atoms: C_13  and  C_14
REMARK    7  A    between atoms: C_15  and  C_20
REMARK                            x       y       z     vdW  Elec       q    Type
REMARK                         _______ _______ _______ _____ _____    ______ ____
ROOT
ATOM      2  O   UNL     1      12.820  -6.530  29.882  0.00  0.00    -0.270 OA
ATOM      5  N   UNL     1      14.800  -5.928  30.936  0.00  0.00    -0.297 N 
ATOM      8  C   UNL     1      16.562  -4.709  31.972  0.00  0.00    +0.095 C 
ATOM      9  C   UNL     1      15.316  -4.682  32.872  0.00  0.00    +0.033 C 
ATOM     10  C   UNL     1      16.259  -5.896  31.046  0.00  0.00    +0.121 C 
ATOM     11  C   UNL     1      14.180  -5.072  31.937  0.00  0.00    +0.109 C 
ATOM     13  C   UNL     1      14.044  -6.590  29.982  0.00  0.00    +0.247 C 
ENDROOT
BRANCH   8  12
ATOM      1  O   UNL     1      16.988  -2.296  32.120  0.00  0.00    -0.425 OA
ATOM      6  N   UNL     1      16.848  -3.068  30.024  0.00  0.00    -0.112 NA
ATOM      7  N   UNL     1      17.089  -1.708  29.964  0.00  0.00    -0.113 NA
ATOM     12  C   UNL     1      16.797  -3.367  31.302  0.00  0.00    +0.222 A 
ATOM     15  C   UNL     1      17.163  -1.299  31.209  0.00  0.00    +0.214 A 
ATOM     20  C   UNL     1      17.405   0.048  31.739  0.00  0.00    +0.111 C 
ENDBRANCH   8  12
BRANCH  13  14
ATOM     14  C   UNL     1      14.761  -7.420  29.002  0.00  0.00    +0.041 A 
ATOM     16  C   UNL     1      15.230  -6.853  27.818  0.00  0.00    +0.062 A 
ATOM     17  C   UNL     1      14.971  -8.776  29.257  0.00  0.00    +0.017 A 
ATOM     18  C   UNL     1      15.909  -7.640  26.888  0.00  0.00    +0.162 A 
ATOM     19  C   UNL     1      15.651  -9.563  28.327  0.00  0.00    +0.050 A 
ATOM     21  C   UNL     1      16.121  -8.995  27.143  0.00  0.00    +0.162 A 
BRANCH  18   3
ATOM      3  O   UNL     1      16.363  -7.074  25.734  0.00  0.00    -0.491 OA
ATOM     22  C   UNL     1      17.115  -5.868  25.857  0.00  0.00    +0.277 C 
ENDBRANCH  18   3
BRANCH  21   4
ATOM      4  O   UNL     1      16.783  -9.775  26.244  0.00  0.00    -0.491 OA
ATOM     23  C   UNL     1      15.990 -10.586  25.380  0.00  0.00    +0.277 C 
ENDBRANCH  21   4
ENDBRANCH  13  14
TORSDOF 4
ENDMDL
MODEL 2
REMARK VINA RESULT:      -0.9     19.051     20.499
REMARK  Name = 51137714
REMARK  7 active torsions:
REMARK  status: ('A' for Active; 'I' for Inactive)
REMARK    1  A    between atoms: O_3  and  C_18
REMARK    2  A    between atoms: O_3  and  C_22
REMARK    3  A    between atoms: O_4  and  C_21
REMARK    4  A    between atoms: O_4  and  C_23
REMARK    5  A    between atoms: C_8  and  C_12
REMARK    6  A    between atoms: C_13  and  C_14
REMARK    7  A    between atoms: C_15  and  C_20
REMARK                            x       y       z     vdW  Elec       q    Type
REMARK                         _______ _______ _______ _____ _____    ______ ____
ROOT
ATOM      2  O   UNL     1      -0.317   2.597  27.184  0.00  0.00    -0.270 OA
ATOM      5  N   UNL     1      -1.941   3.273  25.667  0.00  0.00    -0.297 N 
ATOM      8  C   UNL     1      -4.005   3.821  24.617  0.00  0.00    +0.095 C 
ATOM      9  C   UNL     1      -3.717   4.824  25.746  0.00  0.00    +0.033 C 
ATOM     10  C   UNL     1      -2.616   3.214  24.370  0.00  0.00    +0.121 C 
ATOM     11  C   UNL     1      -2.666   4.125  26.598  0.00  0.00    +0.109 C 
ATOM     13  C   UNL     1      -0.810   2.574  26.058  0.00  0.00    +0.247 C 
ENDROOT
BRANCH   8  12
ATOM      1  O   UNL     1      -5.393   2.731  26.323  0.00  0.00    -0.425 OA
ATOM      6  N   UNL     1      -5.862   2.097  24.229  0.00  0.00    -0.112 NA
ATOM      7  N   UNL     1      -6.709   1.414  25.082  0.00  0.00    -0.113 NA
ATOM     12  C   UNL     1      -5.112   2.853  24.997  0.00  0.00    +0.222 A 
ATOM     15  C   UNL     1      -6.400   1.815  26.293  0.00  0.00    +0.214 A 
ATOM     20  C   UNL     1      -6.979   1.424  27.584  0.00  0.00    +0.111 C 
ENDBRANCH   8  12
BRANCH  13  14
ATOM     14  C   UNL     1      -0.153   1.726  25.051  0.00  0.00    +0.041 A 
ATOM     16  C   UNL     1      -0.601   0.423  24.838  0.00  0.00    +0.062 A 
ATOM     17  C   UNL     1       0.920   2.225  24.311  0.00  0.00    +0.017 A 
ATOM     18  C   UNL     1       0.022  -0.382  23.884  0.00  0.00    +0.162 A 
ATOM     19  C   UNL     1       1.542   1.421  23.358  0.00  0.00    +0.050 A 
ATOM     21  C   UNL     1       1.094   0.117  23.143  0.00  0.00    +0.162 A 
BRANCH  18   3
ATOM      3  O   UNL     1      -0.425  -1.653  23.684  0.00  0.00    -0.491 OA
ATOM     22  C   UNL     1      -1.477  -2.111  24.531  0.00  0.00    +0.277 C 
ENDBRANCH  18   3
BRANCH  21   4
ATOM      4  O   UNL     1       1.711  -0.657  22.208  0.00  0.00    -0.491 OA
ATOM     23  C   UNL     1       2.911  -0.147  21.632  0.00  0.00    +0.277 C 
ENDBRANCH  21   4
ENDBRANCH  13  14
TORSDOF 4
ENDMDL
MODEL 3
REMARK VINA RESULT:      -0.8     17.913     19.646
REMARK  Name = 51137714
REMARK  7 active torsions:
REMARK  status: ('A' for Active; 'I' for Inactive)
REMARK    1  A    between atoms: O_3  and  C_18
REMARK    2  A    between atoms: O_3  and  C_22
REMARK    3  A    between atoms: O_4  and  C_21
REMARK    4  A    between atoms: O_4  and  C_23
REMARK    5  A    between atoms: C_8  and  C_12
REMARK    6  A    between atoms: C_13  and  C_14
REMARK    7  A    between atoms: C_15  and  C_20
REMARK                            x       y       z     vdW  Elec       q    Type
REMARK                         _______ _______ _______ _____ _____    ______ ____
ROOT
ATOM      2  O   UNL     1      -1.621  -0.658  26.582  0.00  0.00    -0.270 OA
ATOM      5  N   UNL     1      -0.776  -0.485  24.425  0.00  0.00    -0.297 N 
ATOM      8  C   UNL     1       0.659  -0.416  22.529  0.00  0.00    +0.095 C 
ATOM      9  C   UNL     1       0.619  -1.845  23.094  0.00  0.00    +0.033 C 
ATOM     10  C   UNL     1      -0.601   0.206  23.147  0.00  0.00    +0.121 C 
ATOM     11  C   UNL     1       0.071  -1.665  24.504  0.00  0.00    +0.109 C 
ATOM     13  C   UNL     1      -1.559  -0.085  25.496  0.00  0.00    +0.247 C 
ENDROOT
BRANCH   8  12
ATOM      1  O   UNL     1       3.085  -0.520  22.890  0.00  0.00    -0.425 OA
ATOM      6  N   UNL     1       2.227   1.539  23.065  0.00  0.00    -0.112 NA
ATOM      7  N   UNL     1       3.589   1.623  23.289  0.00  0.00    -0.113 NA
ATOM     12  C   UNL     1       1.978   0.270  22.837  0.00  0.00    +0.222 A 
ATOM     15  C   UNL     1       4.048   0.398  23.177  0.00  0.00    +0.214 A 
ATOM     20  C   UNL     1       5.422  -0.102  23.312  0.00  0.00    +0.111 C 
ENDBRANCH   8  12
BRANCH  13  14
ATOM     14  C   UNL     1      -2.371   1.131  25.328  0.00  0.00    +0.041 A 
ATOM     16  C   UNL     1      -1.812   2.383  25.576  0.00  0.00    +0.062 A 
ATOM     17  C   UNL     1      -3.702   1.029  24.921  0.00  0.00    +0.017 A 
ATOM     18  C   UNL     1      -2.582   3.536  25.418  0.00  0.00    +0.162 A 
ATOM     19  C   UNL     1      -4.472   2.182  24.762  0.00  0.00    +0.050 A 
ATOM     21  C   UNL     1      -3.912   3.435  25.010  0.00  0.00    +0.162 A 
BRANCH  18   3
ATOM      3  O   UNL     1      -2.023   4.754  25.663  0.00  0.00    -0.491 OA
ATOM     22  C   UNL     1      -0.896   5.122  24.869  0.00  0.00    +0.277 C 
ENDBRANCH  18   3
BRANCH  21   4
ATOM      4  O   UNL     1      -4.675   4.552  24.851  0.00  0.00    -0.491 OA
ATOM     23  C   UNL     1      -5.930   4.582  25.526  0.00  0.00    +0.277 C 
ENDBRANCH  21   4
ENDBRANCH  13  14
TORSDOF 4
ENDMDL
MODEL 4
REMARK VINA RESULT:      -0.5     17.432     19.263
REMARK  Name = 51137714
REMARK  7 active torsions:
REMARK  status: ('A' for Active; 'I' for Inactive)
REMARK    1  A    between atoms: O_3  and  C_18
REMARK    2  A    between atoms: O_3  and  C_22
REMARK    3  A    between atoms: O_4  and  C_21
REMARK    4  A    between atoms: O_4  and  C_23
REMARK    5  A    between atoms: C_8  and  C_12
REMARK    6  A    between atoms: C_13  and  C_14
REMARK    7  A    between atoms: C_15  and  C_20
REMARK                            x       y       z     vdW  Elec       q    Type
REMARK                         _______ _______ _______ _____ _____    ______ ____
ROOT
ATOM      2  O   UNL     1      -1.247  -0.651  26.134  0.00  0.00    -0.270 OA
ATOM      5  N   UNL     1      -0.216  -0.174  24.108  0.00  0.00    -0.297 N 
ATOM      8  C   UNL     1       1.342  -0.005  22.317  0.00  0.00    +0.095 C 
ATOM      9  C   UNL     1       0.920  -1.472  22.498  0.00  0.00    +0.033 C 
ATOM     10  C   UNL     1       0.220   0.741  23.052  0.00  0.00    +0.121 C 
ATOM     11  C   UNL     1       0.320  -1.510  23.897  0.00  0.00    +0.109 C 
ATOM     13  C   UNL     1      -0.965   0.136  25.232  0.00  0.00    +0.247 C 
ENDROOT
BRANCH   8  12
ATOM      1  O   UNL     1       3.443  -0.850  23.265  0.00  0.00    -0.425 OA
ATOM      6  N   UNL     1       3.443   1.354  22.876  0.00  0.00    -0.112 NA
ATOM      7  N   UNL     1       4.674   1.012  23.404  0.00  0.00    -0.113 NA
ATOM     12  C   UNL     1       2.757   0.235  22.814  0.00  0.00    +0.222 A 
ATOM     15  C   UNL     1       4.629  -0.282  23.616  0.00  0.00    +0.214 A 
ATOM     20  C   UNL     1       5.657  -1.177  24.160  0.00  0.00    +0.111 C 
ENDBRANCH   8  12
BRANCH  13  14
ATOM     14  C   UNL     1      -1.451   1.518  25.366  0.00  0.00    +0.041 A 
ATOM     16  C   UNL     1      -2.790   1.814  25.112  0.00  0.00    +0.062 A 
ATOM     17  C   UNL     1      -0.571   2.533  25.745  0.00  0.00    +0.017 A 
ATOM     18  C   UNL     1      -3.250   3.125  25.238  0.00  0.00    +0.162 A 
ATOM     19  C   UNL     1      -1.032   3.843  25.871  0.00  0.00    +0.050 A 
ATOM     21  C   UNL     1      -2.372   4.139  25.618  0.00  0.00    +0.162 A 
BRANCH  18   3
ATOM      3  O   UNL     1      -4.561   3.401  24.988  0.00  0.00    -0.491 OA
ATOM     22  C   UNL     1      -5.473   2.305  25.024  0.00  0.00    +0.277 C 
ENDBRANCH  18   3
BRANCH  21   4
ATOM      4  O   UNL     1      -2.809   5.423  25.745  0.00  0.00    -0.491 OA
ATOM     23  C   UNL     1      -2.104   6.424  25.013  0.00  0.00    +0.277 C 
ENDBRANCH  21   4
ENDBRANCH  13  14
TORSDOF 4
ENDMDL
MODEL 5
REMARK VINA RESULT:      -0.4      1.660      2.152
REMARK  Name = 51137714
REMARK  7 active torsions:
REMARK  status: ('A' for Active; 'I' for Inactive)
REMARK    1  A    between atoms: O_3  and  C_18
REMARK    2  A    between atoms: O_3  and  C_22
REMARK    3  A    between atoms: O_4  and  C_21
REMARK    4  A    between atoms: O_4  and  C_23
REMARK    5  A    between atoms: C_8  and  C_12
REMARK    6  A    between atoms: C_13  and  C_14
REMARK    7  A    between atoms: C_15  and  C_20
REMARK                            x       y       z     vdW  Elec       q    Type
REMARK                         _______ _______ _______ _____ _____    ______ ____
ROOT
ATOM      2  O   UNL     1      12.884  -6.535  29.574  0.00  0.00    -0.270 OA
ATOM      5  N   UNL     1      14.592  -5.883  31.007  0.00  0.00    -0.297 N 
ATOM      8  C   UNL     1      16.130  -4.613  32.304  0.00  0.00    +0.095 C 
ATOM      9  C   UNL     1      14.711  -4.437  32.868  0.00  0.00    +0.033 C 
ATOM     10  C   UNL     1      15.982  -5.889  31.463  0.00  0.00    +0.121 C 
ATOM     11  C   UNL     1      13.807  -4.894  31.731  0.00  0.00    +0.109 C 
ATOM     13  C   UNL     1      14.043  -6.626  29.974  0.00  0.00    +0.247 C 
ENDROOT
BRANCH   8  12
ATOM      1  O   UNL     1      16.688  -3.448  30.217  0.00  0.00    -0.425 OA
ATOM      6  N   UNL     1      16.942  -2.194  32.053  0.00  0.00    -0.112 NA
ATOM      7  N   UNL     1      17.286  -1.423  30.958  0.00  0.00    -0.113 NA
ATOM     12  C   UNL     1      16.600  -3.368  31.572  0.00  0.00    +0.222 A 
ATOM     15  C   UNL     1      17.122  -2.195  29.909  0.00  0.00    +0.214 A 
ATOM     20  C   UNL     1      17.336  -1.898  28.487  0.00  0.00    +0.111 C 
ENDBRANCH   8  12
BRANCH  13  14
ATOM     14  C   UNL     1      14.920  -7.590  29.290  0.00  0.00    +0.041 A 
ATOM     16  C   UNL     1      14.379  -8.744  28.723  0.00  0.00    +0.062 A 
ATOM     17  C   UNL     1      16.292  -7.351  29.211  0.00  0.00    +0.017 A 
ATOM     18  C   UNL     1      15.210  -9.658  28.075  0.00  0.00    +0.162 A 
ATOM     19  C   UNL     1      17.122  -8.265  28.563  0.00  0.00    +0.050 A 
ATOM     21  C   UNL     1      16.581  -9.418  27.995  0.00  0.00    +0.162 A 
BRANCH  18   3
ATOM      3  O   UNL     1      14.669 -10.781  27.524  0.00  0.00    -0.491 OA
ATOM     22  C   UNL     1      13.902 -10.614  26.334  0.00  0.00    +0.277 C 
ENDBRANCH  18   3
BRANCH  21   4
ATOM      4  O   UNL     1      17.404 -10.303  27.365  0.00  0.00    -0.491 OA
ATOM     23  C   UNL     1      17.369 -10.320  25.940  0.00  0.00    +0.277 C 
ENDBRANCH  21   4
ENDBRANCH  13  14
TORSDOF 4
ENDMDL
MODEL 6
REMARK VINA RESULT:       0.1     19.097     20.410
REMARK  Name = 51137714
REMARK  7 active torsions:
REMARK  status: ('A' for Active; 'I' for Inactive)
REMARK    1  A    between atoms: O_3  and  C_18
REMARK    2  A    between atoms: O_3  and  C_22
REMARK    3  A    between atoms: O_4  and  C_21
REMARK    4  A    between atoms: O_4  and  C_23
REMARK    5  A    between atoms: C_8  and  C_12
REMARK    6  A    between atoms: C_13  and  C_14
REMARK    7  A    between atoms: C_15  and  C_20
REMARK                            x       y       z     vdW  Elec       q    Type
REMARK                         _______ _______ _______ _____ _____    ______ ____
ROOT
ATOM      2  O   UNL     1       0.087   2.602  26.770  0.00  0.00    -0.270 OA
ATOM      5  N   UNL     1      -1.460   3.301  25.185  0.00  0.00    -0.297 N 
ATOM      8  C   UNL     1      -3.346   4.259  24.095  0.00  0.00    +0.095 C 
ATOM      9  C   UNL     1      -2.459   5.375  24.670  0.00  0.00    +0.033 C 
ATOM     10  C   UNL     1      -2.379   3.066  24.071  0.00  0.00    +0.121 C 
ATOM     11  C   UNL     1      -1.585   4.659  25.691  0.00  0.00    +0.109 C 
ATOM     13  C   UNL     1      -0.616   2.380  25.786  0.00  0.00    +0.247 C 
ENDROOT
BRANCH   8  12
ATOM      1  O   UNL     1      -4.900   2.828  25.345  0.00  0.00    -0.425 OA
ATOM      6  N   UNL     1      -5.516   4.977  25.255  0.00  0.00    -0.112 NA
ATOM      7  N   UNL     1      -6.470   4.289  25.982  0.00  0.00    -0.113 NA
ATOM     12  C   UNL     1      -4.620   4.084  24.904  0.00  0.00    +0.222 A 
ATOM     15  C   UNL     1      -6.069   3.039  26.009  0.00  0.00    +0.214 A 
ATOM     20  C   UNL     1      -6.693   1.871  26.643  0.00  0.00    +0.111 C 
ENDBRANCH   8  12
BRANCH  13  14
ATOM     14  C   UNL     1      -0.568   1.026  25.213  0.00  0.00    +0.041 A 
ATOM     16  C   UNL     1       0.232   0.768  24.101  0.00  0.00    +0.062 A 
ATOM     17  C   UNL     1      -1.325   0.001  25.781  0.00  0.00    +0.017 A 
ATOM     18  C   UNL     1       0.278  -0.515  23.556  0.00  0.00    +0.162 A 
ATOM     19  C   UNL     1      -1.279  -1.282  25.236  0.00  0.00    +0.050 A 
ATOM     21  C   UNL     1      -0.477  -1.541  24.124  0.00  0.00    +0.162 A 
BRANCH  18   3
ATOM      3  O   UNL     1       1.065  -0.755  22.470  0.00  0.00    -0.491 OA
ATOM     22  C   UNL     1       2.283  -0.018  22.377  0.00  0.00    +0.277 C 
ENDBRANCH  18   3
BRANCH  21   4
ATOM      4  O   UNL     1      -0.442  -2.798  23.603  0.00  0.00    -0.491 OA
ATOM     23  C   UNL     1      -1.671  -3.520  23.563  0.00  0.00    +0.277 C 
ENDBRANCH  21   4
ENDBRANCH  13  14
TORSDOF 4
ENDMDL
MODEL 7
REMARK VINA RESULT:       0.4     18.789     20.113
REMARK  Name = 51137714
REMARK  7 active torsions:
REMARK  status: ('A' for Active; 'I' for Inactive)
REMARK    1  A    between atoms: O_3  and  C_18
REMARK    2  A    between atoms: O_3  and  C_22
REMARK    3  A    between atoms: O_4  and  C_21
REMARK    4  A    between atoms: O_4  and  C_23
REMARK    5  A    between atoms: C_8  and  C_12
REMARK    6  A    between atoms: C_13  and  C_14
REMARK    7  A    between atoms: C_15  and  C_20
REMARK                            x       y       z     vdW  Elec       q    Type
REMARK                         _______ _______ _______ _____ _____    ______ ____
ROOT
ATOM      2  O   UNL     1      -0.047   2.371  27.075  0.00  0.00    -0.270 OA
ATOM      5  N   UNL     1      -1.643   3.161  25.584  0.00  0.00    -0.297 N 
ATOM      8  C   UNL     1      -3.684   3.820  24.553  0.00  0.00    +0.095 C 
ATOM      9  C   UNL     1      -3.367   4.766  25.722  0.00  0.00    +0.033 C 
ATOM     10  C   UNL     1      -2.316   3.177  24.285  0.00  0.00    +0.121 C 
ATOM     11  C   UNL     1      -2.342   3.999  26.547  0.00  0.00    +0.109 C 
ATOM     13  C   UNL     1      -0.537   2.410  25.948  0.00  0.00    +0.247 C 
ENDROOT
BRANCH   8  12
ATOM      1  O   UNL     1      -5.199   2.809  26.198  0.00  0.00    -0.425 OA
ATOM      6  N   UNL     1      -5.525   2.094  24.103  0.00  0.00    -0.112 NA
ATOM      7  N   UNL     1      -6.436   1.451  24.921  0.00  0.00    -0.113 NA
ATOM     12  C   UNL     1      -4.824   2.875  24.892  0.00  0.00    +0.222 A 
ATOM     15  C   UNL     1      -6.210   1.899  26.134  0.00  0.00    +0.214 A 
ATOM     20  C   UNL     1      -6.882   1.563  27.395  0.00  0.00    +0.111 C 
ENDBRANCH   8  12
BRANCH  13  14
ATOM     14  C   UNL     1       0.094   1.581  24.909  0.00  0.00    +0.041 A 
ATOM     16  C   UNL     1       1.322   1.958  24.367  0.00  0.00    +0.062 A 
ATOM     17  C   UNL     1      -0.537   0.419  24.465  0.00  0.00    +0.017 A 
ATOM     18  C   UNL     1       1.921   1.174  23.381  0.00  0.00    +0.162 A 
ATOM     19  C   UNL     1       0.061  -0.365  23.479  0.00  0.00    +0.050 A 
ATOM     21  C   UNL     1       1.290   0.011  22.938  0.00  0.00    +0.162 A 
BRANCH  18   3
ATOM      3  O   UNL     1       3.121   1.552  22.860  0.00  0.00    -0.491 OA
ATOM     22  C   UNL     1       4.228   0.680  23.080  0.00  0.00    +0.277 C 
ENDBRANCH  18   3
BRANCH  21   4
ATOM      4  O   UNL     1       1.864  -0.764  21.976  0.00  0.00    -0.491 OA
ATOM     23  C   UNL     1       1.106  -0.994  20.790  0.00  0.00    +0.277 C 
ENDBRANCH  21   4
ENDBRANCH  13  14
TORSDOF 4
ENDMDL
