MODEL 1
REMARK VINA RESULT:      -4.6      0.000      0.000
REMARK  Name = 38031080
REMARK  11 active torsions:
REMARK  status: ('A' for Active; 'I' for Inactive)
REMARK    1  A    between atoms: N_3  and  C_14
REMARK    2  A    between atoms: N_3  and  C_20
REMARK    3  A    between atoms: C_7  and  C_11
REMARK    4  A    between atoms: C_8  and  C_14
REMARK    5  A    between atoms: C_10  and  C_15
REMARK    6  A    between atoms: C_11  and  C_16
REMARK    7  A    between atoms: C_11  and  C_17
REMARK    8  A    between atoms: C_12  and  C_18
REMARK    9  A    between atoms: C_15  and  C_19
REMARK   10  A    between atoms: C_20  and  C_21
REMARK   11  A    between atoms: C_22  and  C_24
REMARK                            x       y       z     vdW  Elec       q    Type
REMARK                         _______ _______ _______ _____ _____    ______ ____
ROOT
ATOM      7  C   UNL     1      -1.868   2.474  23.603  0.00  0.00    +0.000 C 
ATOM      8  C   UNL     1      -0.541   1.693  23.767  0.00  0.00    +0.029 C 
ATOM      9  C   UNL     1      -1.724   3.899  24.160  0.00  0.00    +0.012 C 
ATOM     10  C   UNL     1      -1.334   3.905  25.650  0.00  0.00    +0.024 C 
ATOM     12  C   UNL     1      -0.196   2.948  25.939  0.00  0.00    -0.073 C 
ATOM     13  C   UNL     1       0.153   1.974  25.080  0.00  0.00    -0.023 C 
ATOM     18  C   UNL     1       0.562   3.164  27.218  0.00  0.00    +0.039 C 
ENDROOT
BRANCH   7  11
ATOM     11  C   UNL     1      -2.317   2.532  22.140  0.00  0.00    -0.013 C 
ATOM     16  C   UNL     1      -2.454   1.125  21.569  0.00  0.00    +0.007 C 
ATOM     17  C   UNL     1      -3.632   3.297  22.016  0.00  0.00    +0.007 C 
ENDBRANCH   7  11
BRANCH   8  14
ATOM     14  C   UNL     1      -0.766   0.183  23.621  0.00  0.00    +0.089 C 
BRANCH  14   3
ATOM      3  N   UNL     1       0.493  -0.535  23.724  0.00  0.00    -0.310 NA
ATOM     33  H   UNL     1       0.976  -0.273  24.583  0.00  0.00    +0.122 HD
BRANCH   3  20
ATOM     20  C   UNL     1       1.354  -0.248  22.582  0.00  0.00    +0.136 C 
BRANCH  20  21
ATOM      6  N   UNL     1       3.315  -1.332  23.521  0.00  0.00    -0.259 NA
ATOM     21  C   UNL     1       2.805  -0.209  22.969  0.00  0.00    +0.055 A 
ATOM     23  C   UNL     1       3.535   0.947  22.746  0.00  0.00    +0.024 A 
ATOM     25  C   UNL     1       4.876   0.951  23.114  0.00  0.00    +0.003 A 
ATOM     26  C   UNL     1       4.622  -1.291  23.866  0.00  0.00    +0.111 A 
ATOM     29  C   UNL     1       5.437  -0.186  23.685  0.00  0.00    +0.020 A 
ENDBRANCH  20  21
ENDBRANCH   3  20
ENDBRANCH  14   3
ENDBRANCH   8  14
BRANCH  10  15
ATOM     15  C   UNL     1      -2.545   3.603  26.539  0.00  0.00    +0.105 C 
BRANCH  15  19
ATOM      2  O   UNL     1      -3.047   1.347  25.752  0.00  0.00    -0.420 OA
ATOM      4  N   UNL     1      -4.684   2.827  25.392  0.00  0.00    -0.112 NA
ATOM      5  N   UNL     1      -5.099   1.604  24.901  0.00  0.00    -0.107 NA
ATOM     19  C   UNL     1      -3.481   2.631  25.879  0.00  0.00    +0.218 A 
ATOM     22  C   UNL     1      -4.112   0.770  25.133  0.00  0.00    +0.251 A 
BRANCH  22  24
ATOM      1  F   UNL     1      -2.843  -1.006  26.891  0.00  0.00    -0.205 F 
ATOM     24  C   UNL     1      -3.986  -0.628  24.840  0.00  0.00    +0.074 A 
ATOM     27  C   UNL     1      -3.348  -1.479  25.742  0.00  0.00    +0.136 A 
ATOM     28  C   UNL     1      -4.505  -1.136  23.649  0.00  0.00    +0.016 A 
ATOM     30  C   UNL     1      -3.227  -2.839  25.452  0.00  0.00    +0.039 A 
ATOM     31  C   UNL     1      -4.383  -2.495  23.359  0.00  0.00    +0.001 A 
ATOM     32  C   UNL     1      -3.745  -3.347  24.261  0.00  0.00    +0.003 A 
ENDBRANCH  22  24
ENDBRANCH  15  19
ENDBRANCH  10  15
TORSDOF 8
ENDMDL
MODEL 2
REMARK VINA RESULT:      -4.1      2.140      6.901
REMARK  Name = 38031080
REMARK  11 active torsions:
REMARK  status: ('A' for Active; 'I' for Inactive)
REMARK    1  A    between atoms: N_3  and  C_14
REMARK    2  A    between atoms: N_3  and  C_20
REMARK    3  A    between atoms: C_7  and  C_11
REMARK    4  A    between atoms: C_8  and  C_14
REMARK    5  A    between atoms: C_10  and  C_15
REMARK    6  A    between atoms: C_11  and  C_16
REMARK    7  A    between atoms: C_11  and  C_17
REMARK    8  A    between atoms: C_12  and  C_18
REMARK    9  A    between atoms: C_15  and  C_19
REMARK   10  A    between atoms: C_20  and  C_21
REMARK   11  A    between atoms: C_22  and  C_24
REMARK                            x       y       z     vdW  Elec       q    Type
REMARK                         _______ _______ _______ _____ _____    ______ ____
ROOT
ATOM      7  C   UNL     1      -2.586   3.296  25.170  0.00  0.00    +0.000 C 
ATOM      8  C   UNL     1      -3.846   3.531  24.302  0.00  0.00    +0.029 C 
ATOM      9  C   UNL     1      -1.322   3.309  24.295  0.00  0.00    +0.012 C 
ATOM     10  C   UNL     1      -1.365   2.232  23.195  0.00  0.00    +0.024 C 
ATOM     12  C   UNL     1      -2.692   2.225  22.465  0.00  0.00    -0.073 C 
ATOM     13  C   UNL     1      -3.787   2.822  22.968  0.00  0.00    -0.023 C 
ATOM     18  C   UNL     1      -2.722   1.555  21.120  0.00  0.00    +0.039 C 
ENDROOT
BRANCH   7  11
ATOM     11  C   UNL     1      -2.457   4.341  26.282  0.00  0.00    -0.013 C 
ATOM     16  C   UNL     1      -2.364   5.743  25.687  0.00  0.00    +0.007 C 
ATOM     17  C   UNL     1      -3.635   4.240  27.246  0.00  0.00    +0.007 C 
ENDBRANCH   7  11
BRANCH   8  14
ATOM     14  C   UNL     1      -5.119   3.110  25.047  0.00  0.00    +0.089 C 
BRANCH  14   3
ATOM      3  N   UNL     1      -5.456   1.729  24.747  0.00  0.00    -0.310 NA
ATOM     33  H   UNL     1      -6.465   1.633  24.634  0.00  0.00    +0.122 HD
BRANCH   3  20
ATOM     20  C   UNL     1      -5.004   0.837  25.807  0.00  0.00    +0.136 C 
BRANCH  20  21
ATOM      6  N   UNL     1      -3.392  -0.959  26.087  0.00  0.00    -0.259 NA
ATOM     21  C   UNL     1      -4.281  -0.362  25.263  0.00  0.00    +0.055 A 
ATOM     23  C   UNL     1      -4.553  -0.790  23.974  0.00  0.00    +0.024 A 
ATOM     25  C   UNL     1      -3.868  -1.903  23.499  0.00  0.00    +0.003 A 
ATOM     26  C   UNL     1      -2.745  -2.039  25.591  0.00  0.00    +0.111 A 
ATOM     29  C   UNL     1      -2.946  -2.545  24.317  0.00  0.00    +0.020 A 
ENDBRANCH  20  21
ENDBRANCH   3  20
ENDBRANCH  14   3
ENDBRANCH   8  14
BRANCH  10  15
ATOM     15  C   UNL     1      -1.044   0.846  23.765  0.00  0.00    +0.105 C 
BRANCH  15  19
ATOM      2  O   UNL     1       1.347   0.357  23.732  0.00  0.00    -0.420 OA
ATOM      4  N   UNL     1       0.232  -0.405  21.949  0.00  0.00    -0.112 NA
ATOM      5  N   UNL     1       1.562  -0.749  21.799  0.00  0.00    -0.107 NA
ATOM     19  C   UNL     1       0.152   0.239  23.090  0.00  0.00    +0.218 A 
ATOM     22  C   UNL     1       2.175  -0.285  22.863  0.00  0.00    +0.251 A 
BRANCH  22  24
ATOM      1  F   UNL     1       3.901   1.903  22.560  0.00  0.00    -0.205 F 
ATOM     24  C   UNL     1       3.556  -0.348  23.244  0.00  0.00    +0.074 A 
ATOM     27  C   UNL     1       4.382   0.763  23.077  0.00  0.00    +0.136 A 
ATOM     28  C   UNL     1       4.073  -1.526  23.784  0.00  0.00    +0.016 A 
ATOM     30  C   UNL     1       5.725   0.696  23.448  0.00  0.00    +0.039 A 
ATOM     31  C   UNL     1       5.416  -1.593  24.154  0.00  0.00    +0.001 A 
ATOM     32  C   UNL     1       6.243  -0.481  23.987  0.00  0.00    +0.003 A 
ENDBRANCH  22  24
ENDBRANCH  15  19
ENDBRANCH  10  15
TORSDOF 8
ENDMDL
MODEL 3
REMARK VINA RESULT:      -3.3      1.624      4.574
REMARK  Name = 38031080
REMARK  11 active torsions:
REMARK  status: ('A' for Active; 'I' for Inactive)
REMARK    1  A    between atoms: N_3  and  C_14
REMARK    2  A    between atoms: N_3  and  C_20
REMARK    3  A    between atoms: C_7  and  C_11
REMARK    4  A    between atoms: C_8  and  C_14
REMARK    5  A    between atoms: C_10  and  C_15
REMARK    6  A    between atoms: C_11  and  C_16
REMARK    7  A    between atoms: C_11  and  C_17
REMARK    8  A    between atoms: C_12  and  C_18
REMARK    9  A    between atoms: C_15  and  C_19
REMARK   10  A    between atoms: C_20  and  C_21
REMARK   11  A    between atoms: C_22  and  C_24
REMARK                            x       y       z     vdW  Elec       q    Type
REMARK                         _______ _______ _______ _____ _____    ______ ____
ROOT
ATOM      7  C   UNL     1      -1.308   0.184  24.699  0.00  0.00    +0.000 C 
ATOM      8  C   UNL     1      -0.560  -1.100  24.265  0.00  0.00    +0.029 C 
ATOM      9  C   UNL     1      -2.288  -0.125  25.841  0.00  0.00    +0.012 C 
ATOM     10  C   UNL     1      -3.330  -1.187  25.442  0.00  0.00    +0.024 C 
ATOM     12  C   UNL     1      -2.690  -2.377  24.758  0.00  0.00    -0.073 C 
ATOM     13  C   UNL     1      -1.446  -2.324  24.251  0.00  0.00    -0.023 C 
ATOM     18  C   UNL     1      -3.494  -3.646  24.713  0.00  0.00    +0.039 C 
ENDROOT
BRANCH   7  11
ATOM     11  C   UNL     1      -0.339   1.289  25.133  0.00  0.00    -0.013 C 
ATOM     16  C   UNL     1      -0.483   2.509  24.229  0.00  0.00    +0.007 C 
ATOM     17  C   UNL     1      -0.578   1.664  26.592  0.00  0.00    +0.007 C 
ENDBRANCH   7  11
BRANCH   8  14
ATOM     14  C   UNL     1       0.089  -0.924  22.886  0.00  0.00    +0.089 C 
BRANCH  14   3
ATOM      3  N   UNL     1       1.044   0.171  22.906  0.00  0.00    -0.310 NA
ATOM     33  H   UNL     1       0.594   1.033  22.600  0.00  0.00    +0.122 HD
BRANCH   3  20
ATOM     20  C   UNL     1       2.182  -0.111  22.039  0.00  0.00    +0.136 C 
BRANCH  20  21
ATOM      6  N   UNL     1       3.730  -1.410  23.387  0.00  0.00    -0.259 NA
ATOM     21  C   UNL     1       3.465  -0.216  22.812  0.00  0.00    +0.055 A 
ATOM     23  C   UNL     1       4.298   0.888  22.898  0.00  0.00    +0.024 A 
ATOM     25  C   UNL     1       5.479   0.758  23.621  0.00  0.00    +0.003 A 
ATOM     26  C   UNL     1       4.887  -1.499  24.081  0.00  0.00    +0.111 A 
ATOM     29  C   UNL     1       5.786  -0.455  24.226  0.00  0.00    +0.020 A 
ENDBRANCH  20  21
ENDBRANCH   3  20
ENDBRANCH  14   3
ENDBRANCH   8  14
BRANCH  10  15
ATOM     15  C   UNL     1      -4.431  -0.578  24.566  0.00  0.00    +0.105 C 
BRANCH  15  19
ATOM      2  O   UNL     1      -3.793   1.778  24.538  0.00  0.00    -0.420 OA
ATOM      4  N   UNL     1      -5.707   1.361  25.615  0.00  0.00    -0.112 NA
ATOM      5  N   UNL     1      -5.470   2.721  25.678  0.00  0.00    -0.107 NA
ATOM     19  C   UNL     1      -4.703   0.850  24.942  0.00  0.00    +0.218 A 
ATOM     22  C   UNL     1      -4.342   2.919  25.035  0.00  0.00    +0.251 A 
BRANCH  22  24
ATOM      1  F   UNL     1      -2.276   3.788  26.718  0.00  0.00    -0.205 F 
ATOM     24  C   UNL     1      -3.614   4.129  24.782  0.00  0.00    +0.074 A 
ATOM     27  C   UNL     1      -2.592   4.526  25.643  0.00  0.00    +0.136 A 
ATOM     28  C   UNL     1      -3.931   4.908  23.669  0.00  0.00    +0.016 A 
ATOM     30  C   UNL     1      -1.887   5.704  25.393  0.00  0.00    +0.039 A 
ATOM     31  C   UNL     1      -3.227   6.086  23.420  0.00  0.00    +0.001 A 
ATOM     32  C   UNL     1      -2.204   6.484  24.282  0.00  0.00    +0.003 A 
ENDBRANCH  22  24
ENDBRANCH  15  19
ENDBRANCH  10  15
TORSDOF 8
ENDMDL
MODEL 4
REMARK VINA RESULT:      -3.2      2.174      6.547
REMARK  Name = 38031080
REMARK  11 active torsions:
REMARK  status: ('A' for Active; 'I' for Inactive)
REMARK    1  A    between atoms: N_3  and  C_14
REMARK    2  A    between atoms: N_3  and  C_20
REMARK    3  A    between atoms: C_7  and  C_11
REMARK    4  A    between atoms: C_8  and  C_14
REMARK    5  A    between atoms: C_10  and  C_15
REMARK    6  A    between atoms: C_11  and  C_16
REMARK    7  A    between atoms: C_11  and  C_17
REMARK    8  A    between atoms: C_12  and  C_18
REMARK    9  A    between atoms: C_15  and  C_19
REMARK   10  A    between atoms: C_20  and  C_21
REMARK   11  A    between atoms: C_22  and  C_24
REMARK                            x       y       z     vdW  Elec       q    Type
REMARK                         _______ _______ _______ _____ _____    ______ ____
ROOT
ATOM      7  C   UNL     1      -3.597   1.799  23.636  0.00  0.00    +0.000 C 
ATOM      8  C   UNL     1      -4.846   1.527  24.510  0.00  0.00    +0.029 C 
ATOM      9  C   UNL     1      -3.035   0.481  23.079  0.00  0.00    +0.012 C 
ATOM     10  C   UNL     1      -2.645  -0.504  24.197  0.00  0.00    +0.024 C 
ATOM     12  C   UNL     1      -3.728  -0.621  25.249  0.00  0.00    -0.073 C 
ATOM     13  C   UNL     1      -4.712   0.288  25.365  0.00  0.00    -0.023 C 
ATOM     18  C   UNL     1      -3.683  -1.834  26.135  0.00  0.00    +0.039 C 
ENDROOT
BRANCH   7  11
ATOM     11  C   UNL     1      -3.907   2.759  22.483  0.00  0.00    -0.013 C 
ATOM     16  C   UNL     1      -3.979   4.195  22.991  0.00  0.00    +0.007 C 
ATOM     17  C   UNL     1      -2.859   2.625  21.382  0.00  0.00    +0.007 C 
ENDBRANCH   7  11
BRANCH   8  14
ATOM     14  C   UNL     1      -5.170   2.731  25.403  0.00  0.00    +0.089 C 
BRANCH  14   3
ATOM      3  N   UNL     1      -4.250   2.798  26.526  0.00  0.00    -0.310 NA
ATOM     33  H   UNL     1      -4.744   2.599  27.395  0.00  0.00    +0.122 HD
BRANCH   3  20
ATOM     20  C   UNL     1      -3.629   4.115  26.617  0.00  0.00    +0.136 C 
BRANCH  20  21
ATOM      6  N   UNL     1      -1.986   5.319  25.293  0.00  0.00    -0.259 NA
ATOM     21  C   UNL     1      -2.303   4.161  25.913  0.00  0.00    +0.055 A 
ATOM     23  C   UNL     1      -1.486   3.042  25.932  0.00  0.00    +0.024 A 
ATOM     25  C   UNL     1      -0.264   3.117  25.272  0.00  0.00    +0.003 A 
ATOM     26  C   UNL     1      -0.791   5.355  24.662  0.00  0.00    +0.111 A 
ATOM     29  C   UNL     1       0.097   4.292  24.623  0.00  0.00    +0.020 A 
ENDBRANCH  20  21
ENDBRANCH   3  20
ENDBRANCH  14   3
ENDBRANCH   8  14
BRANCH  10  15
ATOM     15  C   UNL     1      -1.304  -0.116  24.831  0.00  0.00    +0.105 C 
BRANCH  15  19
ATOM      2  O   UNL     1       1.083  -0.194  24.329  0.00  0.00    -0.420 OA
ATOM      4  N   UNL     1      -0.234  -0.250  22.523  0.00  0.00    -0.112 NA
ATOM      5  N   UNL     1       1.079  -0.300  22.095  0.00  0.00    -0.107 NA
ATOM     19  C   UNL     1      -0.184  -0.189  23.833  0.00  0.00    +0.218 A 
ATOM     22  C   UNL     1       1.813  -0.266  23.183  0.00  0.00    +0.251 A 
BRANCH  22  24
ATOM      1  F   UNL     1       3.405   1.986  22.683  0.00  0.00    -0.205 F 
ATOM     24  C   UNL     1       3.238  -0.291  23.346  0.00  0.00    +0.074 A 
ATOM     27  C   UNL     1       3.994   0.851  23.088  0.00  0.00    +0.136 A 
ATOM     28  C   UNL     1       3.866  -1.464  23.766  0.00  0.00    +0.016 A 
ATOM     30  C   UNL     1       5.380   0.822  23.248  0.00  0.00    +0.039 A 
ATOM     31  C   UNL     1       5.251  -1.494  23.925  0.00  0.00    +0.001 A 
ATOM     32  C   UNL     1       6.009  -0.350  23.666  0.00  0.00    +0.003 A 
ENDBRANCH  22  24
ENDBRANCH  15  19
ENDBRANCH  10  15
TORSDOF 8
ENDMDL
MODEL 5
REMARK VINA RESULT:      -3.1      1.152      1.594
REMARK  Name = 38031080
REMARK  11 active torsions:
REMARK  status: ('A' for Active; 'I' for Inactive)
REMARK    1  A    between atoms: N_3  and  C_14
REMARK    2  A    between atoms: N_3  and  C_20
REMARK    3  A    between atoms: C_7  and  C_11
REMARK    4  A    between atoms: C_8  and  C_14
REMARK    5  A    between atoms: C_10  and  C_15
REMARK    6  A    between atoms: C_11  and  C_16
REMARK    7  A    between atoms: C_11  and  C_17
REMARK    8  A    between atoms: C_12  and  C_18
REMARK    9  A    between atoms: C_15  and  C_19
REMARK   10  A    between atoms: C_20  and  C_21
REMARK   11  A    between atoms: C_22  and  C_24
REMARK                            x       y       z     vdW  Elec       q    Type
REMARK                         _______ _______ _______ _____ _____    ______ ____
ROOT
ATOM      7  C   UNL     1      -2.176   2.130  23.716  0.00  0.00    +0.000 C 
ATOM      8  C   UNL     1      -0.737   2.701  23.677  0.00  0.00    +0.029 C 
ATOM      9  C   UNL     1      -3.203   3.246  23.466  0.00  0.00    +0.012 C 
ATOM     10  C   UNL     1      -3.098   4.377  24.506  0.00  0.00    +0.024 C 
ATOM     12  C   UNL     1      -1.663   4.814  24.721  0.00  0.00    -0.073 C 
ATOM     13  C   UNL     1      -0.621   4.058  24.331  0.00  0.00    -0.023 C 
ATOM     18  C   UNL     1      -1.453   6.162  25.351  0.00  0.00    +0.039 C 
ENDROOT
BRANCH   7  11
ATOM     11  C   UNL     1      -2.371   1.007  22.693  0.00  0.00    -0.013 C 
ATOM     16  C   UNL     1      -2.207   1.545  21.275  0.00  0.00    +0.007 C 
ATOM     17  C   UNL     1      -1.391  -0.131  22.957  0.00  0.00    +0.007 C 
ENDBRANCH   7  11
BRANCH   8  14
ATOM     14  C   UNL     1       0.260   1.734  24.326  0.00  0.00    +0.089 C 
BRANCH  14   3
ATOM      3  N   UNL     1       1.557   1.824  23.678  0.00  0.00    -0.310 NA
ATOM     33  H   UNL     1       1.575   2.620  23.041  0.00  0.00    +0.122 HD
BRANCH   3  20
ATOM     20  C   UNL     1       1.858   0.607  22.934  0.00  0.00    +0.136 C 
BRANCH  20  21
ATOM      6  N   UNL     1       3.328  -1.203  23.614  0.00  0.00    -0.259 NA
ATOM     21  C   UNL     1       3.235   0.090  23.234  0.00  0.00    +0.055 A 
ATOM     23  C   UNL     1       4.321   0.942  23.110  0.00  0.00    +0.024 A 
ATOM     25  C   UNL     1       5.584   0.434  23.394  0.00  0.00    +0.003 A 
ATOM     26  C   UNL     1       4.571  -1.663  23.881  0.00  0.00    +0.111 A 
ATOM     29  C   UNL     1       5.719  -0.893  23.788  0.00  0.00    +0.020 A 
ENDBRANCH  20  21
ENDBRANCH   3  20
ENDBRANCH  14   3
ENDBRANCH   8  14
BRANCH  10  15
ATOM     15  C   UNL     1      -3.752   3.972  25.831  0.00  0.00    +0.105 C 
BRANCH  15  19
ATOM      2  O   UNL     1      -3.760   1.574  25.380  0.00  0.00    -0.420 OA
ATOM      4  N   UNL     1      -5.774   2.423  25.855  0.00  0.00    -0.112 NA
ATOM      5  N   UNL     1      -5.926   1.069  25.622  0.00  0.00    -0.107 NA
ATOM     19  C   UNL     1      -4.495   2.673  25.702  0.00  0.00    +0.218 A 
ATOM     22  C   UNL     1      -4.725   0.614  25.350  0.00  0.00    +0.251 A 
BRANCH  22  24
ATOM      1  F   UNL     1      -2.961  -0.801  27.006  0.00  0.00    -0.205 F 
ATOM     24  C   UNL     1      -4.281  -0.712  25.030  0.00  0.00    +0.074 A 
ATOM     27  C   UNL     1      -3.404  -1.382  25.881  0.00  0.00    +0.136 A 
ATOM     28  C   UNL     1      -4.732  -1.331  23.864  0.00  0.00    +0.016 A 
ATOM     30  C   UNL     1      -2.975  -2.672  25.566  0.00  0.00    +0.039 A 
ATOM     31  C   UNL     1      -4.302  -2.620  23.548  0.00  0.00    +0.001 A 
ATOM     32  C   UNL     1      -3.423  -3.291  24.400  0.00  0.00    +0.003 A 
ENDBRANCH  22  24
ENDBRANCH  15  19
ENDBRANCH  10  15
TORSDOF 8
ENDMDL
MODEL 6
REMARK VINA RESULT:      -0.8      1.872      3.233
REMARK  Name = 38031080
REMARK  11 active torsions:
REMARK  status: ('A' for Active; 'I' for Inactive)
REMARK    1  A    between atoms: N_3  and  C_14
REMARK    2  A    between atoms: N_3  and  C_20
REMARK    3  A    between atoms: C_7  and  C_11
REMARK    4  A    between atoms: C_8  and  C_14
REMARK    5  A    between atoms: C_10  and  C_15
REMARK    6  A    between atoms: C_11  and  C_16
REMARK    7  A    between atoms: C_11  and  C_17
REMARK    8  A    between atoms: C_12  and  C_18
REMARK    9  A    between atoms: C_15  and  C_19
REMARK   10  A    between atoms: C_20  and  C_21
REMARK   11  A    between atoms: C_22  and  C_24
REMARK                            x       y       z     vdW  Elec       q    Type
REMARK                         _______ _______ _______ _____ _____    ______ ____
ROOT
ATOM      7  C   UNL     1      -1.929   4.218  24.818  0.00  0.00    +0.000 C 
ATOM      8  C   UNL     1      -2.033   3.427  26.145  0.00  0.00    +0.029 C 
ATOM      9  C   UNL     1      -3.177   5.093  24.615  0.00  0.00    +0.012 C 
ATOM     10  C   UNL     1      -4.472   4.260  24.588  0.00  0.00    +0.024 C 
ATOM     12  C   UNL     1      -4.524   3.260  25.725  0.00  0.00    -0.073 C 
ATOM     13  C   UNL     1      -3.426   2.910  26.418  0.00  0.00    -0.023 C 
ATOM     18  C   UNL     1      -5.876   2.706  26.078  0.00  0.00    +0.039 C 
ENDROOT
BRANCH   7  11
ATOM     11  C   UNL     1      -0.671   5.091  24.772  0.00  0.00    -0.013 C 
ATOM     16  C   UNL     1       0.065   4.895  23.451  0.00  0.00    +0.007 C 
ATOM     17  C   UNL     1      -1.034   6.558  24.977  0.00  0.00    +0.007 C 
ENDBRANCH   7  11
BRANCH   8  14
ATOM     14  C   UNL     1      -1.041   2.258  26.171  0.00  0.00    +0.089 C 
BRANCH  14   3
ATOM      3  N   UNL     1      -0.519   1.997  24.840  0.00  0.00    -0.310 NA
ATOM     33  H   UNL     1      -0.827   1.080  24.518  0.00  0.00    +0.122 HD
BRANCH   3  20
ATOM     20  C   UNL     1       0.938   2.047  24.829  0.00  0.00    +0.136 C 
BRANCH  20  21
ATOM      6  N   UNL     1       2.825   1.424  23.432  0.00  0.00    -0.259 NA
ATOM     21  C   UNL     1       1.520   1.222  23.718  0.00  0.00    +0.055 A 
ATOM     23  C   UNL     1       0.712   0.313  23.053  0.00  0.00    +0.024 A 
ATOM     25  C   UNL     1       1.281  -0.437  22.029  0.00  0.00    +0.003 A 
ATOM     26  C   UNL     1       3.344   0.678  22.431  0.00  0.00    +0.111 A 
ATOM     29  C   UNL     1       2.621  -0.256  21.706  0.00  0.00    +0.020 A 
ENDBRANCH  20  21
ENDBRANCH   3  20
ENDBRANCH  14   3
ENDBRANCH   8  14
BRANCH  10  15
ATOM     15  C   UNL     1      -4.653   3.563  23.235  0.00  0.00    +0.105 C 
BRANCH  15  19
ATOM      2  O   UNL     1      -4.096   1.240  23.736  0.00  0.00    -0.420 OA
ATOM      4  N   UNL     1      -2.599   2.282  22.442  0.00  0.00    -0.112 NA
ATOM      5  N   UNL     1      -2.161   0.987  22.644  0.00  0.00    -0.107 NA
ATOM     19  C   UNL     1      -3.731   2.386  23.098  0.00  0.00    +0.218 A 
ATOM     22  C   UNL     1      -3.066   0.416  23.404  0.00  0.00    +0.251 A 
BRANCH  22  24
ATOM      1  F   UNL     1      -1.041  -0.648  25.025  0.00  0.00    -0.205 F 
ATOM     24  C   UNL     1      -3.135  -0.918  23.929  0.00  0.00    +0.074 A 
ATOM     27  C   UNL     1      -2.107  -1.409  24.732  0.00  0.00    +0.136 A 
ATOM     28  C   UNL     1      -4.235  -1.722  23.634  0.00  0.00    +0.016 A 
ATOM     30  C   UNL     1      -2.177  -2.707  25.240  0.00  0.00    +0.039 A 
ATOM     31  C   UNL     1      -4.306  -3.020  24.141  0.00  0.00    +0.001 A 
ATOM     32  C   UNL     1      -3.277  -3.512  24.944  0.00  0.00    +0.003 A 
ENDBRANCH  22  24
ENDBRANCH  15  19
ENDBRANCH  10  15
TORSDOF 8
ENDMDL
