MODEL 1
REMARK VINA RESULT:      -3.2      0.000      0.000
REMARK  Name = 28959376
REMARK  7 active torsions:
REMARK  status: ('A' for Active; 'I' for Inactive)
REMARK    1  A    between atoms: N_5  and  C_15
REMARK    2  A    between atoms: C_9  and  C_16
REMARK    3  A    between atoms: C_10  and  C_15
REMARK    4  A    between atoms: C_18  and  C_22
REMARK    5  A    between atoms: C_19  and  C_21
REMARK    6  A    between atoms: C_20  and  C_23
REMARK    7  A    between atoms: C_21  and  C_24
REMARK                            x       y       z     vdW  Elec       q    Type
REMARK                         _______ _______ _______ _____ _____    ______ ____
ROOT
ATOM      4  N   UNL     1      -1.872  -2.110  23.848  0.00  0.00    -0.297 NA
ATOM      8  C   UNL     1      -3.989  -1.662  25.297  0.00  0.00    +0.002 C 
ATOM      9  C   UNL     1      -3.826  -0.558  24.216  0.00  0.00    +0.055 C 
ATOM     10  C   UNL     1      -1.524  -2.185  25.291  0.00  0.00    +0.074 C 
ATOM     11  C   UNL     1      -2.711  -1.720  26.162  0.00  0.00    +0.024 C 
ATOM     12  C   UNL     1      -4.091  -3.008  24.547  0.00  0.00    +0.019 C 
ATOM     13  C   UNL     1      -2.446  -0.779  23.532  0.00  0.00    +0.094 C 
ATOM     14  C   UNL     1      -2.905  -3.138  23.576  0.00  0.00    +0.085 C 
ENDROOT
BRANCH   9  16
ATOM      6  N   UNL     1      -5.272   1.221  25.067  0.00  0.00    -0.237 NA
ATOM      7  N   UNL     1      -4.482   3.475  25.387  0.00  0.00    -0.229 NA
ATOM     16  C   UNL     1      -4.039   0.891  24.630  0.00  0.00    +0.050 A 
ATOM     17  C   UNL     1      -2.991   1.784  24.545  0.00  0.00    +0.055 A 
ATOM     18  C   UNL     1      -3.273   3.076  24.941  0.00  0.00    +0.110 A 
ATOM     20  C   UNL     1      -5.421   2.511  25.424  0.00  0.00    +0.127 A 
ATOM     23  C   UNL     1      -6.772   2.915  25.913  0.00  0.00    +0.088 C 
BRANCH  18  22
ATOM      3  O   UNL     1      -1.042   3.712  24.486  0.00  0.00    -0.461 OA
ATOM     22  C   UNL     1      -2.273   4.109  24.901  0.00  0.00    +0.153 A 
ATOM     25  C   UNL     1      -2.274   5.453  25.197  0.00  0.00    +0.051 A 
ATOM     26  C   UNL     1      -0.958   5.910  24.947  0.00  0.00    +0.042 A 
ATOM     27  C   UNL     1      -0.248   4.814  24.516  0.00  0.00    +0.196 A 
ENDBRANCH  18  22
ENDBRANCH   9  16
BRANCH  10  15
ATOM     15  C   UNL     1      -0.240  -1.420  25.623  0.00  0.00    +0.123 C 
BRANCH  15   5
ATOM      2  O   UNL     1       0.259   0.978  24.113  0.00  0.00    -0.275 OA
ATOM      5  N   UNL     1       0.592  -1.294  24.467  0.00  0.00    -0.314 N 
ATOM     19  C   UNL     1       0.780  -0.088  23.793  0.00  0.00    +0.218 C 
ATOM     31  H   UNL     1       1.055  -2.131  24.122  0.00  0.00    +0.149 HD
BRANCH  19  21
ATOM     21  C   UNL     1       1.715  -0.239  22.608  0.00  0.00    +0.138 C 
BRANCH  21  24
ATOM      1  S   UNL     1       3.984  -1.403  23.719  0.00  0.00    -0.101 S 
ATOM     24  C   UNL     1       3.169  -0.094  22.974  0.00  0.00    -0.001 A 
ATOM     28  C   UNL     1       3.995   0.993  22.792  0.00  0.00    +0.011 A 
ATOM     29  C   UNL     1       5.315   0.749  23.270  0.00  0.00    +0.008 A 
ATOM     30  C   UNL     1       5.448  -0.516  23.800  0.00  0.00    +0.045 A 
ENDBRANCH  21  24
ENDBRANCH  19  21
ENDBRANCH  15   5
ENDBRANCH  10  15
TORSDOF 6
ENDMDL
MODEL 2
REMARK VINA RESULT:      -1.9      1.732      4.841
REMARK  Name = 28959376
REMARK  7 active torsions:
REMARK  status: ('A' for Active; 'I' for Inactive)
REMARK    1  A    between atoms: N_5  and  C_15
REMARK    2  A    between atoms: C_9  and  C_16
REMARK    3  A    between atoms: C_10  and  C_15
REMARK    4  A    between atoms: C_18  and  C_22
REMARK    5  A    between atoms: C_19  and  C_21
REMARK    6  A    between atoms: C_20  and  C_23
REMARK    7  A    between atoms: C_21  and  C_24
REMARK                            x       y       z     vdW  Elec       q    Type
REMARK                         _______ _______ _______ _____ _____    ______ ____
ROOT
ATOM      4  N   UNL     1      -0.678   4.328  25.558  0.00  0.00    -0.297 NA
ATOM      8  C   UNL     1      -2.531   4.001  23.757  0.00  0.00    +0.002 C 
ATOM      9  C   UNL     1      -3.104   3.749  25.179  0.00  0.00    +0.055 C 
ATOM     10  C   UNL     1      -0.187   3.428  24.481  0.00  0.00    +0.074 C 
ATOM     11  C   UNL     1      -1.334   3.056  23.516  0.00  0.00    +0.024 C 
ATOM     12  C   UNL     1      -1.980   5.443  23.747  0.00  0.00    +0.019 C 
ATOM     13  C   UNL     1      -1.906   3.764  26.171  0.00  0.00    +0.094 C 
ATOM     14  C   UNL     1      -1.026   5.629  24.939  0.00  0.00    +0.085 C 
ENDROOT
BRANCH   9  16
ATOM      6  N   UNL     1      -5.189   2.773  26.003  0.00  0.00    -0.237 NA
ATOM      7  N   UNL     1      -5.681   0.424  25.784  0.00  0.00    -0.229 NA
ATOM     16  C   UNL     1      -4.012   2.545  25.386  0.00  0.00    +0.050 A 
ATOM     17  C   UNL     1      -3.604   1.302  24.945  0.00  0.00    +0.055 A 
ATOM     18  C   UNL     1      -4.488   0.268  25.174  0.00  0.00    +0.110 A 
ATOM     20  C   UNL     1      -5.964   1.683  26.167  0.00  0.00    +0.127 A 
ATOM     23  C   UNL     1      -7.275   1.894  26.846  0.00  0.00    +0.088 C 
BRANCH  18  22
ATOM      3  O   UNL     1      -3.509  -1.825  25.677  0.00  0.00    -0.461 OA
ATOM     22  C   UNL     1      -4.189  -1.079  24.767  0.00  0.00    +0.153 A 
ATOM     25  C   UNL     1      -4.441  -1.814  23.632  0.00  0.00    +0.051 A 
ATOM     26  C   UNL     1      -3.879  -3.093  23.859  0.00  0.00    +0.042 A 
ATOM     27  C   UNL     1      -3.324  -3.048  25.117  0.00  0.00    +0.196 A 
ENDBRANCH  18  22
ENDBRANCH   9  16
BRANCH  10  15
ATOM     15  C   UNL     1       0.517   2.186  25.034  0.00  0.00    +0.123 C 
BRANCH  15   5
ATOM      2  O   UNL     1      -0.034  -0.269  23.639  0.00  0.00    -0.275 OA
ATOM      5  N   UNL     1       1.330   1.570  24.031  0.00  0.00    -0.314 N 
ATOM     19  C   UNL     1       0.986   0.374  23.402  0.00  0.00    +0.218 C 
ATOM     31  H   UNL     1       2.201   2.029  23.780  0.00  0.00    +0.149 HD
BRANCH  19  21
ATOM     21  C   UNL     1       2.021  -0.047  22.377  0.00  0.00    +0.138 C 
BRANCH  21  24
ATOM      1  S   UNL     1       3.989  -1.445  23.759  0.00  0.00    -0.101 S 
ATOM     24  C   UNL     1       3.426  -0.062  22.920  0.00  0.00    -0.001 A 
ATOM     28  C   UNL     1       4.386   0.922  22.843  0.00  0.00    +0.011 A 
ATOM     29  C   UNL     1       5.601   0.537  23.480  0.00  0.00    +0.008 A 
ATOM     30  C   UNL     1       5.523  -0.728  24.021  0.00  0.00    +0.045 A 
ENDBRANCH  21  24
ENDBRANCH  19  21
ENDBRANCH  15   5
ENDBRANCH  10  15
TORSDOF 6
ENDMDL
MODEL 3
REMARK VINA RESULT:      -0.3      2.331      7.001
REMARK  Name = 28959376
REMARK  7 active torsions:
REMARK  status: ('A' for Active; 'I' for Inactive)
REMARK    1  A    between atoms: N_5  and  C_15
REMARK    2  A    between atoms: C_9  and  C_16
REMARK    3  A    between atoms: C_10  and  C_15
REMARK    4  A    between atoms: C_18  and  C_22
REMARK    5  A    between atoms: C_19  and  C_21
REMARK    6  A    between atoms: C_20  and  C_23
REMARK    7  A    between atoms: C_21  and  C_24
REMARK                            x       y       z     vdW  Elec       q    Type
REMARK                         _______ _______ _______ _____ _____    ______ ____
ROOT
ATOM      4  N   UNL     1      -2.854   4.204  24.489  0.00  0.00    -0.297 NA
ATOM      8  C   UNL     1      -0.315   4.106  25.063  0.00  0.00    +0.002 C 
ATOM      9  C   UNL     1      -0.624   3.239  23.811  0.00  0.00    +0.055 C 
ATOM     10  C   UNL     1      -2.670   3.888  25.930  0.00  0.00    +0.074 C 
ATOM     11  C   UNL     1      -1.182   3.621  26.244  0.00  0.00    +0.024 C 
ATOM     12  C   UNL     1      -0.765   5.545  24.730  0.00  0.00    +0.019 C 
ATOM     13  C   UNL     1      -2.171   3.185  23.655  0.00  0.00    +0.094 C 
ATOM     14  C   UNL     1      -2.219   5.518  24.228  0.00  0.00    +0.085 C 
ENDROOT
BRANCH   9  16
ATOM      6  N   UNL     1      -0.819   0.802  23.761  0.00  0.00    -0.237 NA
ATOM      7  N   UNL     1       1.104  -0.636  23.547  0.00  0.00    -0.229 NA
ATOM     16  C   UNL     1       0.015   1.861  23.715  0.00  0.00    +0.050 A 
ATOM     17  C   UNL     1       1.385   1.754  23.587  0.00  0.00    +0.055 A 
ATOM     18  C   UNL     1       1.879   0.468  23.507  0.00  0.00    +0.110 A 
ATOM     20  C   UNL     1      -0.216  -0.399  23.673  0.00  0.00    +0.127 A 
ATOM     23  C   UNL     1      -1.105  -1.596  23.720  0.00  0.00    +0.088 C 
BRANCH  18  22
ATOM      3  O   UNL     1       3.696  -1.022  23.774  0.00  0.00    -0.461 OA
ATOM     22  C   UNL     1       3.288   0.211  23.374  0.00  0.00    +0.153 A 
ATOM     25  C   UNL     1       4.355   0.950  22.920  0.00  0.00    +0.051 A 
ATOM     26  C   UNL     1       5.492   0.117  23.049  0.00  0.00    +0.042 A 
ATOM     27  C   UNL     1       5.039  -1.071  23.573  0.00  0.00    +0.196 A 
ENDBRANCH  18  22
ENDBRANCH   9  16
BRANCH  10  15
ATOM     15  C   UNL     1      -3.565   2.736  26.394  0.00  0.00    +0.123 C 
BRANCH  15   5
ATOM      2  O   UNL     1      -6.023   1.614  25.404  0.00  0.00    -0.275 OA
ATOM      5  N   UNL     1      -3.704   1.751  25.365  0.00  0.00    -0.314 N 
ATOM     19  C   UNL     1      -4.940   1.261  24.944  0.00  0.00    +0.218 C 
ATOM     31  H   UNL     1      -2.857   1.392  24.936  0.00  0.00    +0.149 HD
BRANCH  19  21
ATOM     21  C   UNL     1      -4.796   0.233  23.838  0.00  0.00    +0.138 C 
BRANCH  21  24
ATOM      1  S   UNL     1      -3.556  -1.204  25.872  0.00  0.00    -0.101 S 
ATOM     24  C   UNL     1      -4.279  -1.096  24.323  0.00  0.00    -0.001 A 
ATOM     28  C   UNL     1      -4.296  -2.311  23.675  0.00  0.00    +0.011 A 
ATOM     29  C   UNL     1      -3.710  -3.345  24.460  0.00  0.00    +0.008 A 
ATOM     30  C   UNL     1      -3.265  -2.881  25.679  0.00  0.00    +0.045 A 
ENDBRANCH  21  24
ENDBRANCH  19  21
ENDBRANCH  15   5
ENDBRANCH  10  15
TORSDOF 6
ENDMDL
MODEL 4
REMARK VINA RESULT:      -0.0      2.263      5.780
REMARK  Name = 28959376
REMARK  7 active torsions:
REMARK  status: ('A' for Active; 'I' for Inactive)
REMARK    1  A    between atoms: N_5  and  C_15
REMARK    2  A    between atoms: C_9  and  C_16
REMARK    3  A    between atoms: C_10  and  C_15
REMARK    4  A    between atoms: C_18  and  C_22
REMARK    5  A    between atoms: C_19  and  C_21
REMARK    6  A    between atoms: C_20  and  C_23
REMARK    7  A    between atoms: C_21  and  C_24
REMARK                            x       y       z     vdW  Elec       q    Type
REMARK                         _______ _______ _______ _____ _____    ______ ____
ROOT
ATOM      4  N   UNL     1      -4.020  -1.836  25.778  0.00  0.00    -0.297 NA
ATOM      8  C   UNL     1      -2.728  -1.584  23.531  0.00  0.00    +0.002 C 
ATOM      9  C   UNL     1      -1.749  -1.496  24.734  0.00  0.00    +0.055 C 
ATOM     10  C   UNL     1      -4.681  -0.815  24.923  0.00  0.00    +0.074 C 
ATOM     11  C   UNL     1      -3.818  -0.502  23.682  0.00  0.00    +0.024 C 
ATOM     12  C   UNL     1      -3.431  -2.955  23.629  0.00  0.00    +0.019 C 
ATOM     13  C   UNL     1      -2.609  -1.451  26.029  0.00  0.00    +0.094 C 
ATOM     14  C   UNL     1      -4.025  -3.120  25.038  0.00  0.00    +0.085 C 
ENDROOT
BRANCH   9  16
ATOM      6  N   UNL     1      -0.823   0.599  25.594  0.00  0.00    -0.237 NA
ATOM      7  N   UNL     1       1.209   1.557  24.723  0.00  0.00    -0.229 NA
ATOM     16  C   UNL     1      -0.679  -0.413  24.714  0.00  0.00    +0.050 A 
ATOM     17  C   UNL     1       0.368  -0.509  23.819  0.00  0.00    +0.055 A 
ATOM     18  C   UNL     1       1.292   0.515  23.869  0.00  0.00    +0.110 A 
ATOM     20  C   UNL     1       0.143   1.536  25.545  0.00  0.00    +0.127 A 
ATOM     23  C   UNL     1       0.019   2.672  26.503  0.00  0.00    +0.088 C 
BRANCH  18  22
ATOM      3  O   UNL     1       3.531   1.168  23.485  0.00  0.00    -0.461 OA
ATOM     22  C   UNL     1       2.432   0.542  22.992  0.00  0.00    +0.153 A 
ATOM     25  C   UNL     1       2.675   0.064  21.725  0.00  0.00    +0.051 A 
ATOM     26  C   UNL     1       4.010   0.420  21.421  0.00  0.00    +0.042 A 
ATOM     27  C   UNL     1       4.488   1.090  22.523  0.00  0.00    +0.196 A 
ENDBRANCH  18  22
ENDBRANCH   9  16
BRANCH  10  15
ATOM     15  C   UNL     1      -5.042   0.453  25.701  0.00  0.00    +0.123 C 
BRANCH  15   5
ATOM      2  O   UNL     1      -5.502   3.184  26.480  0.00  0.00    -0.275 OA
ATOM      5  N   UNL     1      -4.736   1.624  24.938  0.00  0.00    -0.314 N 
ATOM     19  C   UNL     1      -4.993   2.917  25.394  0.00  0.00    +0.218 C 
ATOM     31  H   UNL     1      -4.323   1.496  24.019  0.00  0.00    +0.149 HD
BRANCH  19  21
ATOM     21  C   UNL     1      -4.565   3.969  24.389  0.00  0.00    +0.138 C 
BRANCH  21  24
ATOM      1  S   UNL     1      -2.044   3.369  23.378  0.00  0.00    -0.101 S 
ATOM     24  C   UNL     1      -3.085   4.249  24.414  0.00  0.00    -0.001 A 
ATOM     28  C   UNL     1      -2.397   5.158  25.187  0.00  0.00    +0.011 A 
ATOM     29  C   UNL     1      -0.997   5.132  24.926  0.00  0.00    +0.008 A 
ATOM     30  C   UNL     1      -0.667   4.204  23.963  0.00  0.00    +0.045 A 
ENDBRANCH  21  24
ENDBRANCH  19  21
ENDBRANCH  15   5
ENDBRANCH  10  15
TORSDOF 6
ENDMDL
MODEL 5
REMARK VINA RESULT:       0.5      2.463      2.937
REMARK  Name = 28959376
REMARK  7 active torsions:
REMARK  status: ('A' for Active; 'I' for Inactive)
REMARK    1  A    between atoms: N_5  and  C_15
REMARK    2  A    between atoms: C_9  and  C_16
REMARK    3  A    between atoms: C_10  and  C_15
REMARK    4  A    between atoms: C_18  and  C_22
REMARK    5  A    between atoms: C_19  and  C_21
REMARK    6  A    between atoms: C_20  and  C_23
REMARK    7  A    between atoms: C_21  and  C_24
REMARK                            x       y       z     vdW  Elec       q    Type
REMARK                         _______ _______ _______ _____ _____    ______ ____
ROOT
ATOM      4  N   UNL     1      -1.924  -1.916  23.745  0.00  0.00    -0.297 NA
ATOM      8  C   UNL     1      -3.627  -1.505  25.673  0.00  0.00    +0.002 C 
ATOM      9  C   UNL     1      -3.884  -0.518  24.500  0.00  0.00    +0.055 C 
ATOM     10  C   UNL     1      -1.206  -1.796  25.041  0.00  0.00    +0.074 C 
ATOM     11  C   UNL     1      -2.171  -1.347  26.160  0.00  0.00    +0.024 C 
ATOM     12  C   UNL     1      -3.761  -2.929  25.094  0.00  0.00    +0.019 C 
ATOM     13  C   UNL     1      -2.715  -0.687  23.488  0.00  0.00    +0.094 C 
ATOM     14  C   UNL     1      -2.864  -3.058  23.851  0.00  0.00    +0.085 C 
ENDROOT
BRANCH   9  16
ATOM      6  N   UNL     1      -5.393   1.246  25.270  0.00  0.00    -0.237 NA
ATOM      7  N   UNL     1      -4.692   3.545  25.451  0.00  0.00    -0.229 NA
ATOM     16  C   UNL     1      -4.153   0.942  24.835  0.00  0.00    +0.050 A 
ATOM     17  C   UNL     1      -3.143   1.871  24.684  0.00  0.00    +0.055 A 
ATOM     18  C   UNL     1      -3.474   3.171  25.010  0.00  0.00    +0.110 A 
ATOM     20  C   UNL     1      -5.591   2.547  25.555  0.00  0.00    +0.127 A 
ATOM     23  C   UNL     1      -6.950   2.924  26.040  0.00  0.00    +0.088 C 
BRANCH  18  22
ATOM      3  O   UNL     1      -1.439   3.977  24.114  0.00  0.00    -0.461 OA
ATOM     22  C   UNL     1      -2.517   4.240  24.898  0.00  0.00    +0.153 A 
ATOM     25  C   UNL     1      -2.439   5.511  25.419  0.00  0.00    +0.051 A 
ATOM     26  C   UNL     1      -1.235   6.064  24.922  0.00  0.00    +0.042 A 
ATOM     27  C   UNL     1      -0.664   5.092  24.134  0.00  0.00    +0.196 A 
ENDBRANCH  18  22
ENDBRANCH   9  16
BRANCH  10  15
ATOM     15  C   UNL     1       0.020  -0.884  24.947  0.00  0.00    +0.123 C 
BRANCH  15   5
ATOM      2  O   UNL     1       0.984   1.762  24.359  0.00  0.00    -0.275 OA
ATOM      5  N   UNL     1      -0.152   0.288  25.749  0.00  0.00    -0.314 N 
ATOM     19  C   UNL     1       0.350   1.538  25.387  0.00  0.00    +0.218 C 
ATOM     31  H   UNL     1      -0.655   0.192  26.626  0.00  0.00    +0.149 HD
BRANCH  19  21
ATOM     21  C   UNL     1       0.017   2.602  26.415  0.00  0.00    +0.138 C 
BRANCH  21  24
ATOM      1  S   UNL     1       0.402   2.027  29.109  0.00  0.00    -0.101 S 
ATOM     24  C   UNL     1       0.953   2.606  27.594  0.00  0.00    -0.001 A 
ATOM     28  C   UNL     1       2.263   3.029  27.649  0.00  0.00    +0.011 A 
ATOM     29  C   UNL     1       2.822   2.876  28.950  0.00  0.00    +0.008 A 
ATOM     30  C   UNL     1       1.918   2.342  29.842  0.00  0.00    +0.045 A 
ENDBRANCH  21  24
ENDBRANCH  19  21
ENDBRANCH  15   5
ENDBRANCH  10  15
TORSDOF 6
ENDMDL
