MODEL 1
REMARK VINA RESULT:       3.3      0.000      0.000
REMARK  Name = 26742270
REMARK  7 active torsions:
REMARK  status: ('A' for Active; 'I' for Inactive)
REMARK    1  A    between atoms: O_1  and  C_10
REMARK    2  A    between atoms: O_4  and  C_25
REMARK    3  A    between atoms: O_4  and  C_30
REMARK    4  A    between atoms: N_6  and  C_9
REMARK    5  A    between atoms: N_7  and  C_18
REMARK    6  A    between atoms: C_16  and  C_17
REMARK    7  A    between atoms: C_26  and  C_29
REMARK                            x       y       z     vdW  Elec       q    Type
REMARK                         _______ _______ _______ _____ _____    ______ ____
ROOT
ATOM      2  O   UNL     1      -5.804   0.938  24.808  0.00  0.00    -0.252 OA
ATOM      5  N   UNL     1      -4.939   2.684  26.052  0.00  0.00    -0.284 N 
ATOM      7  N   UNL     1      -3.646   0.746  25.649  0.00  0.00    -0.269 N 
ATOM      9  C   UNL     1      -2.914   4.168  25.852  0.00  0.00    +0.119 C 
ATOM     10  C   UNL     1      -3.565   4.892  24.659  0.00  0.00    +0.136 C 
ATOM     11  C   UNL     1      -4.949   5.495  24.920  0.00  0.00    +0.035 C 
ATOM     12  C   UNL     1      -3.856   3.374  26.765  0.00  0.00    +0.134 C 
ATOM     13  C   UNL     1      -6.088   4.483  24.775  0.00  0.00    +0.022 C 
ATOM     14  C   UNL     1      -6.171   3.460  25.901  0.00  0.00    +0.109 C 
ATOM     15  C   UNL     1      -4.860   1.405  25.452  0.00  0.00    +0.307 C 
ATOM     33  H   UNL     1      -2.920   1.222  26.173  0.00  0.00    +0.156 HD
ENDROOT
BRANCH   7  18
ATOM     18  C   UNL     1      -3.264  -0.535  25.179  0.00  0.00    +0.036 A 
ATOM     21  C   UNL     1      -1.987  -1.026  25.449  0.00  0.00    +0.042 A 
ATOM     22  C   UNL     1      -4.165  -1.306  24.444  0.00  0.00    +0.023 A 
ATOM     26  C   UNL     1      -1.610  -2.286  24.987  0.00  0.00    +0.054 A 
ATOM     27  C   UNL     1      -3.789  -2.567  23.981  0.00  0.00    +0.003 A 
ATOM     28  C   UNL     1      -2.512  -3.057  24.252  0.00  0.00    +0.019 A 
BRANCH  26  29
ATOM      8  N   UNL     1       0.761  -3.197  25.490  0.00  0.00    -0.191 NA
ATOM     29  C   UNL     1      -0.301  -2.789  25.265  0.00  0.00    +0.099 C 
ENDBRANCH  26  29
ENDBRANCH   7  18
BRANCH   9   6
ATOM      3  O   UNL     1      -2.813   2.834  23.313  0.00  0.00    -0.270 OA
ATOM      6  N   UNL     1      -1.844   3.322  25.361  0.00  0.00    -0.305 N 
ATOM     16  C   UNL     1      -1.892   2.722  24.117  0.00  0.00    +0.244 C 
ATOM     31  H   UNL     1      -0.998   3.273  25.921  0.00  0.00    +0.149 HD
BRANCH  16  17
ATOM     17  C   UNL     1      -0.728   1.863  23.773  0.00  0.00    +0.037 A 
ATOM     19  C   UNL     1       0.543   2.191  24.243  0.00  0.00    +0.016 A 
ATOM     20  C   UNL     1      -0.908   0.730  22.980  0.00  0.00    +0.016 A 
ATOM     23  C   UNL     1       1.636   1.386  23.920  0.00  0.00    +0.046 A 
ATOM     24  C   UNL     1       0.184  -0.076  22.657  0.00  0.00    +0.046 A 
ATOM     25  C   UNL     1       1.455   0.253  23.127  0.00  0.00    +0.120 A 
BRANCH  25   4
ATOM      4  O   UNL     1       2.522  -0.533  22.812  0.00  0.00    -0.495 OA
ATOM     30  C   UNL     1       3.792   0.106  22.709  0.00  0.00    +0.277 C 
ENDBRANCH  25   4
ENDBRANCH  16  17
ENDBRANCH   9   6
BRANCH  10   1
ATOM      1  O   UNL     1      -2.702   5.973  24.279  0.00  0.00    -0.390 OA
ATOM     32  H   UNL     1      -1.787   5.652  24.330  0.00  0.00    +0.210 HD
ENDBRANCH  10   1
TORSDOF 6
ENDMDL
MODEL 2
REMARK VINA RESULT:       3.5      2.187      4.667
REMARK  Name = 26742270
REMARK  7 active torsions:
REMARK  status: ('A' for Active; 'I' for Inactive)
REMARK    1  A    between atoms: O_1  and  C_10
REMARK    2  A    between atoms: O_4  and  C_25
REMARK    3  A    between atoms: O_4  and  C_30
REMARK    4  A    between atoms: N_6  and  C_9
REMARK    5  A    between atoms: N_7  and  C_18
REMARK    6  A    between atoms: C_16  and  C_17
REMARK    7  A    between atoms: C_26  and  C_29
REMARK                            x       y       z     vdW  Elec       q    Type
REMARK                         _______ _______ _______ _____ _____    ______ ____
ROOT
ATOM      2  O   UNL     1      -0.288   3.617  25.438  0.00  0.00    -0.252 OA
ATOM      5  N   UNL     1      -2.253   4.309  24.435  0.00  0.00    -0.284 N 
ATOM      7  N   UNL     1      -1.283   2.232  23.860  0.00  0.00    -0.269 N 
ATOM      9  C   UNL     1      -4.579   3.359  24.254  0.00  0.00    +0.119 C 
ATOM     10  C   UNL     1      -4.824   3.682  25.740  0.00  0.00    +0.136 C 
ATOM     11  C   UNL     1      -4.610   5.143  26.148  0.00  0.00    +0.035 C 
ATOM     12  C   UNL     1      -3.426   4.108  23.574  0.00  0.00    +0.134 C 
ATOM     13  C   UNL     1      -3.147   5.483  26.439  0.00  0.00    +0.022 C 
ATOM     14  C   UNL     1      -2.258   5.556  25.203  0.00  0.00    +0.109 C 
ATOM     15  C   UNL     1      -1.196   3.389  24.635  0.00  0.00    +0.307 C 
ATOM     33  H   UNL     1      -2.081   2.123  23.245  0.00  0.00    +0.156 HD
ENDROOT
BRANCH   7  18
ATOM     18  C   UNL     1      -0.387   1.133  23.832  0.00  0.00    +0.036 A 
ATOM     21  C   UNL     1       0.904   1.298  23.333  0.00  0.00    +0.042 A 
ATOM     22  C   UNL     1      -0.799  -0.113  24.305  0.00  0.00    +0.023 A 
ATOM     26  C   UNL     1       1.785   0.217  23.306  0.00  0.00    +0.054 A 
ATOM     27  C   UNL     1       0.083  -1.194  24.279  0.00  0.00    +0.003 A 
ATOM     28  C   UNL     1       1.374  -1.029  23.779  0.00  0.00    +0.019 A 
BRANCH  26  29
ATOM      8  N   UNL     1       4.184   0.524  22.379  0.00  0.00    -0.191 NA
ATOM     29  C   UNL     1       3.109   0.386  22.794  0.00  0.00    +0.099 C 
ENDBRANCH  26  29
ENDBRANCH   7  18
BRANCH   9   6
ATOM      3  O   UNL     1      -4.141   1.457  26.358  0.00  0.00    -0.270 OA
ATOM      6  N   UNL     1      -4.415   1.927  24.105  0.00  0.00    -0.305 N 
ATOM     16  C   UNL     1      -4.208   1.093  25.187  0.00  0.00    +0.244 C 
ATOM     31  H   UNL     1      -4.572   1.536  23.181  0.00  0.00    +0.149 HD
BRANCH  16  17
ATOM     17  C   UNL     1      -4.033  -0.348  24.864  0.00  0.00    +0.037 A 
ATOM     19  C   UNL     1      -4.404  -0.831  23.610  0.00  0.00    +0.016 A 
ATOM     20  C   UNL     1      -3.498  -1.216  25.817  0.00  0.00    +0.016 A 
ATOM     23  C   UNL     1      -4.240  -2.183  23.307  0.00  0.00    +0.046 A 
ATOM     24  C   UNL     1      -3.334  -2.568  25.513  0.00  0.00    +0.046 A 
ATOM     25  C   UNL     1      -3.706  -3.051  24.258  0.00  0.00    +0.120 A 
BRANCH  25   4
ATOM      4  O   UNL     1      -3.546  -4.370  23.963  0.00  0.00    -0.495 OA
ATOM     30  C   UNL     1      -2.657  -4.694  22.896  0.00  0.00    +0.277 C 
ENDBRANCH  25   4
ENDBRANCH  16  17
ENDBRANCH   9   6
BRANCH  10   1
ATOM      1  O   UNL     1      -6.190   3.359  26.037  0.00  0.00    -0.390 OA
ATOM     32  H   UNL     1      -6.731   4.135  25.817  0.00  0.00    +0.210 HD
ENDBRANCH  10   1
TORSDOF 6
ENDMDL
MODEL 3
REMARK VINA RESULT:       4.6      2.173      7.164
REMARK  Name = 26742270
REMARK  7 active torsions:
REMARK  status: ('A' for Active; 'I' for Inactive)
REMARK    1  A    between atoms: O_1  and  C_10
REMARK    2  A    between atoms: O_4  and  C_25
REMARK    3  A    between atoms: O_4  and  C_30
REMARK    4  A    between atoms: N_6  and  C_9
REMARK    5  A    between atoms: N_7  and  C_18
REMARK    6  A    between atoms: C_16  and  C_17
REMARK    7  A    between atoms: C_26  and  C_29
REMARK                            x       y       z     vdW  Elec       q    Type
REMARK                         _______ _______ _______ _____ _____    ______ ____
ROOT
ATOM      2  O   UNL     1       0.359   0.509  23.576  0.00  0.00    -0.252 OA
ATOM      5  N   UNL     1      -0.511  -1.093  24.998  0.00  0.00    -0.284 N 
ATOM      7  N   UNL     1      -0.981   1.197  25.344  0.00  0.00    -0.269 N 
ATOM      9  C   UNL     1      -2.834  -1.756  25.709  0.00  0.00    +0.119 C 
ATOM     10  C   UNL     1      -3.084  -2.367  24.317  0.00  0.00    +0.136 C 
ATOM     11  C   UNL     1      -2.076  -3.428  23.866  0.00  0.00    +0.035 C 
ATOM     12  C   UNL     1      -1.369  -1.535  26.105  0.00  0.00    +0.134 C 
ATOM     13  C   UNL     1      -0.808  -2.836  23.247  0.00  0.00    +0.022 C 
ATOM     14  C   UNL     1       0.132  -2.173  24.247  0.00  0.00    +0.109 C 
ATOM     15  C   UNL     1      -0.326   0.242  24.566  0.00  0.00    +0.307 C 
ATOM     33  H   UNL     1      -1.542   0.879  26.126  0.00  0.00    +0.156 HD
ENDROOT
BRANCH   7  18
ATOM     18  C   UNL     1      -0.991   2.604  25.171  0.00  0.00    +0.036 A 
ATOM     21  C   UNL     1      -0.292   3.181  24.111  0.00  0.00    +0.042 A 
ATOM     22  C   UNL     1      -1.699   3.412  26.061  0.00  0.00    +0.023 A 
ATOM     26  C   UNL     1      -0.301   4.565  23.939  0.00  0.00    +0.054 A 
ATOM     27  C   UNL     1      -1.709   4.796  25.890  0.00  0.00    +0.003 A 
ATOM     28  C   UNL     1      -1.009   5.373  24.829  0.00  0.00    +0.019 A 
BRANCH  26  29
ATOM      8  N   UNL     1       0.995   5.637  21.971  0.00  0.00    -0.191 NA
ATOM     29  C   UNL     1       0.415   5.157  22.853  0.00  0.00    +0.099 C 
ENDBRANCH  26  29
ENDBRANCH   7  18
BRANCH   9   6
ATOM      3  O   UNL     1      -3.555   0.013  23.567  0.00  0.00    -0.270 OA
ATOM      6  N   UNL     1      -3.585  -0.522  25.822  0.00  0.00    -0.305 N 
ATOM     16  C   UNL     1      -3.882   0.264  24.724  0.00  0.00    +0.244 C 
ATOM     31  H   UNL     1      -3.989  -0.305  26.729  0.00  0.00    +0.149 HD
BRANCH  16  17
ATOM     17  C   UNL     1      -4.637   1.512  25.011  0.00  0.00    +0.037 A 
ATOM     19  C   UNL     1      -4.295   2.698  24.363  0.00  0.00    +0.016 A 
ATOM     20  C   UNL     1      -5.687   1.495  25.930  0.00  0.00    +0.016 A 
ATOM     23  C   UNL     1      -5.003   3.869  24.632  0.00  0.00    +0.046 A 
ATOM     24  C   UNL     1      -6.395   2.667  26.200  0.00  0.00    +0.046 A 
ATOM     25  C   UNL     1      -6.052   3.853  25.551  0.00  0.00    +0.120 A 
BRANCH  25   4
ATOM      4  O   UNL     1      -6.743   4.997  25.814  0.00  0.00    -0.495 OA
ATOM     30  C   UNL     1      -6.545   6.095  24.926  0.00  0.00    +0.277 C 
ENDBRANCH  25   4
ENDBRANCH  16  17
ENDBRANCH   9   6
BRANCH  10   1
ATOM      1  O   UNL     1      -4.373  -2.996  24.341  0.00  0.00    -0.390 OA
ATOM     32  H   UNL     1      -4.907  -2.600  23.632  0.00  0.00    +0.210 HD
ENDBRANCH  10   1
TORSDOF 6
ENDMDL
MODEL 4
REMARK VINA RESULT:       5.1      2.128      7.188
REMARK  Name = 26742270
REMARK  7 active torsions:
REMARK  status: ('A' for Active; 'I' for Inactive)
REMARK    1  A    between atoms: O_1  and  C_10
REMARK    2  A    between atoms: O_4  and  C_25
REMARK    3  A    between atoms: O_4  and  C_30
REMARK    4  A    between atoms: N_6  and  C_9
REMARK    5  A    between atoms: N_7  and  C_18
REMARK    6  A    between atoms: C_16  and  C_17
REMARK    7  A    between atoms: C_26  and  C_29
REMARK                            x       y       z     vdW  Elec       q    Type
REMARK                         _______ _______ _______ _____ _____    ______ ____
ROOT
ATOM      2  O   UNL     1       0.186  -0.177  23.488  0.00  0.00    -0.252 OA
ATOM      5  N   UNL     1      -0.846  -1.756  24.825  0.00  0.00    -0.284 N 
ATOM      7  N   UNL     1      -1.127   0.550  25.261  0.00  0.00    -0.269 N 
ATOM      9  C   UNL     1      -3.232  -2.245  25.466  0.00  0.00    +0.119 C 
ATOM     10  C   UNL     1      -3.504  -2.774  24.045  0.00  0.00    +0.136 C 
ATOM     11  C   UNL     1      -2.581  -3.899  23.565  0.00  0.00    +0.035 C 
ATOM     12  C   UNL     1      -1.762  -2.168  25.896  0.00  0.00    +0.134 C 
ATOM     13  C   UNL     1      -1.254  -3.392  22.995  0.00  0.00    +0.022 C 
ATOM     14  C   UNL     1      -0.283  -2.855  24.039  0.00  0.00    +0.109 C 
ATOM     15  C   UNL     1      -0.540  -0.425  24.454  0.00  0.00    +0.307 C 
ATOM     33  H   UNL     1      -1.730   0.249  26.019  0.00  0.00    +0.156 HD
ENDROOT
BRANCH   7  18
ATOM     18  C   UNL     1      -1.013   1.959  25.149  0.00  0.00    +0.036 A 
ATOM     21  C   UNL     1      -1.936   2.787  25.787  0.00  0.00    +0.042 A 
ATOM     22  C   UNL     1       0.022   2.517  24.398  0.00  0.00    +0.023 A 
ATOM     26  C   UNL     1      -1.824   4.173  25.677  0.00  0.00    +0.054 A 
ATOM     27  C   UNL     1       0.134   3.903  24.288  0.00  0.00    +0.003 A 
ATOM     28  C   UNL     1      -0.789   4.731  24.926  0.00  0.00    +0.019 A 
BRANCH  26  29
ATOM      8  N   UNL     1      -3.537   5.710  26.864  0.00  0.00    -0.191 NA
ATOM     29  C   UNL     1      -2.769   5.022  26.332  0.00  0.00    +0.099 C 
ENDBRANCH  26  29
ENDBRANCH   7  18
BRANCH   9   6
ATOM      3  O   UNL     1      -3.803  -0.357  23.382  0.00  0.00    -0.270 OA
ATOM      6  N   UNL     1      -3.878  -0.957  25.619  0.00  0.00    -0.305 N 
ATOM     16  C   UNL     1      -4.108  -0.116  24.547  0.00  0.00    +0.244 C 
ATOM     31  H   UNL     1      -4.261  -0.736  26.533  0.00  0.00    +0.149 HD
BRANCH  16  17
ATOM     17  C   UNL     1      -4.756   1.181  24.874  0.00  0.00    +0.037 A 
ATOM     19  C   UNL     1      -4.531   2.297  24.069  0.00  0.00    +0.016 A 
ATOM     20  C   UNL     1      -5.589   1.282  25.989  0.00  0.00    +0.016 A 
ATOM     23  C   UNL     1      -5.138   3.514  24.377  0.00  0.00    +0.046 A 
ATOM     24  C   UNL     1      -6.197   2.499  26.297  0.00  0.00    +0.046 A 
ATOM     25  C   UNL     1      -5.971   3.615  25.490  0.00  0.00    +0.120 A 
BRANCH  25   4
ATOM      4  O   UNL     1      -6.564   4.803  25.791  0.00  0.00    -0.495 OA
ATOM     30  C   UNL     1      -6.286   5.905  24.929  0.00  0.00    +0.277 C 
ENDBRANCH  25   4
ENDBRANCH  16  17
ENDBRANCH   9   6
BRANCH  10   1
ATOM      1  O   UNL     1      -4.842  -3.290  24.019  0.00  0.00    -0.390 OA
ATOM     32  H   UNL     1      -4.789  -4.238  23.813  0.00  0.00    +0.210 HD
ENDBRANCH  10   1
TORSDOF 6
ENDMDL
MODEL 5
REMARK VINA RESULT:       6.1      1.912      4.493
REMARK  Name = 26742270
REMARK  7 active torsions:
REMARK  status: ('A' for Active; 'I' for Inactive)
REMARK    1  A    between atoms: O_1  and  C_10
REMARK    2  A    between atoms: O_4  and  C_25
REMARK    3  A    between atoms: O_4  and  C_30
REMARK    4  A    between atoms: N_6  and  C_9
REMARK    5  A    between atoms: N_7  and  C_18
REMARK    6  A    between atoms: C_16  and  C_17
REMARK    7  A    between atoms: C_26  and  C_29
REMARK                            x       y       z     vdW  Elec       q    Type
REMARK                         _______ _______ _______ _____ _____    ______ ____
ROOT
ATOM      2  O   UNL     1      -0.263   3.787  25.501  0.00  0.00    -0.252 OA
ATOM      5  N   UNL     1      -2.255   4.414  24.507  0.00  0.00    -0.284 N 
ATOM      7  N   UNL     1      -1.200   2.388  23.900  0.00  0.00    -0.269 N 
ATOM      9  C   UNL     1      -4.539   3.372  24.308  0.00  0.00    +0.119 C 
ATOM     10  C   UNL     1      -4.799   3.661  25.799  0.00  0.00    +0.136 C 
ATOM     11  C   UNL     1      -4.645   5.122  26.230  0.00  0.00    +0.035 C 
ATOM     12  C   UNL     1      -3.418   4.179  23.641  0.00  0.00    +0.134 C 
ATOM     13  C   UNL     1      -3.197   5.517  26.528  0.00  0.00    +0.022 C 
ATOM     14  C   UNL     1      -2.312   5.647  25.295  0.00  0.00    +0.109 C 
ATOM     15  C   UNL     1      -1.161   3.535  24.693  0.00  0.00    +0.307 C 
ATOM     33  H   UNL     1      -1.992   2.256  23.282  0.00  0.00    +0.156 HD
ENDROOT
BRANCH   7  18
ATOM     18  C   UNL     1      -0.260   1.327  23.856  0.00  0.00    +0.036 A 
ATOM     21  C   UNL     1      -0.547   0.114  24.480  0.00  0.00    +0.042 A 
ATOM     22  C   UNL     1       0.953   1.498  23.188  0.00  0.00    +0.023 A 
ATOM     26  C   UNL     1       0.377  -0.930  24.437  0.00  0.00    +0.054 A 
ATOM     27  C   UNL     1       1.878   0.454  23.144  0.00  0.00    +0.003 A 
ATOM     28  C   UNL     1       1.590  -0.759  23.769  0.00  0.00    +0.019 A 
BRANCH  26  29
ATOM      8  N   UNL     1      -0.157  -3.183  25.595  0.00  0.00    -0.191 NA
ATOM     29  C   UNL     1       0.083  -2.174  25.077  0.00  0.00    +0.099 C 
ENDBRANCH  26  29
ENDBRANCH   7  18
BRANCH   9   6
ATOM      3  O   UNL     1      -5.010   1.318  26.255  0.00  0.00    -0.270 OA
ATOM      6  N   UNL     1      -4.317   1.950  24.136  0.00  0.00    -0.305 N 
ATOM     16  C   UNL     1      -4.577   1.038  25.141  0.00  0.00    +0.244 C 
ATOM     31  H   UNL     1      -4.068   1.629  23.206  0.00  0.00    +0.149 HD
BRANCH  16  17
ATOM     17  C   UNL     1      -4.271  -0.380  24.816  0.00  0.00    +0.037 A 
ATOM     19  C   UNL     1      -3.632  -1.189  25.755  0.00  0.00    +0.016 A 
ATOM     20  C   UNL     1      -4.624  -0.901  23.571  0.00  0.00    +0.016 A 
ATOM     23  C   UNL     1      -3.345  -2.520  25.450  0.00  0.00    +0.046 A 
ATOM     24  C   UNL     1      -4.337  -2.232  23.265  0.00  0.00    +0.046 A 
ATOM     25  C   UNL     1      -3.698  -3.041  24.205  0.00  0.00    +0.120 A 
BRANCH  25   4
ATOM      4  O   UNL     1      -3.417  -4.339  23.907  0.00  0.00    -0.495 OA
ATOM     30  C   UNL     1      -2.322  -4.582  23.026  0.00  0.00    +0.277 C 
ENDBRANCH  25   4
ENDBRANCH  16  17
ENDBRANCH   9   6
BRANCH  10   1
ATOM      1  O   UNL     1      -6.150   3.278  26.089  0.00  0.00    -0.390 OA
ATOM     32  H   UNL     1      -6.577   3.042  25.249  0.00  0.00    +0.210 HD
ENDBRANCH  10   1
TORSDOF 6
ENDMDL
MODEL 6
REMARK VINA RESULT:       6.8      1.993      6.443
REMARK  Name = 26742270
REMARK  7 active torsions:
REMARK  status: ('A' for Active; 'I' for Inactive)
REMARK    1  A    between atoms: O_1  and  C_10
REMARK    2  A    between atoms: O_4  and  C_25
REMARK    3  A    between atoms: O_4  and  C_30
REMARK    4  A    between atoms: N_6  and  C_9
REMARK    5  A    between atoms: N_7  and  C_18
REMARK    6  A    between atoms: C_16  and  C_17
REMARK    7  A    between atoms: C_26  and  C_29
REMARK                            x       y       z     vdW  Elec       q    Type
REMARK                         _______ _______ _______ _____ _____    ______ ____
ROOT
ATOM      2  O   UNL     1       1.019  -2.226  25.328  0.00  0.00    -0.252 OA
ATOM      5  N   UNL     1       1.775  -1.409  23.301  0.00  0.00    -0.284 N 
ATOM      7  N   UNL     1      -0.455  -1.031  23.987  0.00  0.00    -0.269 N 
ATOM      9  C   UNL     1       1.922   0.878  22.258  0.00  0.00    +0.119 C 
ATOM     10  C   UNL     1       3.070   1.241  23.219  0.00  0.00    +0.136 C 
ATOM     11  C   UNL     1       4.277   0.298  23.200  0.00  0.00    +0.035 C 
ATOM     12  C   UNL     1       1.633  -0.616  22.073  0.00  0.00    +0.134 C 
ATOM     13  C   UNL     1       4.091  -0.941  24.078  0.00  0.00    +0.022 C 
ATOM     14  C   UNL     1       3.110  -1.967  23.524  0.00  0.00    +0.109 C 
ATOM     15  C   UNL     1       0.781  -1.602  24.290  0.00  0.00    +0.307 C 
ATOM     33  H   UNL     1      -0.547  -0.515  23.119  0.00  0.00    +0.156 HD
ENDROOT
BRANCH   7  18
ATOM     18  C   UNL     1      -1.639  -1.050  24.768  0.00  0.00    +0.036 A 
ATOM     21  C   UNL     1      -2.715  -0.234  24.423  0.00  0.00    +0.042 A 
ATOM     22  C   UNL     1      -1.726  -1.886  25.881  0.00  0.00    +0.023 A 
ATOM     26  C   UNL     1      -3.880  -0.253  25.190  0.00  0.00    +0.054 A 
ATOM     27  C   UNL     1      -2.891  -1.906  26.649  0.00  0.00    +0.003 A 
ATOM     28  C   UNL     1      -3.967  -1.089  26.304  0.00  0.00    +0.019 A 
BRANCH  26  29
ATOM      8  N   UNL     1      -5.880   1.261  24.550  0.00  0.00    -0.191 NA
ATOM     29  C   UNL     1      -4.984   0.583  24.837  0.00  0.00    +0.099 C 
ENDBRANCH  26  29
ENDBRANCH   7  18
BRANCH   9   6
ATOM      3  O   UNL     1       1.235   1.676  24.928  0.00  0.00    -0.270 OA
ATOM      6  N   UNL     1       0.725   1.584  22.669  0.00  0.00    -0.305 N 
ATOM     16  C   UNL     1       0.486   1.924  23.987  0.00  0.00    +0.244 C 
ATOM     31  H   UNL     1       0.111   1.923  21.934  0.00  0.00    +0.149 HD
BRANCH  16  17
ATOM     17  C   UNL     1      -0.800   2.621  24.248  0.00  0.00    +0.037 A 
ATOM     19  C   UNL     1      -0.965   3.369  25.414  0.00  0.00    +0.016 A 
ATOM     20  C   UNL     1      -1.844   2.527  23.326  0.00  0.00    +0.016 A 
ATOM     23  C   UNL     1      -2.172   4.023  25.659  0.00  0.00    +0.046 A 
ATOM     24  C   UNL     1      -3.051   3.182  23.571  0.00  0.00    +0.046 A 
ATOM     25  C   UNL     1      -3.215   3.929  24.738  0.00  0.00    +0.120 A 
BRANCH  25   4
ATOM      4  O   UNL     1      -4.393   4.568  24.977  0.00  0.00    -0.495 OA
ATOM     30  C   UNL     1      -5.338   3.898  25.809  0.00  0.00    +0.277 C 
ENDBRANCH  25   4
ENDBRANCH  16  17
ENDBRANCH   9   6
BRANCH  10   1
ATOM      1  O   UNL     1       3.550   2.543  22.856  0.00  0.00    -0.390 OA
ATOM     32  H   UNL     1       4.430   2.654  23.252  0.00  0.00    +0.210 HD
ENDBRANCH  10   1
TORSDOF 6
ENDMDL
