MODEL 1
REMARK VINA RESULT:       2.4      0.000      0.000
REMARK  Name = 7675081
REMARK  5 active torsions:
REMARK  status: ('A' for Active; 'I' for Inactive)
REMARK    1  A    between atoms: S_1  and  N_9
REMARK    2  A    between atoms: S_1  and  C_22
REMARK    3  A    between atoms: N_11  and  C_18
REMARK    4  A    between atoms: C_13  and  C_17
REMARK    5  A    between atoms: C_21  and  C_25
REMARK                            x       y       z     vdW  Elec       q    Type
REMARK                         _______ _______ _______ _____ _____    ______ ____
ROOT
ATOM      7  O   UNL     1       1.566  -0.282  20.887  0.00  0.00    -0.270 OA
ATOM      9  N   UNL     1      -1.854  -0.610  24.611  0.00  0.00    -0.162 NA
ATOM     10  N   UNL     1       0.505  -0.613  22.944  0.00  0.00    -0.294 N 
ATOM     13  C   UNL     1      -1.968  -0.334  23.153  0.00  0.00    +0.183 C 
ATOM     14  C   UNL     1      -0.800  -0.887  22.341  0.00  0.00    +0.138 C 
ATOM     15  C   UNL     1      -0.640  -1.368  25.014  0.00  0.00    +0.129 C 
ATOM     16  C   UNL     1       0.587  -0.704  24.406  0.00  0.00    +0.125 C 
ATOM     21  C   UNL     1       1.603  -0.364  22.113  0.00  0.00    +0.247 C 
ENDROOT
BRANCH  21  25
ATOM      3  F   UNL     1       5.454  -2.157  24.454  0.00  0.00    -0.205 F 
ATOM     25  C   UNL     1       2.919  -0.184  22.747  0.00  0.00    +0.040 A 
ATOM     28  C   UNL     1       3.575  -1.278  23.311  0.00  0.00    +0.051 A 
ATOM     29  C   UNL     1       3.508   1.079  22.784  0.00  0.00    +0.013 A 
ATOM     33  C   UNL     1       4.823  -1.107  23.913  0.00  0.00    +0.124 A 
ATOM     34  C   UNL     1       4.756   1.249  23.385  0.00  0.00    +0.004 A 
ATOM     35  C   UNL     1       5.412   0.156  23.950  0.00  0.00    +0.038 A 
ENDBRANCH  21  25
BRANCH  13  17
ATOM      4  O   UNL     1      -2.853   1.726  22.341  0.00  0.00    -0.274 OA
ATOM     11  N   UNL     1      -1.078   1.774  23.847  0.00  0.00    -0.303 N 
ATOM     17  C   UNL     1      -2.036   1.157  23.062  0.00  0.00    +0.234 C 
ATOM     36  H   UNL     1      -0.473   1.203  24.430  0.00  0.00    +0.149 HD
BRANCH  11  18
ATOM      8  O   UNL     1       0.438   2.805  25.874  0.00  0.00    -0.274 OA
ATOM     12  N   UNL     1      -0.699   4.785  25.798  0.00  0.00    -0.314 N 
ATOM     18  C   UNL     1      -0.918   3.204  23.918  0.00  0.00    +0.159 C 
ATOM     19  C   UNL     1      -2.221   3.914  23.577  0.00  0.00    +0.033 C 
ATOM     20  C   UNL     1      -2.072   5.404  23.830  0.00  0.00    +0.021 C 
ATOM     23  C   UNL     1      -0.358   3.546  25.294  0.00  0.00    +0.233 C 
ATOM     24  C   UNL     1      -1.768   5.630  25.299  0.00  0.00    +0.104 C 
ATOM     37  H   UNL     1      -0.285   5.048  26.688  0.00  0.00    +0.149 HD
ENDBRANCH  11  18
ENDBRANCH  13  17
BRANCH   9   1
ATOM      1  S   UNL     1      -3.298  -1.006  25.436  0.00  0.00    +0.062 S 
ATOM      5  O   UNL     1      -2.982  -1.335  26.811  0.00  0.00    -0.153 OA
ATOM      6  O   UNL     1      -4.078  -1.908  24.615  0.00  0.00    -0.153 OA
BRANCH   1  22
ATOM      2  F   UNL     1      -5.979   4.243  25.416  0.00  0.00    -0.205 F 
ATOM     22  C   UNL     1      -4.101   0.565  25.430  0.00  0.00    +0.106 A 
ATOM     26  C   UNL     1      -3.445   1.685  25.941  0.00  0.00    +0.031 A 
ATOM     27  C   UNL     1      -5.392   0.688  24.915  0.00  0.00    +0.031 A 
ATOM     30  C   UNL     1      -4.080   2.928  25.936  0.00  0.00    +0.040 A 
ATOM     31  C   UNL     1      -6.026   1.929  24.911  0.00  0.00    +0.040 A 
ATOM     32  C   UNL     1      -5.371   3.050  25.421  0.00  0.00    +0.124 A 
ENDBRANCH   1  22
ENDBRANCH   9   1
TORSDOF 5
ENDMDL
MODEL 2
REMARK VINA RESULT:       4.5      1.389      1.800
REMARK  Name = 7675081
REMARK  5 active torsions:
REMARK  status: ('A' for Active; 'I' for Inactive)
REMARK    1  A    between atoms: S_1  and  N_9
REMARK    2  A    between atoms: S_1  and  C_22
REMARK    3  A    between atoms: N_11  and  C_18
REMARK    4  A    between atoms: C_13  and  C_17
REMARK    5  A    between atoms: C_21  and  C_25
REMARK                            x       y       z     vdW  Elec       q    Type
REMARK                         _______ _______ _______ _____ _____    ______ ____
ROOT
ATOM      7  O   UNL     1       1.623   0.213  21.504  0.00  0.00    -0.270 OA
ATOM      9  N   UNL     1      -1.562  -1.208  25.180  0.00  0.00    -0.162 NA
ATOM     10  N   UNL     1       0.673  -0.761  23.406  0.00  0.00    -0.294 N 
ATOM     13  C   UNL     1      -1.747  -0.427  23.926  0.00  0.00    +0.183 C 
ATOM     14  C   UNL     1      -0.687  -0.726  22.868  0.00  0.00    +0.138 C 
ATOM     15  C   UNL     1      -0.396  -2.130  25.180  0.00  0.00    +0.129 C 
ATOM     16  C   UNL     1       0.842  -1.368  24.730  0.00  0.00    +0.125 C 
ATOM     21  C   UNL     1       1.732  -0.300  22.616  0.00  0.00    +0.247 C 
ENDROOT
BRANCH  21  25
ATOM      3  F   UNL     1       6.027   1.624  23.790  0.00  0.00    -0.205 F 
ATOM     25  C   UNL     1       3.097  -0.435  23.148  0.00  0.00    +0.040 A 
ATOM     28  C   UNL     1       3.932   0.681  23.218  0.00  0.00    +0.051 A 
ATOM     29  C   UNL     1       3.557  -1.678  23.581  0.00  0.00    +0.013 A 
ATOM     33  C   UNL     1       5.226   0.553  23.722  0.00  0.00    +0.124 A 
ATOM     34  C   UNL     1       4.852  -1.806  24.085  0.00  0.00    +0.004 A 
ATOM     35  C   UNL     1       5.686  -0.691  24.155  0.00  0.00    +0.038 A 
ENDBRANCH  21  25
BRANCH  13  17
ATOM      4  O   UNL     1      -1.362   1.314  25.508  0.00  0.00    -0.274 OA
ATOM     11  N   UNL     1      -2.063   1.875  23.359  0.00  0.00    -0.303 N 
ATOM     17  C   UNL     1      -1.689   1.001  24.366  0.00  0.00    +0.234 C 
ATOM     36  H   UNL     1      -2.283   1.504  22.439  0.00  0.00    +0.149 HD
BRANCH  11  18
ATOM      8  O   UNL     1       0.292   3.214  23.723  0.00  0.00    -0.274 OA
ATOM     12  N   UNL     1      -0.766   4.887  24.862  0.00  0.00    -0.314 N 
ATOM     18  C   UNL     1      -2.113   3.303  23.535  0.00  0.00    +0.159 C 
ATOM     19  C   UNL     1      -3.296   3.703  24.406  0.00  0.00    +0.033 C 
ATOM     20  C   UNL     1      -3.222   5.188  24.717  0.00  0.00    +0.021 C 
ATOM     23  C   UNL     1      -0.758   3.758  24.067  0.00  0.00    +0.233 C 
ATOM     24  C   UNL     1      -1.942   5.472  25.480  0.00  0.00    +0.104 C 
ATOM     37  H   UNL     1       0.136   5.234  25.175  0.00  0.00    +0.149 HD
ENDBRANCH  11  18
ENDBRANCH  13  17
BRANCH   9   1
ATOM      1  S   UNL     1      -2.979  -1.784  25.945  0.00  0.00    +0.062 S 
ATOM      5  O   UNL     1      -2.797  -1.724  27.380  0.00  0.00    -0.153 OA
ATOM      6  O   UNL     1      -3.399  -3.009  25.297  0.00  0.00    -0.153 OA
BRANCH   1  22
ATOM      2  F   UNL     1      -6.773   2.464  24.430  0.00  0.00    -0.205 F 
ATOM     22  C   UNL     1      -4.115  -0.512  25.492  0.00  0.00    +0.106 A 
ATOM     26  C   UNL     1      -4.669  -0.496  24.212  0.00  0.00    +0.031 A 
ATOM     27  C   UNL     1      -4.459   0.478  26.413  0.00  0.00    +0.031 A 
ATOM     30  C   UNL     1      -5.567   0.510  23.853  0.00  0.00    +0.040 A 
ATOM     31  C   UNL     1      -5.356   1.483  26.055  0.00  0.00    +0.040 A 
ATOM     32  C   UNL     1      -5.910   1.499  24.775  0.00  0.00    +0.124 A 
ENDBRANCH   1  22
ENDBRANCH   9   1
TORSDOF 5
ENDMDL
