MODEL 1
REMARK VINA RESULT:       7.7      0.000      0.000
REMARK  Name = 7143920
REMARK  4 active torsions:
REMARK  status: ('A' for Active; 'I' for Inactive)
REMARK    1  A    between atoms: S_2  and  N_6
REMARK    2  A    between atoms: S_2  and  C_19
REMARK    3  A    between atoms: C_17  and  C_20
REMARK    4  A    between atoms: C_21  and  C_22
REMARK                            x       y       z     vdW  Elec       q    Type
REMARK                         _______ _______ _______ _____ _____    ______ ____
ROOT
ATOM      5  O   UNL     1      -0.145   2.697  25.907  0.00  0.00    -0.267 OA
ATOM      6  N   UNL     1      -5.078   2.620  25.255  0.00  0.00    -0.180 NA
ATOM      7  N   UNL     1      -2.037   3.237  24.655  0.00  0.00    -0.311 N 
ATOM      8  C   UNL     1      -3.873   4.789  25.535  0.00  0.00    +0.025 C 
ATOM      9  C   UNL     1      -4.086   3.795  23.301  0.00  0.00    +0.052 C 
ATOM     10  C   UNL     1      -4.108   5.115  24.067  0.00  0.00    +0.017 C 
ATOM     11  C   UNL     1      -4.982   3.867  26.068  0.00  0.00    +0.114 C 
ATOM     12  C   UNL     1      -5.233   2.894  23.795  0.00  0.00    +0.118 C 
ATOM     13  C   UNL     1      -2.476   4.178  25.695  0.00  0.00    +0.130 C 
ATOM     14  C   UNL     1      -2.752   3.090  23.465  0.00  0.00    +0.026 A 
ATOM     15  C   UNL     1      -2.272   2.312  22.482  0.00  0.00    +0.022 A 
ATOM     16  C   UNL     1      -0.812   2.575  24.878  0.00  0.00    +0.259 A 
ATOM     17  C   UNL     1      -0.311   1.688  23.768  0.00  0.00    +0.040 A 
ATOM     18  C   UNL     1      -1.034   1.602  22.643  0.00  0.00    +0.015 A 
ENDROOT
BRANCH   6   2
ATOM      2  S   UNL     1      -6.095   1.400  25.890  0.00  0.00    +0.029 S 
ATOM      3  O   UNL     1      -7.172   1.157  24.956  0.00  0.00    -0.158 OA
ATOM      4  O   UNL     1      -6.349   1.684  27.286  0.00  0.00    -0.158 OA
ATOM     19  C   UNL     1      -4.976   0.025  25.806  0.00  0.00    +0.215 C 
ENDBRANCH   6   2
BRANCH  17  20
ATOM     20  C   UNL     1       0.925   0.965  23.927  0.00  0.00    +0.014 C 
ATOM     21  C   UNL     1       2.007   1.200  23.175  0.00  0.00    +0.008 C 
BRANCH  21  22
ATOM      1 CL   UNL     1       7.193  -1.708  23.652  0.00  0.00    -0.084 Cl
ATOM     22  C   UNL     1       3.288   0.481  23.293  0.00  0.00    -0.025 A 
ATOM     23  C   UNL     1       4.474   1.172  23.098  0.00  0.00    +0.009 A 
ATOM     24  C   UNL     1       3.282  -0.870  23.597  0.00  0.00    +0.009 A 
ATOM     25  C   UNL     1       5.686   0.492  23.209  0.00  0.00    +0.020 A 
ATOM     26  C   UNL     1       4.496  -1.550  23.709  0.00  0.00    +0.020 A 
ATOM     27  C   UNL     1       5.697  -0.869  23.515  0.00  0.00    +0.041 A 
ENDBRANCH  21  22
ENDBRANCH  17  20
TORSDOF 3
ENDMDL
MODEL 2
REMARK VINA RESULT:       7.9      2.058      3.167
REMARK  Name = 7143920
REMARK  4 active torsions:
REMARK  status: ('A' for Active; 'I' for Inactive)
REMARK    1  A    between atoms: S_2  and  N_6
REMARK    2  A    between atoms: S_2  and  C_19
REMARK    3  A    between atoms: C_17  and  C_20
REMARK    4  A    between atoms: C_21  and  C_22
REMARK                            x       y       z     vdW  Elec       q    Type
REMARK                         _______ _______ _______ _____ _____    ______ ____
ROOT
ATOM      5  O   UNL     1      -0.515   1.048  22.551  0.00  0.00    -0.267 OA
ATOM      6  N   UNL     1      -4.048   3.024  25.446  0.00  0.00    -0.180 NA
ATOM      7  N   UNL     1      -2.471   0.832  23.802  0.00  0.00    -0.311 N 
ATOM      8  C   UNL     1      -4.628   2.078  23.209  0.00  0.00    +0.025 C 
ATOM      9  C   UNL     1      -4.571   0.608  25.173  0.00  0.00    +0.052 C 
ATOM     10  C   UNL     1      -5.325   0.903  23.880  0.00  0.00    +0.017 C 
ATOM     11  C   UNL     1      -4.660   3.317  24.118  0.00  0.00    +0.114 C 
ATOM     12  C   UNL     1      -4.653   1.829  26.108  0.00  0.00    +0.118 C 
ATOM     13  C   UNL     1      -3.200   1.664  22.834  0.00  0.00    +0.130 C 
ATOM     14  C   UNL     1      -3.123   0.253  24.892  0.00  0.00    +0.026 A 
ATOM     15  C   UNL     1      -2.464  -0.595  25.698  0.00  0.00    +0.022 A 
ATOM     16  C   UNL     1      -1.115   0.570  23.515  0.00  0.00    +0.259 A 
ATOM     17  C   UNL     1      -0.395  -0.364  24.452  0.00  0.00    +0.040 A 
ATOM     18  C   UNL     1      -1.080  -0.902  25.470  0.00  0.00    +0.015 A 
ENDROOT
BRANCH   6   2
ATOM      2  S   UNL     1      -3.790   4.379  26.458  0.00  0.00    +0.029 S 
ATOM      3  O   UNL     1      -3.342   3.915  27.752  0.00  0.00    -0.158 OA
ATOM      4  O   UNL     1      -4.910   5.283  26.320  0.00  0.00    -0.158 OA
ATOM     19  C   UNL     1      -2.400   5.098  25.622  0.00  0.00    +0.215 C 
ENDBRANCH   6   2
BRANCH  17  20
ATOM     20  C   UNL     1       0.997  -0.668  24.235  0.00  0.00    +0.014 C 
ATOM     21  C   UNL     1       1.861   0.211  23.715  0.00  0.00    +0.008 C 
BRANCH  21  22
ATOM      1 CL   UNL     1       7.640  -0.873  22.708  0.00  0.00    -0.084 Cl
ATOM     22  C   UNL     1       3.289  -0.056  23.466  0.00  0.00    -0.025 A 
ATOM     23  C   UNL     1       3.835  -1.262  23.878  0.00  0.00    +0.009 A 
ATOM     24  C   UNL     1       4.057   0.902  22.825  0.00  0.00    +0.009 A 
ATOM     25  C   UNL     1       5.186  -1.515  23.643  0.00  0.00    +0.020 A 
ATOM     26  C   UNL     1       5.409   0.648  22.589  0.00  0.00    +0.020 A 
ATOM     27  C   UNL     1       5.973  -0.560  22.998  0.00  0.00    +0.041 A 
ENDBRANCH  21  22
ENDBRANCH  17  20
TORSDOF 3
ENDMDL
