MODEL 1
REMARK VINA RESULT:      -0.3      0.000      0.000
REMARK  Name = 45360655
REMARK  11 active torsions:
REMARK  status: ('A' for Active; 'I' for Inactive)
REMARK    1  A    between atoms: N_6  and  C_10
REMARK    2  A    between atoms: N_6  and  C_18
REMARK    3  A    between atoms: N_7  and  C_23
REMARK    4  A    between atoms: N_8  and  C_26
REMARK    5  A    between atoms: N_8  and  C_30
REMARK    6  A    between atoms: N_8  and  C_31
REMARK    7  A    between atoms: C_12  and  C_16
REMARK    8  A    between atoms: C_16  and  C_17
REMARK    9  A    between atoms: C_17  and  C_19
REMARK   10  A    between atoms: C_18  and  C_20
REMARK   11  A    between atoms: C_23  and  C_27
REMARK                            x       y       z     vdW  Elec       q    Type
REMARK                         _______ _______ _______ _____ _____    ______ ____
ROOT
ATOM      2  O   UNL     1       1.014   2.714  26.641  0.00  0.00    -0.274 OA
ATOM      4  N   UNL     1      -2.164   2.284  24.898  0.00  0.00    -0.286 NA
ATOM      5  N   UNL     1      -0.501   4.272  25.973  0.00  0.00    -0.313 N 
ATOM      9  C   UNL     1      -1.031   1.852  25.728  0.00  0.00    +0.145 C 
ATOM     10  C   UNL     1      -1.088   0.761  23.559  0.00  0.00    +0.070 C 
ATOM     11  C   UNL     1      -0.304   0.803  24.871  0.00  0.00    +0.048 C 
ATOM     12  C   UNL     1      -2.749   3.560  25.296  0.00  0.00    +0.075 C 
ATOM     13  C   UNL     1      -1.761   2.125  23.503  0.00  0.00    +0.104 C 
ATOM     14  C   UNL     1      -1.704   4.663  25.275  0.00  0.00    +0.123 C 
ATOM     15  C   UNL     1      -0.079   2.975  26.130  0.00  0.00    +0.230 C 
ATOM     35  H   UNL     1       0.134   5.009  26.263  0.00  0.00    +0.149 HD
ENDROOT
BRANCH  10   6
ATOM      6  N   UNL     1      -0.252   0.477  22.404  0.00  0.00    -0.308 NA
ATOM     36  H   UNL     1      -0.846   0.388  21.579  0.00  0.00    +0.123 HD
BRANCH   6  18
ATOM     18  C   UNL     1       0.493  -0.761  22.588  0.00  0.00    +0.116 C 
BRANCH  18  20
ATOM     20  C   UNL     1       1.956  -0.505  22.830  0.00  0.00    -0.033 A 
ATOM     21  C   UNL     1       2.533   0.693  22.407  0.00  0.00    +0.007 A 
ATOM     22  C   UNL     1       2.735  -1.465  23.477  0.00  0.00    +0.007 A 
ATOM     24  C   UNL     1       3.889   0.930  22.632  0.00  0.00    +0.023 A 
ATOM     25  C   UNL     1       4.091  -1.227  23.701  0.00  0.00    +0.023 A 
ATOM     26  C   UNL     1       4.668  -0.030  23.278  0.00  0.00    +0.029 A 
BRANCH  26   8
ATOM      8  N   UNL     1       6.040   0.211  23.504  0.00  0.00    -0.336 N 
ATOM     30  C   UNL     1       6.463   1.325  24.329  0.00  0.00    +0.129 C 
ATOM     31  C   UNL     1       7.043  -0.659  22.923  0.00  0.00    +0.129 C 
ENDBRANCH  26   8
ENDBRANCH  18  20
ENDBRANCH   6  18
ENDBRANCH  10   6
BRANCH  12  16
ATOM     16  C   UNL     1      -3.968   3.941  24.457  0.00  0.00    +0.029 C 
BRANCH  16  17
ATOM     17  C   UNL     1      -5.235   3.958  25.301  0.00  0.00    +0.097 C 
BRANCH  17  19
ATOM      3  O   UNL     1      -6.409   2.278  26.590  0.00  0.00    -0.276 OA
ATOM      7  N   UNL     1      -5.363   1.657  24.614  0.00  0.00    -0.311 N 
ATOM     19  C   UNL     1      -5.744   2.559  25.597  0.00  0.00    +0.213 C 
ATOM     37  H   UNL     1      -4.787   1.966  23.835  0.00  0.00    +0.149 HD
BRANCH   7  23
ATOM     23  C   UNL     1      -5.723   0.260  24.666  0.00  0.00    +0.139 C 
BRANCH  23  27
ATOM      1  F   UNL     1      -1.193  -3.059  25.124  0.00  0.00    -0.205 F 
ATOM     27  C   UNL     1      -4.513  -0.627  24.788  0.00  0.00    -0.030 A 
ATOM     28  C   UNL     1      -3.702  -0.547  25.920  0.00  0.00    +0.008 A 
ATOM     29  C   UNL     1      -4.202  -1.528  23.770  0.00  0.00    +0.008 A 
ATOM     32  C   UNL     1      -2.580  -1.369  26.034  0.00  0.00    +0.038 A 
ATOM     33  C   UNL     1      -3.081  -2.349  23.883  0.00  0.00    +0.038 A 
ATOM     34  C   UNL     1      -2.270  -2.269  25.016  0.00  0.00    +0.123 A 
ENDBRANCH  23  27
ENDBRANCH   7  23
ENDBRANCH  17  19
ENDBRANCH  16  17
ENDBRANCH  12  16
TORSDOF 9
ENDMDL
MODEL 2
REMARK VINA RESULT:       2.3      2.390      6.741
REMARK  Name = 45360655
REMARK  11 active torsions:
REMARK  status: ('A' for Active; 'I' for Inactive)
REMARK    1  A    between atoms: N_6  and  C_10
REMARK    2  A    between atoms: N_6  and  C_18
REMARK    3  A    between atoms: N_7  and  C_23
REMARK    4  A    between atoms: N_8  and  C_26
REMARK    5  A    between atoms: N_8  and  C_30
REMARK    6  A    between atoms: N_8  and  C_31
REMARK    7  A    between atoms: C_12  and  C_16
REMARK    8  A    between atoms: C_16  and  C_17
REMARK    9  A    between atoms: C_17  and  C_19
REMARK   10  A    between atoms: C_18  and  C_20
REMARK   11  A    between atoms: C_23  and  C_27
REMARK                            x       y       z     vdW  Elec       q    Type
REMARK                         _______ _______ _______ _____ _____    ______ ____
ROOT
ATOM      2  O   UNL     1      -3.605   6.346  23.230  0.00  0.00    -0.274 OA
ATOM      4  N   UNL     1      -2.420   3.138  24.507  0.00  0.00    -0.286 NA
ATOM      5  N   UNL     1      -2.109   5.902  24.883  0.00  0.00    -0.313 N 
ATOM      9  C   UNL     1      -3.018   4.036  23.509  0.00  0.00    +0.145 C 
ATOM     10  C   UNL     1      -4.601   2.428  24.410  0.00  0.00    +0.070 C 
ATOM     11  C   UNL     1      -4.477   3.565  23.395  0.00  0.00    +0.048 C 
ATOM     12  C   UNL     1      -1.186   3.639  25.102  0.00  0.00    +0.075 C 
ATOM     13  C   UNL     1      -3.491   2.722  25.409  0.00  0.00    +0.104 C 
ATOM     14  C   UNL     1      -1.413   4.990  25.762  0.00  0.00    +0.123 C 
ATOM     15  C   UNL     1      -2.956   5.516  23.874  0.00  0.00    +0.230 C 
ATOM     35  H   UNL     1      -2.061   6.892  25.101  0.00  0.00    +0.149 HD
ENDROOT
BRANCH  10   6
ATOM      6  N   UNL     1      -5.920   2.345  25.015  0.00  0.00    -0.308 NA
ATOM     36  H   UNL     1      -6.008   3.075  25.722  0.00  0.00    +0.123 HD
BRANCH   6  18
ATOM     18  C   UNL     1      -6.127   1.048  25.645  0.00  0.00    +0.116 C 
BRANCH  18  20
ATOM     20  C   UNL     1      -5.005   0.091  25.341  0.00  0.00    -0.033 A 
ATOM     21  C   UNL     1      -4.112  -0.278  26.346  0.00  0.00    +0.007 A 
ATOM     22  C   UNL     1      -4.861  -0.428  24.054  0.00  0.00    +0.007 A 
ATOM     24  C   UNL     1      -3.073  -1.166  26.064  0.00  0.00    +0.023 A 
ATOM     25  C   UNL     1      -3.822  -1.315  23.773  0.00  0.00    +0.023 A 
ATOM     26  C   UNL     1      -2.928  -1.684  24.777  0.00  0.00    +0.029 A 
BRANCH  26   8
ATOM      8  N   UNL     1      -1.877  -2.582  24.493  0.00  0.00    -0.336 N 
ATOM     30  C   UNL     1      -2.027  -3.581  23.454  0.00  0.00    +0.129 C 
ATOM     31  C   UNL     1      -0.631  -2.509  25.230  0.00  0.00    +0.129 C 
ENDBRANCH  26   8
ENDBRANCH  18  20
ENDBRANCH   6  18
ENDBRANCH  10   6
BRANCH  12  16
ATOM     16  C   UNL     1      -0.555   2.649  26.081  0.00  0.00    +0.029 C 
BRANCH  16  17
ATOM     17  C   UNL     1      -0.449   1.260  25.467  0.00  0.00    +0.097 C 
BRANCH  17  19
ATOM      3  O   UNL     1       1.211   2.180  23.964  0.00  0.00    -0.276 OA
ATOM      7  N   UNL     1       0.521  -0.016  23.675  0.00  0.00    -0.311 N 
ATOM     19  C   UNL     1       0.521   1.222  24.301  0.00  0.00    +0.213 C 
ATOM     37  H   UNL     1      -0.103  -0.750  23.999  0.00  0.00    +0.149 HD
BRANCH   7  23
ATOM     23  C   UNL     1       1.359  -0.306  22.536  0.00  0.00    +0.139 C 
BRANCH  23  27
ATOM      1  F   UNL     1       6.833  -0.157  23.869  0.00  0.00    -0.205 F 
ATOM     27  C   UNL     1       2.822  -0.267  22.893  0.00  0.00    -0.030 A 
ATOM     28  C   UNL     1       3.598   0.834  22.529  0.00  0.00    +0.008 A 
ATOM     29  C   UNL     1       3.400  -1.329  23.586  0.00  0.00    +0.008 A 
ATOM     32  C   UNL     1       4.953   0.872  22.859  0.00  0.00    +0.038 A 
ATOM     33  C   UNL     1       4.755  -1.293  23.915  0.00  0.00    +0.038 A 
ATOM     34  C   UNL     1       5.531  -0.192  23.552  0.00  0.00    +0.123 A 
ENDBRANCH  23  27
ENDBRANCH   7  23
ENDBRANCH  17  19
ENDBRANCH  16  17
ENDBRANCH  12  16
TORSDOF 9
ENDMDL
MODEL 3
REMARK VINA RESULT:       2.4      2.525      7.351
REMARK  Name = 45360655
REMARK  11 active torsions:
REMARK  status: ('A' for Active; 'I' for Inactive)
REMARK    1  A    between atoms: N_6  and  C_10
REMARK    2  A    between atoms: N_6  and  C_18
REMARK    3  A    between atoms: N_7  and  C_23
REMARK    4  A    between atoms: N_8  and  C_26
REMARK    5  A    between atoms: N_8  and  C_30
REMARK    6  A    between atoms: N_8  and  C_31
REMARK    7  A    between atoms: C_12  and  C_16
REMARK    8  A    between atoms: C_16  and  C_17
REMARK    9  A    between atoms: C_17  and  C_19
REMARK   10  A    between atoms: C_18  and  C_20
REMARK   11  A    between atoms: C_23  and  C_27
REMARK                            x       y       z     vdW  Elec       q    Type
REMARK                         _______ _______ _______ _____ _____    ______ ____
ROOT
ATOM      2  O   UNL     1      -3.492  -3.904  23.896  0.00  0.00    -0.274 OA
ATOM      4  N   UNL     1      -2.630  -0.894  25.771  0.00  0.00    -0.286 NA
ATOM      5  N   UNL     1      -1.573  -2.683  23.885  0.00  0.00    -0.313 N 
ATOM      9  C   UNL     1      -3.379  -2.130  25.507  0.00  0.00    +0.145 C 
ATOM     10  C   UNL     1      -4.739  -0.130  25.285  0.00  0.00    +0.070 C 
ATOM     11  C   UNL     1      -4.810  -1.656  25.209  0.00  0.00    +0.048 C 
ATOM     12  C   UNL     1      -1.182  -1.033  25.657  0.00  0.00    +0.075 C 
ATOM     13  C   UNL     1      -3.273   0.171  25.007  0.00  0.00    +0.104 C 
ATOM     14  C   UNL     1      -0.793  -1.532  24.275  0.00  0.00    +0.123 C 
ATOM     15  C   UNL     1      -2.835  -2.964  24.351  0.00  0.00    +0.230 C 
ATOM     35  H   UNL     1      -1.215  -3.259  23.129  0.00  0.00    +0.149 HD
ENDROOT
BRANCH  10   6
ATOM      6  N   UNL     1      -5.653   0.530  24.367  0.00  0.00    -0.308 NA
ATOM     36  H   UNL     1      -5.202   0.616  23.456  0.00  0.00    +0.123 HD
BRANCH   6  18
ATOM     18  C   UNL     1      -6.009   1.858  24.847  0.00  0.00    +0.116 C 
BRANCH  18  20
ATOM     20  C   UNL     1      -4.820   2.781  24.877  0.00  0.00    -0.033 A 
ATOM     21  C   UNL     1      -4.407   3.345  26.084  0.00  0.00    +0.007 A 
ATOM     22  C   UNL     1      -4.132   3.072  23.699  0.00  0.00    +0.007 A 
ATOM     24  C   UNL     1      -3.305   4.200  26.113  0.00  0.00    +0.023 A 
ATOM     25  C   UNL     1      -3.031   3.927  23.729  0.00  0.00    +0.023 A 
ATOM     26  C   UNL     1      -2.617   4.492  24.935  0.00  0.00    +0.029 A 
BRANCH  26   8
ATOM      8  N   UNL     1      -1.503   5.357  24.964  0.00  0.00    -0.336 N 
ATOM     30  C   UNL     1      -0.157   4.820  24.960  0.00  0.00    +0.129 C 
ATOM     31  C   UNL     1      -1.691   6.794  24.989  0.00  0.00    +0.129 C 
ENDBRANCH  26   8
ENDBRANCH  18  20
ENDBRANCH   6  18
ENDBRANCH  10   6
BRANCH  12  16
ATOM     16  C   UNL     1      -0.433   0.252  26.009  0.00  0.00    +0.029 C 
BRANCH  16  17
ATOM     17  C   UNL     1      -0.625   1.314  24.935  0.00  0.00    +0.097 C 
BRANCH  17  19
ATOM      3  O   UNL     1       1.330   2.312  23.913  0.00  0.00    -0.276 OA
ATOM      7  N   UNL     1       0.610   0.232  23.178  0.00  0.00    -0.311 N 
ATOM     19  C   UNL     1       0.546   1.369  23.971  0.00  0.00    +0.213 C 
ATOM     37  H   UNL     1      -0.097  -0.492  23.270  0.00  0.00    +0.149 HD
BRANCH   7  23
ATOM     23  C   UNL     1       1.635   0.044  22.179  0.00  0.00    +0.139 C 
BRANCH  23  27
ATOM      1  F   UNL     1       6.735  -0.563  24.498  0.00  0.00    -0.205 F 
ATOM     27  C   UNL     1       2.998  -0.117  22.799  0.00  0.00    -0.030 A 
ATOM     28  C   UNL     1       3.340  -1.315  23.428  0.00  0.00    +0.008 A 
ATOM     29  C   UNL     1       3.919   0.929  22.743  0.00  0.00    +0.008 A 
ATOM     32  C   UNL     1       4.602  -1.466  24.003  0.00  0.00    +0.038 A 
ATOM     33  C   UNL     1       5.180   0.779  23.318  0.00  0.00    +0.038 A 
ATOM     34  C   UNL     1       5.522  -0.419  23.947  0.00  0.00    +0.123 A 
ENDBRANCH  23  27
ENDBRANCH   7  23
ENDBRANCH  17  19
ENDBRANCH  16  17
ENDBRANCH  12  16
TORSDOF 9
ENDMDL
MODEL 4
REMARK VINA RESULT:       3.3      2.519      7.032
REMARK  Name = 45360655
REMARK  11 active torsions:
REMARK  status: ('A' for Active; 'I' for Inactive)
REMARK    1  A    between atoms: N_6  and  C_10
REMARK    2  A    between atoms: N_6  and  C_18
REMARK    3  A    between atoms: N_7  and  C_23
REMARK    4  A    between atoms: N_8  and  C_26
REMARK    5  A    between atoms: N_8  and  C_30
REMARK    6  A    between atoms: N_8  and  C_31
REMARK    7  A    between atoms: C_12  and  C_16
REMARK    8  A    between atoms: C_16  and  C_17
REMARK    9  A    between atoms: C_17  and  C_19
REMARK   10  A    between atoms: C_18  and  C_20
REMARK   11  A    between atoms: C_23  and  C_27
REMARK                            x       y       z     vdW  Elec       q    Type
REMARK                         _______ _______ _______ _____ _____    ______ ____
ROOT
ATOM      2  O   UNL     1      -0.575   5.950  24.588  0.00  0.00    -0.274 OA
ATOM      4  N   UNL     1      -1.581   2.445  24.758  0.00  0.00    -0.286 NA
ATOM      5  N   UNL     1       0.224   4.269  25.895  0.00  0.00    -0.313 N 
ATOM      9  C   UNL     1      -1.453   3.765  24.126  0.00  0.00    +0.145 C 
ATOM     10  C   UNL     1      -3.751   3.186  24.659  0.00  0.00    +0.070 C 
ATOM     11  C   UNL     1      -2.897   4.279  24.014  0.00  0.00    +0.048 C 
ATOM     12  C   UNL     1      -0.349   1.945  25.358  0.00  0.00    +0.075 C 
ATOM     13  C   UNL     1      -2.778   2.482  25.594  0.00  0.00    +0.104 C 
ATOM     14  C   UNL     1       0.179   2.917  26.401  0.00  0.00    +0.123 C 
ATOM     15  C   UNL     1      -0.587   4.755  24.899  0.00  0.00    +0.230 C 
ATOM     35  H   UNL     1       0.811   4.935  26.388  0.00  0.00    +0.149 HD
ENDROOT
BRANCH  10   6
ATOM      6  N   UNL     1      -4.930   3.707  25.332  0.00  0.00    -0.308 NA
ATOM     36  H   UNL     1      -4.652   4.102  26.230  0.00  0.00    +0.123 HD
BRANCH   6  18
ATOM     18  C   UNL     1      -5.910   2.654  25.560  0.00  0.00    +0.116 C 
BRANCH  18  20
ATOM     20  C   UNL     1      -5.334   1.286  25.309  0.00  0.00    -0.033 A 
ATOM     21  C   UNL     1      -5.247   0.795  24.006  0.00  0.00    +0.007 A 
ATOM     22  C   UNL     1      -4.887   0.510  26.379  0.00  0.00    +0.007 A 
ATOM     24  C   UNL     1      -4.712  -0.472  23.774  0.00  0.00    +0.023 A 
ATOM     25  C   UNL     1      -4.353  -0.757  26.145  0.00  0.00    +0.023 A 
ATOM     26  C   UNL     1      -4.266  -1.248  24.844  0.00  0.00    +0.029 A 
BRANCH  26   8
ATOM      8  N   UNL     1      -3.725  -2.530  24.607  0.00  0.00    -0.336 N 
ATOM     30  C   UNL     1      -2.935  -3.192  25.626  0.00  0.00    +0.129 C 
ATOM     31  C   UNL     1      -3.962  -3.205  23.347  0.00  0.00    +0.129 C 
ENDBRANCH  26   8
ENDBRANCH  18  20
ENDBRANCH   6  18
ENDBRANCH  10   6
BRANCH  12  16
ATOM     16  C   UNL     1      -0.501   0.540  25.942  0.00  0.00    +0.029 C 
BRANCH  16  17
ATOM     17  C   UNL     1      -1.286  -0.365  25.003  0.00  0.00    +0.097 C 
BRANCH  17  19
ATOM      3  O   UNL     1      -0.523  -2.049  23.439  0.00  0.00    -0.276 OA
ATOM      7  N   UNL     1       0.476   0.046  23.419  0.00  0.00    -0.311 N 
ATOM     19  C   UNL     1      -0.424  -0.906  23.877  0.00  0.00    +0.213 C 
ATOM     37  H   UNL     1       0.512   0.963  23.856  0.00  0.00    +0.149 HD
BRANCH   7  23
ATOM     23  C   UNL     1       1.408  -0.224  22.350  0.00  0.00    +0.139 C 
BRANCH  23  27
ATOM      1  F   UNL     1       6.748  -0.097  24.144  0.00  0.00    -0.205 F 
ATOM     27  C   UNL     1       2.835  -0.189  22.830  0.00  0.00    -0.030 A 
ATOM     28  C   UNL     1       3.382  -1.302  23.469  0.00  0.00    +0.008 A 
ATOM     29  C   UNL     1       3.610   0.954  22.634  0.00  0.00    +0.008 A 
ATOM     32  C   UNL     1       4.705  -1.272  23.913  0.00  0.00    +0.038 A 
ATOM     33  C   UNL     1       4.931   0.985  23.079  0.00  0.00    +0.038 A 
ATOM     34  C   UNL     1       5.478  -0.128  23.718  0.00  0.00    +0.123 A 
ENDBRANCH  23  27
ENDBRANCH   7  23
ENDBRANCH  17  19
ENDBRANCH  16  17
ENDBRANCH  12  16
TORSDOF 9
ENDMDL
