MODEL 1
REMARK VINA RESULT:      -4.2      0.000      0.000
REMARK  Name = 75536717
REMARK  10 active torsions:
REMARK  status: ('A' for Active; 'I' for Inactive)
REMARK    1  A    between atoms: S_1  and  N_7
REMARK    2  A    between atoms: S_1  and  C_17
REMARK    3  A    between atoms: O_3  and  C_11
REMARK    4  A    between atoms: N_6  and  C_10
REMARK    5  A    between atoms: N_6  and  C_15
REMARK    6  A    between atoms: N_7  and  C_14
REMARK    7  A    between atoms: N_8  and  C_21
REMARK    8  A    between atoms: C_12  and  C_14
REMARK    9  A    between atoms: C_15  and  C_16
REMARK   10  A    between atoms: C_25  and  C_26
REMARK                            x       y       z     vdW  Elec       q    Type
REMARK                         _______ _______ _______ _____ _____    ______ ____
ROOT
ATOM      2  O   UNL     1      -1.009   2.272  26.265  0.00  0.00    -0.371 OA
ATOM     10  C   UNL     1       0.257   1.497  24.410  0.00  0.00    +0.111 C 
ATOM     11  C   UNL     1      -0.363   2.836  24.061  0.00  0.00    +0.164 C 
ATOM     12  C   UNL     1      -0.650   3.398  25.447  0.00  0.00    +0.164 C 
ATOM     13  C   UNL     1      -0.599   1.068  25.592  0.00  0.00    +0.181 C 
ENDROOT
BRANCH  11   3
ATOM      3  O   UNL     1       0.514   3.669  23.326  0.00  0.00    -0.388 OA
ATOM     28  H   UNL     1       1.425   3.476  23.606  0.00  0.00    +0.210 HD
ENDBRANCH  11   3
BRANCH  10   6
ATOM      6  N   UNL     1       0.232   0.538  23.317  0.00  0.00    -0.302 NA
ATOM     27  H   UNL     1       0.350   1.035  22.434  0.00  0.00    +0.123 HD
BRANCH   6  15
ATOM     15  C   UNL     1       1.301  -0.443  23.454  0.00  0.00    +0.156 C 
BRANCH  15  16
ATOM      8  N   UNL     1       3.815  -0.530  23.393  0.00  0.00    -0.336 N 
ATOM      9  N   UNL     1       2.883   1.376  22.740  0.00  0.00    -0.239 NA
ATOM     16  C   UNL     1       2.654   0.161  23.187  0.00  0.00    +0.123 A 
ATOM     18  C   UNL     1       4.849   0.296  23.056  0.00  0.00    +0.106 A 
ATOM     21  C   UNL     1       3.944  -1.885  23.876  0.00  0.00    +0.150 C 
ATOM     22  C   UNL     1       4.249   1.467  22.657  0.00  0.00    +0.130 A 
ENDBRANCH  15  16
ENDBRANCH   6  15
ENDBRANCH  10   6
BRANCH  12  14
ATOM     14  C   UNL     1      -1.771   4.421  25.459  0.00  0.00    +0.140 C 
BRANCH  14   7
ATOM      7  N   UNL     1      -3.012   3.789  25.949  0.00  0.00    -0.187 NA
ATOM     29  H   UNL     1      -2.917   3.216  26.797  0.00  0.00    +0.148 HD
BRANCH   7   1
ATOM      1  S   UNL     1      -4.270   3.424  24.863  0.00  0.00    +0.058 S 
ATOM      4  O   UNL     1      -4.006   4.065  23.589  0.00  0.00    -0.153 OA
ATOM      5  O   UNL     1      -5.543   3.622  25.529  0.00  0.00    -0.153 OA
BRANCH   1  17
ATOM     17  C   UNL     1      -4.067   1.681  24.648  0.00  0.00    +0.105 A 
ATOM     19  C   UNL     1      -4.493   0.801  25.643  0.00  0.00    +0.029 A 
ATOM     20  C   UNL     1      -3.477   1.185  23.484  0.00  0.00    +0.029 A 
ATOM     23  C   UNL     1      -4.330  -0.574  25.475  0.00  0.00    +0.005 A 
ATOM     24  C   UNL     1      -3.314  -0.189  23.317  0.00  0.00    +0.005 A 
ATOM     25  C   UNL     1      -3.741  -1.070  24.312  0.00  0.00    -0.050 A 
ATOM     26  C   UNL     1      -3.567  -2.540  24.133  0.00  0.00    +0.044 C 
ENDBRANCH   1  17
ENDBRANCH   7   1
ENDBRANCH  14   7
ENDBRANCH  12  14
TORSDOF 8
ENDMDL
MODEL 2
REMARK VINA RESULT:      -4.2      1.725      2.102
REMARK  Name = 75536717
REMARK  10 active torsions:
REMARK  status: ('A' for Active; 'I' for Inactive)
REMARK    1  A    between atoms: S_1  and  N_7
REMARK    2  A    between atoms: S_1  and  C_17
REMARK    3  A    between atoms: O_3  and  C_11
REMARK    4  A    between atoms: N_6  and  C_10
REMARK    5  A    between atoms: N_6  and  C_15
REMARK    6  A    between atoms: N_7  and  C_14
REMARK    7  A    between atoms: N_8  and  C_21
REMARK    8  A    between atoms: C_12  and  C_14
REMARK    9  A    between atoms: C_15  and  C_16
REMARK   10  A    between atoms: C_25  and  C_26
REMARK                            x       y       z     vdW  Elec       q    Type
REMARK                         _______ _______ _______ _____ _____    ______ ____
ROOT
ATOM      2  O   UNL     1      -1.693   4.334  25.729  0.00  0.00    -0.371 OA
ATOM     10  C   UNL     1      -0.570   2.527  24.673  0.00  0.00    +0.111 C 
ATOM     11  C   UNL     1      -2.046   2.461  24.329  0.00  0.00    +0.164 C 
ATOM     12  C   UNL     1      -2.477   3.894  24.607  0.00  0.00    +0.164 C 
ATOM     13  C   UNL     1      -0.586   3.431  25.896  0.00  0.00    +0.181 C 
ENDROOT
BRANCH  11   3
ATOM      3  O   UNL     1      -2.277   2.093  22.983  0.00  0.00    -0.388 OA
ATOM     28  H   UNL     1      -2.989   2.653  22.630  0.00  0.00    +0.210 HD
ENDBRANCH  11   3
BRANCH  10   6
ATOM      6  N   UNL     1       0.027   1.228  24.938  0.00  0.00    -0.302 NA
ATOM     27  H   UNL     1      -0.561   0.718  25.596  0.00  0.00    +0.123 HD
BRANCH   6  15
ATOM     15  C   UNL     1       0.153   0.448  23.713  0.00  0.00    +0.156 C 
BRANCH  15  16
ATOM      8  N   UNL     1       1.892  -0.118  21.984  0.00  0.00    -0.336 N 
ATOM      9  N   UNL     1       2.566   1.153  23.677  0.00  0.00    -0.239 NA
ATOM     16  C   UNL     1       1.547   0.512  23.148  0.00  0.00    +0.123 A 
ATOM     18  C   UNL     1       3.214   0.139  21.757  0.00  0.00    +0.106 A 
ATOM     21  C   UNL     1       1.031  -0.910  21.139  0.00  0.00    +0.150 C 
ATOM     22  C   UNL     1       3.609   0.924  22.814  0.00  0.00    +0.130 A 
ENDBRANCH  15  16
ENDBRANCH   6  15
ENDBRANCH  10   6
BRANCH  12  14
ATOM     14  C   UNL     1      -3.955   4.024  24.930  0.00  0.00    +0.140 C 
BRANCH  14   7
ATOM      7  N   UNL     1      -4.709   2.962  24.235  0.00  0.00    -0.187 NA
ATOM     29  H   UNL     1      -4.987   3.171  23.268  0.00  0.00    +0.148 HD
BRANCH   7   1
ATOM      1  S   UNL     1      -5.650   1.862  25.127  0.00  0.00    +0.058 S 
ATOM      4  O   UNL     1      -6.914   1.650  24.449  0.00  0.00    -0.153 OA
ATOM      5  O   UNL     1      -5.628   2.246  26.526  0.00  0.00    -0.153 OA
BRANCH   1  17
ATOM     17  C   UNL     1      -4.701   0.377  24.987  0.00  0.00    +0.105 A 
ATOM     19  C   UNL     1      -3.950  -0.076  26.072  0.00  0.00    +0.029 A 
ATOM     20  C   UNL     1      -4.699  -0.340  23.790  0.00  0.00    +0.029 A 
ATOM     23  C   UNL     1      -3.198  -1.246  25.960  0.00  0.00    +0.005 A 
ATOM     24  C   UNL     1      -3.947  -1.509  23.679  0.00  0.00    +0.005 A 
ATOM     25  C   UNL     1      -3.197  -1.963  24.764  0.00  0.00    -0.050 A 
ATOM     26  C   UNL     1      -2.393  -3.213  24.645  0.00  0.00    +0.044 C 
ENDBRANCH   1  17
ENDBRANCH   7   1
ENDBRANCH  14   7
ENDBRANCH  12  14
TORSDOF 8
ENDMDL
MODEL 3
REMARK VINA RESULT:      -3.8      2.089      4.007
REMARK  Name = 75536717
REMARK  10 active torsions:
REMARK  status: ('A' for Active; 'I' for Inactive)
REMARK    1  A    between atoms: S_1  and  N_7
REMARK    2  A    between atoms: S_1  and  C_17
REMARK    3  A    between atoms: O_3  and  C_11
REMARK    4  A    between atoms: N_6  and  C_10
REMARK    5  A    between atoms: N_6  and  C_15
REMARK    6  A    between atoms: N_7  and  C_14
REMARK    7  A    between atoms: N_8  and  C_21
REMARK    8  A    between atoms: C_12  and  C_14
REMARK    9  A    between atoms: C_15  and  C_16
REMARK   10  A    between atoms: C_25  and  C_26
REMARK                            x       y       z     vdW  Elec       q    Type
REMARK                         _______ _______ _______ _____ _____    ______ ____
ROOT
ATOM      2  O   UNL     1      -3.315  -2.400  24.537  0.00  0.00    -0.371 OA
ATOM     10  C   UNL     1      -1.103  -1.754  25.114  0.00  0.00    +0.111 C 
ATOM     11  C   UNL     1      -1.993  -0.526  25.112  0.00  0.00    +0.164 C 
ATOM     12  C   UNL     1      -3.369  -1.159  25.261  0.00  0.00    +0.164 C 
ATOM     13  C   UNL     1      -1.936  -2.730  24.297  0.00  0.00    +0.181 C 
ENDROOT
BRANCH  11   3
ATOM      3  O   UNL     1      -1.703   0.360  26.177  0.00  0.00    -0.388 OA
ATOM     28  H   UNL     1      -0.743   0.514  26.194  0.00  0.00    +0.210 HD
ENDBRANCH  11   3
BRANCH  10   6
ATOM      6  N   UNL     1       0.215  -1.522  24.547  0.00  0.00    -0.302 NA
ATOM     27  H   UNL     1       0.646  -2.419  24.324  0.00  0.00    +0.123 HD
BRANCH   6  15
ATOM     15  C   UNL     1       0.131  -0.723  23.331  0.00  0.00    +0.156 C 
BRANCH  15  16
ATOM      8  N   UNL     1       1.678   1.257  23.481  0.00  0.00    -0.336 N 
ATOM      9  N   UNL     1       2.434  -0.497  22.348  0.00  0.00    -0.239 NA
ATOM     16  C   UNL     1       1.425  -0.012  23.037  0.00  0.00    +0.123 A 
ATOM     18  C   UNL     1       2.926   1.601  23.047  0.00  0.00    +0.106 A 
ATOM     21  C   UNL     1       0.799   2.092  24.265  0.00  0.00    +0.150 C 
ATOM     22  C   UNL     1       3.373   0.504  22.350  0.00  0.00    +0.130 A 
ENDBRANCH  15  16
ENDBRANCH   6  15
ENDBRANCH  10   6
BRANCH  12  14
ATOM     14  C   UNL     1      -4.490  -0.294  24.713  0.00  0.00    +0.140 C 
BRANCH  14   7
ATOM      7  N   UNL     1      -5.168   0.401  25.825  0.00  0.00    -0.187 NA
ATOM     29  H   UNL     1      -5.615  -0.206  26.524  0.00  0.00    +0.148 HD
BRANCH   7   1
ATOM      1  S   UNL     1      -5.788   1.969  25.601  0.00  0.00    +0.058 S 
ATOM      4  O   UNL     1      -6.407   2.422  26.831  0.00  0.00    -0.153 OA
ATOM      5  O   UNL     1      -6.528   2.010  24.354  0.00  0.00    -0.153 OA
BRANCH   1  17
ATOM     17  C   UNL     1      -4.311   2.909  25.355  0.00  0.00    +0.105 A 
ATOM     19  C   UNL     1      -3.831   3.733  26.373  0.00  0.00    +0.029 A 
ATOM     20  C   UNL     1      -3.628   2.831  24.141  0.00  0.00    +0.029 A 
ATOM     23  C   UNL     1      -2.668   4.478  26.178  0.00  0.00    +0.005 A 
ATOM     24  C   UNL     1      -2.466   3.576  23.946  0.00  0.00    +0.005 A 
ATOM     25  C   UNL     1      -1.985   4.400  24.965  0.00  0.00    -0.050 A 
ATOM     26  C   UNL     1      -0.741   5.196  24.757  0.00  0.00    +0.044 C 
ENDBRANCH   1  17
ENDBRANCH   7   1
ENDBRANCH  14   7
ENDBRANCH  12  14
TORSDOF 8
ENDMDL
MODEL 4
REMARK VINA RESULT:      -3.5      2.138      4.090
REMARK  Name = 75536717
REMARK  10 active torsions:
REMARK  status: ('A' for Active; 'I' for Inactive)
REMARK    1  A    between atoms: S_1  and  N_7
REMARK    2  A    between atoms: S_1  and  C_17
REMARK    3  A    between atoms: O_3  and  C_11
REMARK    4  A    between atoms: N_6  and  C_10
REMARK    5  A    between atoms: N_6  and  C_15
REMARK    6  A    between atoms: N_7  and  C_14
REMARK    7  A    between atoms: N_8  and  C_21
REMARK    8  A    between atoms: C_12  and  C_14
REMARK    9  A    between atoms: C_15  and  C_16
REMARK   10  A    between atoms: C_25  and  C_26
REMARK                            x       y       z     vdW  Elec       q    Type
REMARK                         _______ _______ _______ _____ _____    ______ ____
ROOT
ATOM      2  O   UNL     1      -1.627  -2.558  23.993  0.00  0.00    -0.371 OA
ATOM     10  C   UNL     1       0.097  -0.969  24.376  0.00  0.00    +0.111 C 
ATOM     11  C   UNL     1      -1.122  -0.583  25.193  0.00  0.00    +0.164 C 
ATOM     12  C   UNL     1      -1.867  -1.910  25.253  0.00  0.00    +0.164 C 
ATOM     13  C   UNL     1      -0.514  -1.912  23.351  0.00  0.00    +0.181 C 
ENDROOT
BRANCH  11   3
ATOM      3  O   UNL     1      -0.787  -0.108  26.482  0.00  0.00    -0.388 OA
ATOM     28  H   UNL     1      -0.921  -0.830  27.119  0.00  0.00    +0.210 HD
ENDBRANCH  11   3
BRANCH  10   6
ATOM      6  N   UNL     1       0.776   0.164  23.769  0.00  0.00    -0.302 NA
ATOM     27  H   UNL     1       1.337   0.636  24.478  0.00  0.00    +0.123 HD
BRANCH   6  15
ATOM     15  C   UNL     1       1.650  -0.266  22.684  0.00  0.00    +0.156 C 
BRANCH  15  16
ATOM      8  N   UNL     1       4.012   0.534  23.015  0.00  0.00    -0.336 N 
ATOM      9  N   UNL     1       3.566  -1.526  23.714  0.00  0.00    -0.239 NA
ATOM     16  C   UNL     1       3.070  -0.448  23.148  0.00  0.00    +0.123 A 
ATOM     18  C   UNL     1       5.182   0.051  23.530  0.00  0.00    +0.106 A 
ATOM     21  C   UNL     1       3.823   1.845  22.441  0.00  0.00    +0.150 C 
ATOM     22  C   UNL     1       4.882  -1.221  23.955  0.00  0.00    +0.130 A 
ENDBRANCH  15  16
ENDBRANCH   6  15
ENDBRANCH  10   6
BRANCH  12  14
ATOM     14  C   UNL     1      -3.361  -1.750  25.473  0.00  0.00    +0.140 C 
BRANCH  14   7
ATOM      7  N   UNL     1      -3.668  -0.338  25.776  0.00  0.00    -0.187 NA
ATOM     29  H   UNL     1      -3.886  -0.129  26.758  0.00  0.00    +0.148 HD
BRANCH   7   1
ATOM      1  S   UNL     1      -4.319   0.671  24.571  0.00  0.00    +0.058 S 
ATOM      4  O   UNL     1      -5.661   1.068  24.951  0.00  0.00    -0.153 OA
ATOM      5  O   UNL     1      -4.076   0.073  23.272  0.00  0.00    -0.153 OA
BRANCH   1  17
ATOM     17  C   UNL     1      -3.276   2.093  24.687  0.00  0.00    +0.105 A 
ATOM     19  C   UNL     1      -2.112   2.168  23.923  0.00  0.00    +0.029 A 
ATOM     20  C   UNL     1      -3.616   3.139  25.546  0.00  0.00    +0.029 A 
ATOM     23  C   UNL     1      -1.287   3.289  24.017  0.00  0.00    +0.005 A 
ATOM     24  C   UNL     1      -2.790   4.259  25.640  0.00  0.00    +0.005 A 
ATOM     25  C   UNL     1      -1.625   4.335  24.875  0.00  0.00    -0.050 A 
ATOM     26  C   UNL     1      -0.744   5.533  24.975  0.00  0.00    +0.044 C 
ENDBRANCH   1  17
ENDBRANCH   7   1
ENDBRANCH  14   7
ENDBRANCH  12  14
TORSDOF 8
ENDMDL
MODEL 5
REMARK VINA RESULT:      -3.3      1.345      1.650
REMARK  Name = 75536717
REMARK  10 active torsions:
REMARK  status: ('A' for Active; 'I' for Inactive)
REMARK    1  A    between atoms: S_1  and  N_7
REMARK    2  A    between atoms: S_1  and  C_17
REMARK    3  A    between atoms: O_3  and  C_11
REMARK    4  A    between atoms: N_6  and  C_10
REMARK    5  A    between atoms: N_6  and  C_15
REMARK    6  A    between atoms: N_7  and  C_14
REMARK    7  A    between atoms: N_8  and  C_21
REMARK    8  A    between atoms: C_12  and  C_14
REMARK    9  A    between atoms: C_15  and  C_16
REMARK   10  A    between atoms: C_25  and  C_26
REMARK                            x       y       z     vdW  Elec       q    Type
REMARK                         _______ _______ _______ _____ _____    ______ ____
ROOT
ATOM      2  O   UNL     1      -1.704   1.577  23.708  0.00  0.00    -0.371 OA
ATOM     10  C   UNL     1       0.627   1.307  24.072  0.00  0.00    +0.111 C 
ATOM     11  C   UNL     1       0.115   2.429  24.954  0.00  0.00    +0.164 C 
ATOM     12  C   UNL     1      -1.373   2.112  25.000  0.00  0.00    +0.164 C 
ATOM     13  C   UNL     1      -0.486   1.203  23.041  0.00  0.00    +0.181 C 
ENDROOT
BRANCH  11   3
ATOM      3  O   UNL     1       0.696   2.418  26.244  0.00  0.00    -0.388 OA
ATOM     28  H   UNL     1       0.470   1.576  26.674  0.00  0.00    +0.210 HD
ENDBRANCH  11   3
BRANCH  10   6
ATOM      6  N   UNL     1       1.926   1.577  23.477  0.00  0.00    -0.302 NA
ATOM     27  H   UNL     1       2.558   1.924  24.198  0.00  0.00    +0.123 HD
BRANCH   6  15
ATOM     15  C   UNL     1       2.496   0.371  22.889  0.00  0.00    +0.156 C 
BRANCH  15  16
ATOM      8  N   UNL     1       4.419  -0.985  23.780  0.00  0.00    -0.336 N 
ATOM      9  N   UNL     1       4.886   1.098  23.167  0.00  0.00    -0.239 NA
ATOM     16  C   UNL     1       3.941   0.190  23.270  0.00  0.00    +0.123 A 
ATOM     18  C   UNL     1       5.754  -0.815  24.015  0.00  0.00    +0.106 A 
ATOM     21  C   UNL     1       3.668  -2.193  24.028  0.00  0.00    +0.150 C 
ATOM     22  C   UNL     1       6.019   0.477  23.630  0.00  0.00    +0.130 A 
ENDBRANCH  15  16
ENDBRANCH   6  15
ENDBRANCH  10   6
BRANCH  12  14
ATOM     14  C   UNL     1      -2.237   3.327  25.290  0.00  0.00    +0.140 C 
BRANCH  14   7
ATOM      7  N   UNL     1      -3.448   2.909  26.023  0.00  0.00    -0.187 NA
ATOM     29  H   UNL     1      -3.302   2.613  26.995  0.00  0.00    +0.148 HD
BRANCH   7   1
ATOM      1  S   UNL     1      -4.781   2.277  25.176  0.00  0.00    +0.058 S 
ATOM      4  O   UNL     1      -4.823   2.853  23.846  0.00  0.00    -0.153 OA
ATOM      5  O   UNL     1      -5.952   2.328  26.030  0.00  0.00    -0.153 OA
BRANCH   1  17
ATOM     17  C   UNL     1      -4.334   0.574  25.018  0.00  0.00    +0.105 A 
ATOM     19  C   UNL     1      -3.732  -0.092  26.087  0.00  0.00    +0.029 A 
ATOM     20  C   UNL     1      -4.579  -0.104  23.824  0.00  0.00    +0.029 A 
ATOM     23  C   UNL     1      -3.376  -1.434  25.961  0.00  0.00    +0.005 A 
ATOM     24  C   UNL     1      -4.222  -1.447  23.699  0.00  0.00    +0.005 A 
ATOM     25  C   UNL     1      -3.621  -2.113  24.768  0.00  0.00    -0.050 A 
ATOM     26  C   UNL     1      -3.240  -3.548  24.634  0.00  0.00    +0.044 C 
ENDBRANCH   1  17
ENDBRANCH   7   1
ENDBRANCH  14   7
ENDBRANCH  12  14
TORSDOF 8
ENDMDL
MODEL 6
REMARK VINA RESULT:      -2.8      1.441      2.077
REMARK  Name = 75536717
REMARK  10 active torsions:
REMARK  status: ('A' for Active; 'I' for Inactive)
REMARK    1  A    between atoms: S_1  and  N_7
REMARK    2  A    between atoms: S_1  and  C_17
REMARK    3  A    between atoms: O_3  and  C_11
REMARK    4  A    between atoms: N_6  and  C_10
REMARK    5  A    between atoms: N_6  and  C_15
REMARK    6  A    between atoms: N_7  and  C_14
REMARK    7  A    between atoms: N_8  and  C_21
REMARK    8  A    between atoms: C_12  and  C_14
REMARK    9  A    between atoms: C_15  and  C_16
REMARK   10  A    between atoms: C_25  and  C_26
REMARK                            x       y       z     vdW  Elec       q    Type
REMARK                         _______ _______ _______ _____ _____    ______ ____
ROOT
ATOM      2  O   UNL     1      -1.629   3.000  26.819  0.00  0.00    -0.371 OA
ATOM     10  C   UNL     1       0.043   3.364  25.171  0.00  0.00    +0.111 C 
ATOM     11  C   UNL     1      -1.242   4.039  24.730  0.00  0.00    +0.164 C 
ATOM     12  C   UNL     1      -1.976   4.169  26.058  0.00  0.00    +0.164 C 
ATOM     13  C   UNL     1      -0.474   2.389  26.218  0.00  0.00    +0.181 C 
ENDROOT
BRANCH  11   3
ATOM      3  O   UNL     1      -1.017   5.299  24.127  0.00  0.00    -0.388 OA
ATOM     28  H   UNL     1      -1.619   5.945  24.535  0.00  0.00    +0.210 HD
ENDBRANCH  11   3
BRANCH  10   6
ATOM      6  N   UNL     1       0.758   2.706  24.090  0.00  0.00    -0.302 NA
ATOM     27  H   UNL     1       1.667   3.153  23.970  0.00  0.00    +0.123 HD
BRANCH   6  15
ATOM     15  C   UNL     1       0.963   1.292  24.379  0.00  0.00    +0.156 C 
BRANCH  15  16
ATOM      8  N   UNL     1       2.490   0.396  22.591  0.00  0.00    -0.336 N 
ATOM      9  N   UNL     1       0.348  -0.169  22.427  0.00  0.00    -0.239 NA
ATOM     16  C   UNL     1       1.238   0.498  23.130  0.00  0.00    +0.123 A 
ATOM     18  C   UNL     1       2.392  -0.386  21.475  0.00  0.00    +0.106 A 
ATOM     21  C   UNL     1       3.703   0.996  23.095  0.00  0.00    +0.150 C 
ATOM     22  C   UNL     1       1.062  -0.722  21.394  0.00  0.00    +0.130 A 
ENDBRANCH  15  16
ENDBRANCH   6  15
ENDBRANCH  10   6
BRANCH  12  14
ATOM     14  C   UNL     1      -3.485   4.251  25.903  0.00  0.00    +0.140 C 
BRANCH  14   7
ATOM      7  N   UNL     1      -4.065   2.896  25.978  0.00  0.00    -0.187 NA
ATOM     29  H   UNL     1      -3.656   2.274  26.686  0.00  0.00    +0.148 HD
BRANCH   7   1
ATOM      1  S   UNL     1      -4.779   2.197  24.602  0.00  0.00    +0.058 S 
ATOM      4  O   UNL     1      -4.366   2.930  23.421  0.00  0.00    -0.153 OA
ATOM      5  O   UNL     1      -6.188   1.970  24.863  0.00  0.00    -0.153 OA
BRANCH   1  17
ATOM     17  C   UNL     1      -4.002   0.610  24.558  0.00  0.00    +0.105 A 
ATOM     19  C   UNL     1      -2.673   0.472  24.962  0.00  0.00    +0.029 A 
ATOM     20  C   UNL     1      -4.715  -0.505  24.116  0.00  0.00    +0.029 A 
ATOM     23  C   UNL     1      -2.059  -0.779  24.924  0.00  0.00    +0.005 A 
ATOM     24  C   UNL     1      -4.100  -1.756  24.078  0.00  0.00    +0.005 A 
ATOM     25  C   UNL     1      -2.771  -1.894  24.483  0.00  0.00    -0.050 A 
ATOM     26  C   UNL     1      -2.114  -3.231  24.443  0.00  0.00    +0.044 C 
ENDBRANCH   1  17
ENDBRANCH   7   1
ENDBRANCH  14   7
ENDBRANCH  12  14
TORSDOF 8
ENDMDL
MODEL 7
REMARK VINA RESULT:      -2.6      2.791      6.230
REMARK  Name = 75536717
REMARK  10 active torsions:
REMARK  status: ('A' for Active; 'I' for Inactive)
REMARK    1  A    between atoms: S_1  and  N_7
REMARK    2  A    between atoms: S_1  and  C_17
REMARK    3  A    between atoms: O_3  and  C_11
REMARK    4  A    between atoms: N_6  and  C_10
REMARK    5  A    between atoms: N_6  and  C_15
REMARK    6  A    between atoms: N_7  and  C_14
REMARK    7  A    between atoms: N_8  and  C_21
REMARK    8  A    between atoms: C_12  and  C_14
REMARK    9  A    between atoms: C_15  and  C_16
REMARK   10  A    between atoms: C_25  and  C_26
REMARK                            x       y       z     vdW  Elec       q    Type
REMARK                         _______ _______ _______ _____ _____    ______ ____
ROOT
ATOM      2  O   UNL     1      -0.339   4.579  24.213  0.00  0.00    -0.371 OA
ATOM     10  C   UNL     1      -1.430   3.947  26.225  0.00  0.00    +0.111 C 
ATOM     11  C   UNL     1      -0.941   2.699  25.516  0.00  0.00    +0.164 C 
ATOM     12  C   UNL     1       0.135   3.280  24.608  0.00  0.00    +0.164 C 
ATOM     13  C   UNL     1      -1.406   4.965  25.096  0.00  0.00    +0.181 C 
ENDROOT
BRANCH  11   3
ATOM      3  O   UNL     1      -0.414   1.735  26.407  0.00  0.00    -0.388 OA
ATOM     28  H   UNL     1       0.529   1.928  26.544  0.00  0.00    +0.210 HD
ENDBRANCH  11   3
BRANCH  10   6
ATOM      6  N   UNL     1      -2.746   3.800  26.826  0.00  0.00    -0.302 NA
ATOM     27  H   UNL     1      -2.789   4.358  27.678  0.00  0.00    +0.123 HD
BRANCH   6  15
ATOM     15  C   UNL     1      -3.793   4.246  25.916  0.00  0.00    +0.156 C 
BRANCH  15  16
ATOM      8  N   UNL     1      -4.728   2.468  24.401  0.00  0.00    -0.336 N 
ATOM      9  N   UNL     1      -5.722   2.700  26.373  0.00  0.00    -0.239 NA
ATOM     16  C   UNL     1      -4.762   3.141  25.590  0.00  0.00    +0.123 A 
ATOM     18  C   UNL     1      -5.730   1.539  24.428  0.00  0.00    +0.106 A 
ATOM     21  C   UNL     1      -3.810   2.684  23.308  0.00  0.00    +0.150 C 
ATOM     22  C   UNL     1      -6.329   1.702  25.654  0.00  0.00    +0.130 A 
ENDBRANCH  15  16
ENDBRANCH   6  15
ENDBRANCH  10   6
BRANCH  12  14
ATOM     14  C   UNL     1       0.401   2.434  23.376  0.00  0.00    +0.140 C 
BRANCH  14   7
ATOM      7  N   UNL     1       1.521   1.509  23.644  0.00  0.00    -0.187 NA
ATOM     29  H   UNL     1       2.445   1.945  23.747  0.00  0.00    +0.148 HD
BRANCH   7   1
ATOM      1  S   UNL     1       1.442  -0.103  23.106  0.00  0.00    +0.058 S 
ATOM      4  O   UNL     1       2.533  -0.858  23.690  0.00  0.00    -0.153 OA
ATOM      5  O   UNL     1       1.235  -0.113  21.671  0.00  0.00    -0.153 OA
BRANCH   1  17
ATOM     17  C   UNL     1      -0.063  -0.659  23.848  0.00  0.00    +0.105 A 
ATOM     19  C   UNL     1      -0.041  -1.703  24.772  0.00  0.00    +0.029 A 
ATOM     20  C   UNL     1      -1.274  -0.056  23.506  0.00  0.00    +0.029 A 
ATOM     23  C   UNL     1      -1.229  -2.144  25.355  0.00  0.00    +0.005 A 
ATOM     24  C   UNL     1      -2.461  -0.497  24.088  0.00  0.00    +0.005 A 
ATOM     25  C   UNL     1      -2.439  -1.542  25.014  0.00  0.00    -0.050 A 
ATOM     26  C   UNL     1      -3.709  -2.013  25.637  0.00  0.00    +0.044 C 
ENDBRANCH   1  17
ENDBRANCH   7   1
ENDBRANCH  14   7
ENDBRANCH  12  14
TORSDOF 8
ENDMDL
MODEL 8
REMARK VINA RESULT:      -2.5      3.182      6.685
REMARK  Name = 75536717
REMARK  10 active torsions:
REMARK  status: ('A' for Active; 'I' for Inactive)
REMARK    1  A    between atoms: S_1  and  N_7
REMARK    2  A    between atoms: S_1  and  C_17
REMARK    3  A    between atoms: O_3  and  C_11
REMARK    4  A    between atoms: N_6  and  C_10
REMARK    5  A    between atoms: N_6  and  C_15
REMARK    6  A    between atoms: N_7  and  C_14
REMARK    7  A    between atoms: N_8  and  C_21
REMARK    8  A    between atoms: C_12  and  C_14
REMARK    9  A    between atoms: C_15  and  C_16
REMARK   10  A    between atoms: C_25  and  C_26
REMARK                            x       y       z     vdW  Elec       q    Type
REMARK                         _______ _______ _______ _____ _____    ______ ____
ROOT
ATOM      2  O   UNL     1      -1.521  -1.130  26.383  0.00  0.00    -0.371 OA
ATOM     10  C   UNL     1      -3.535  -1.659  25.242  0.00  0.00    +0.111 C 
ATOM     11  C   UNL     1      -2.357  -1.993  24.346  0.00  0.00    +0.164 C 
ATOM     12  C   UNL     1      -1.235  -2.107  25.368  0.00  0.00    +0.164 C 
ATOM     13  C   UNL     1      -2.892  -0.718  26.248  0.00  0.00    +0.181 C 
ENDROOT
BRANCH  11   3
ATOM      3  O   UNL     1      -2.541  -3.197  23.628  0.00  0.00    -0.388 OA
ATOM     28  H   UNL     1      -2.530  -3.935  24.261  0.00  0.00    +0.210 HD
ENDBRANCH  11   3
BRANCH  10   6
ATOM      6  N   UNL     1      -4.654  -1.055  24.536  0.00  0.00    -0.302 NA
ATOM     27  H   UNL     1      -5.398  -0.849  25.202  0.00  0.00    +0.123 HD
BRANCH   6  15
ATOM     15  C   UNL     1      -4.253   0.183  23.878  0.00  0.00    +0.156 C 
BRANCH  15  16
ATOM      8  N   UNL     1      -4.509   2.668  24.176  0.00  0.00    -0.336 N 
ATOM      9  N   UNL     1      -5.493   1.389  25.702  0.00  0.00    -0.239 NA
ATOM     16  C   UNL     1      -4.765   1.396  24.607  0.00  0.00    +0.123 A 
ATOM     18  C   UNL     1      -5.111   3.526  25.052  0.00  0.00    +0.106 A 
ATOM     21  C   UNL     1      -3.746   3.052  23.012  0.00  0.00    +0.150 C 
ATOM     22  C   UNL     1      -5.712   2.714  25.985  0.00  0.00    +0.130 A 
ENDBRANCH  15  16
ENDBRANCH   6  15
ENDBRANCH  10   6
BRANCH  12  14
ATOM     14  C   UNL     1       0.141  -1.848  24.779  0.00  0.00    +0.140 C 
BRANCH  14   7
ATOM      7  N   UNL     1       0.522  -0.441  25.011  0.00  0.00    -0.187 NA
ATOM     29  H   UNL     1       0.248  -0.048  25.920  0.00  0.00    +0.148 HD
BRANCH   7   1
ATOM      1  S   UNL     1       0.707   0.620  23.694  0.00  0.00    +0.058 S 
ATOM      4  O   UNL     1      -0.042   0.113  22.560  0.00  0.00    -0.153 OA
ATOM      5  O   UNL     1       2.110   0.955  23.550  0.00  0.00    -0.153 OA
BRANCH   1  17
ATOM     17  C   UNL     1      -0.112   2.072  24.281  0.00  0.00    +0.105 A 
ATOM     19  C   UNL     1      -0.901   2.011  25.430  0.00  0.00    +0.029 A 
ATOM     20  C   UNL     1       0.027   3.278  23.594  0.00  0.00    +0.029 A 
ATOM     23  C   UNL     1      -1.550   3.156  25.892  0.00  0.00    +0.005 A 
ATOM     24  C   UNL     1      -0.622   4.422  24.056  0.00  0.00    +0.005 A 
ATOM     25  C   UNL     1      -1.411   4.362  25.206  0.00  0.00    -0.050 A 
ATOM     26  C   UNL     1      -2.105   5.586  25.700  0.00  0.00    +0.044 C 
ENDBRANCH   1  17
ENDBRANCH   7   1
ENDBRANCH  14   7
ENDBRANCH  12  14
TORSDOF 8
ENDMDL
MODEL 9
REMARK VINA RESULT:      -2.5      2.826      5.992
REMARK  Name = 75536717
REMARK  10 active torsions:
REMARK  status: ('A' for Active; 'I' for Inactive)
REMARK    1  A    between atoms: S_1  and  N_7
REMARK    2  A    between atoms: S_1  and  C_17
REMARK    3  A    between atoms: O_3  and  C_11
REMARK    4  A    between atoms: N_6  and  C_10
REMARK    5  A    between atoms: N_6  and  C_15
REMARK    6  A    between atoms: N_7  and  C_14
REMARK    7  A    between atoms: N_8  and  C_21
REMARK    8  A    between atoms: C_12  and  C_14
REMARK    9  A    between atoms: C_15  and  C_16
REMARK   10  A    between atoms: C_25  and  C_26
REMARK                            x       y       z     vdW  Elec       q    Type
REMARK                         _______ _______ _______ _____ _____    ______ ____
ROOT
ATOM      2  O   UNL     1      -0.264   3.924  23.811  0.00  0.00    -0.371 OA
ATOM     10  C   UNL     1      -1.327   4.217  25.914  0.00  0.00    +0.111 C 
ATOM     11  C   UNL     1      -0.790   2.801  25.825  0.00  0.00    +0.164 C 
ATOM     12  C   UNL     1       0.260   2.954  24.733  0.00  0.00    +0.164 C 
ATOM     13  C   UNL     1      -1.345   4.625  24.449  0.00  0.00    +0.181 C 
ENDROOT
BRANCH  11   3
ATOM      3  O   UNL     1      -0.224   2.354  27.042  0.00  0.00    -0.388 OA
ATOM     28  H   UNL     1       0.673   2.026  26.859  0.00  0.00    +0.210 HD
ENDBRANCH  11   3
BRANCH  10   6
ATOM      6  N   UNL     1      -2.635   4.307  26.543  0.00  0.00    -0.302 NA
ATOM     27  H   UNL     1      -2.628   5.068  27.222  0.00  0.00    +0.123 HD
BRANCH   6  15
ATOM     15  C   UNL     1      -3.676   4.565  25.556  0.00  0.00    +0.156 C 
BRANCH  15  16
ATOM      8  N   UNL     1      -4.741   2.588  24.421  0.00  0.00    -0.336 N 
ATOM      9  N   UNL     1      -5.571   3.147  26.403  0.00  0.00    -0.239 NA
ATOM     16  C   UNL     1      -4.674   3.441  25.487  0.00  0.00    +0.123 A 
ATOM     18  C   UNL     1      -5.742   1.694  24.673  0.00  0.00    +0.106 A 
ATOM     21  C   UNL     1      -3.912   2.612  23.238  0.00  0.00    +0.150 C 
ATOM     22  C   UNL     1      -6.240   2.059  25.901  0.00  0.00    +0.130 A 
ENDBRANCH  15  16
ENDBRANCH   6  15
ENDBRANCH  10   6
BRANCH  12  14
ATOM     14  C   UNL     1       0.558   1.657  24.002  0.00  0.00    +0.140 C 
BRANCH  14   7
ATOM      7  N   UNL     1      -0.622   0.773  24.061  0.00  0.00    -0.187 NA
ATOM     29  H   UNL     1      -1.529   1.226  23.891  0.00  0.00    +0.148 HD
BRANCH   7   1
ATOM      1  S   UNL     1      -0.587  -0.633  25.018  0.00  0.00    +0.058 S 
ATOM      4  O   UNL     1      -0.724  -0.267  26.415  0.00  0.00    -0.153 OA
ATOM      5  O   UNL     1       0.516  -1.470  24.589  0.00  0.00    -0.153 OA
BRANCH   1  17
ATOM     17  C   UNL     1      -2.076  -1.446  24.521  0.00  0.00    +0.105 A 
ATOM     19  C   UNL     1      -3.200  -0.695  24.177  0.00  0.00    +0.029 A 
ATOM     20  C   UNL     1      -2.128  -2.840  24.476  0.00  0.00    +0.029 A 
ATOM     23  C   UNL     1      -4.375  -1.337  23.787  0.00  0.00    +0.005 A 
ATOM     24  C   UNL     1      -3.303  -3.481  24.087  0.00  0.00    +0.005 A 
ATOM     25  C   UNL     1      -4.428  -2.730  23.742  0.00  0.00    -0.050 A 
ATOM     26  C   UNL     1      -5.685  -3.415  23.325  0.00  0.00    +0.044 C 
ENDBRANCH   1  17
ENDBRANCH   7   1
ENDBRANCH  14   7
ENDBRANCH  12  14
TORSDOF 8
ENDMDL
MODEL 10
REMARK VINA RESULT:      -2.5      2.568      6.877
REMARK  Name = 75536717
REMARK  10 active torsions:
REMARK  status: ('A' for Active; 'I' for Inactive)
REMARK    1  A    between atoms: S_1  and  N_7
REMARK    2  A    between atoms: S_1  and  C_17
REMARK    3  A    between atoms: O_3  and  C_11
REMARK    4  A    between atoms: N_6  and  C_10
REMARK    5  A    between atoms: N_6  and  C_15
REMARK    6  A    between atoms: N_7  and  C_14
REMARK    7  A    between atoms: N_8  and  C_21
REMARK    8  A    between atoms: C_12  and  C_14
REMARK    9  A    between atoms: C_15  and  C_16
REMARK   10  A    between atoms: C_25  and  C_26
REMARK                            x       y       z     vdW  Elec       q    Type
REMARK                         _______ _______ _______ _____ _____    ______ ____
ROOT
ATOM      2  O   UNL     1      -1.720   1.956  22.702  0.00  0.00    -0.371 OA
ATOM     10  C   UNL     1      -3.664   2.342  24.011  0.00  0.00    +0.111 C 
ATOM     11  C   UNL     1      -2.452   2.319  24.922  0.00  0.00    +0.164 C 
ATOM     12  C   UNL     1      -1.333   2.599  23.928  0.00  0.00    +0.164 C 
ATOM     13  C   UNL     1      -3.123   1.647  22.771  0.00  0.00    +0.181 C 
ENDROOT
BRANCH  11   3
ATOM      3  O   UNL     1      -2.513   3.302  25.938  0.00  0.00    -0.388 OA
ATOM     28  H   UNL     1      -1.605   3.577  26.152  0.00  0.00    +0.210 HD
ENDBRANCH  11   3
BRANCH  10   6
ATOM      6  N   UNL     1      -4.829   1.675  24.570  0.00  0.00    -0.302 NA
ATOM     27  H   UNL     1      -5.336   1.204  23.821  0.00  0.00    +0.123 HD
BRANCH   6  15
ATOM     15  C   UNL     1      -4.440   0.689  25.570  0.00  0.00    +0.156 C 
BRANCH  15  16
ATOM      8  N   UNL     1      -2.882  -1.262  25.253  0.00  0.00    -0.336 N 
ATOM      9  N   UNL     1      -4.752  -1.293  24.055  0.00  0.00    -0.239 NA
ATOM     16  C   UNL     1      -4.050  -0.623  24.942  0.00  0.00    +0.123 A 
ATOM     18  C   UNL     1      -2.837  -2.412  24.517  0.00  0.00    +0.106 A 
ATOM     21  C   UNL     1      -1.872  -0.818  26.184  0.00  0.00    +0.150 C 
ATOM     22  C   UNL     1      -4.001  -2.409  23.785  0.00  0.00    +0.130 A 
ENDBRANCH  15  16
ENDBRANCH   6  15
ENDBRANCH  10   6
BRANCH  12  14
ATOM     14  C   UNL     1       0.017   2.071  24.381  0.00  0.00    +0.140 C 
BRANCH  14   7
ATOM      7  N   UNL     1       0.797   1.633  23.207  0.00  0.00    -0.187 NA
ATOM     29  H   UNL     1       0.770   2.260  22.393  0.00  0.00    +0.148 HD
BRANCH   7   1
ATOM      1  S   UNL     1       1.081  -0.023  22.941  0.00  0.00    +0.058 S 
ATOM      4  O   UNL     1       0.784  -0.347  21.559  0.00  0.00    -0.153 OA
ATOM      5  O   UNL     1       0.473  -0.785  24.015  0.00  0.00    -0.153 OA
BRANCH   1  17
ATOM     17  C   UNL     1       2.831  -0.130  23.162  0.00  0.00    +0.105 A 
ATOM     19  C   UNL     1       3.643   0.957  22.834  0.00  0.00    +0.029 A 
ATOM     20  C   UNL     1       3.402  -1.301  23.659  0.00  0.00    +0.029 A 
ATOM     23  C   UNL     1       5.025   0.872  23.005  0.00  0.00    +0.005 A 
ATOM     24  C   UNL     1       4.784  -1.386  23.829  0.00  0.00    +0.005 A 
ATOM     25  C   UNL     1       5.596  -0.299  23.502  0.00  0.00    -0.050 A 
ATOM     26  C   UNL     1       7.073  -0.389  23.685  0.00  0.00    +0.044 C 
ENDBRANCH   1  17
ENDBRANCH   7   1
ENDBRANCH  14   7
ENDBRANCH  12  14
TORSDOF 8
ENDMDL
