MODEL 1
REMARK VINA RESULT:      -3.8      0.000      0.000
REMARK  Name = 45360841
REMARK  8 active torsions:
REMARK  status: ('A' for Active; 'I' for Inactive)
REMARK    1  A    between atoms: N_4  and  C_15
REMARK    2  A    between atoms: N_5  and  C_17
REMARK    3  A    between atoms: N_7  and  C_26
REMARK    4  A    between atoms: C_12  and  C_16
REMARK    5  A    between atoms: C_15  and  C_19
REMARK    6  A    between atoms: C_16  and  C_18
REMARK    7  A    between atoms: C_18  and  C_20
REMARK    8  A    between atoms: C_26  and  C_27
REMARK                            x       y       z     vdW  Elec       q    Type
REMARK                         _______ _______ _______ _____ _____    ______ ____
ROOT
ATOM      1  O   UNL     1      -0.399   1.908  23.872  0.00  0.00    -0.274 OA
ATOM      4  N   UNL     1       0.488  -0.642  23.877  0.00  0.00    -0.286 NA
ATOM      5  N   UNL     1      -2.871  -0.691  25.327  0.00  0.00    -0.296 NA
ATOM      6  N   UNL     1      -2.557   1.371  23.333  0.00  0.00    -0.312 N 
ATOM      8  C   UNL     1      -1.725  -1.306  24.623  0.00  0.00    +0.084 C 
ATOM      9  C   UNL     1      -0.944  -0.447  23.585  0.00  0.00    +0.161 C 
ATOM     10  C   UNL     1      -0.598  -1.779  25.559  0.00  0.00    +0.036 C 
ATOM     11  C   UNL     1       0.603  -1.879  24.643  0.00  0.00    +0.087 C 
ATOM     12  C   UNL     1      -4.005  -0.307  24.440  0.00  0.00    +0.074 C 
ATOM     13  C   UNL     1      -1.245   1.049  23.630  0.00  0.00    +0.232 C 
ATOM     14  C   UNL     1      -3.594   0.380  23.123  0.00  0.00    +0.123 C 
ATOM     17  C   UNL     1      -3.348  -1.563  26.414  0.00  0.00    +0.105 C 
ATOM     31  H   UNL     1      -2.818   2.352  23.322  0.00  0.00    +0.149 HD
ENDROOT
BRANCH   4  15
ATOM     15  C   UNL     1       1.324  -0.656  22.684  0.00  0.00    +0.120 C 
BRANCH  15  19
ATOM     19  C   UNL     1       2.771  -0.393  23.009  0.00  0.00    -0.033 A 
ATOM     21  C   UNL     1       3.553  -1.402  23.570  0.00  0.00    +0.005 A 
ATOM     22  C   UNL     1       3.329   0.859  22.749  0.00  0.00    +0.005 A 
ATOM     23  C   UNL     1       4.893  -1.159  23.872  0.00  0.00    +0.000 A 
ATOM     24  C   UNL     1       4.668   1.102  23.051  0.00  0.00    +0.000 A 
ATOM     25  C   UNL     1       5.451   0.093  23.612  0.00  0.00    +0.000 A 
ENDBRANCH  15  19
ENDBRANCH   4  15
BRANCH  12  16
ATOM     16  C   UNL     1      -4.970   0.644  25.179  0.00  0.00    +0.029 C 
BRANCH  16  18
ATOM     18  C   UNL     1      -5.407   1.778  24.268  0.00  0.00    +0.097 C 
BRANCH  18  20
ATOM      2  O   UNL     1      -4.345   3.881  23.707  0.00  0.00    -0.276 OA
ATOM      7  N   UNL     1      -4.357   3.176  25.919  0.00  0.00    -0.308 N 
ATOM     20  C   UNL     1      -4.651   3.059  24.568  0.00  0.00    +0.213 C 
ATOM     32  H   UNL     1      -4.666   2.453  26.563  0.00  0.00    +0.149 HD
BRANCH   7  26
ATOM     26  C   UNL     1      -3.642   4.308  26.457  0.00  0.00    +0.178 C 
BRANCH  26  27
ATOM      3  O   UNL     1      -1.369   3.489  26.149  0.00  0.00    -0.466 OA
ATOM     27  C   UNL     1      -2.276   4.453  25.841  0.00  0.00    +0.122 A 
ATOM     28  C   UNL     1      -1.719   5.388  24.998  0.00  0.00    +0.046 A 
ATOM     29  C   UNL     1      -0.386   4.970  24.774  0.00  0.00    +0.041 A 
ATOM     30  C   UNL     1      -0.222   3.811  25.496  0.00  0.00    +0.195 A 
ENDBRANCH  26  27
ENDBRANCH   7  26
ENDBRANCH  18  20
ENDBRANCH  16  18
ENDBRANCH  12  16
TORSDOF 7
ENDMDL
MODEL 2
REMARK VINA RESULT:      -2.8      1.783      6.678
REMARK  Name = 45360841
REMARK  8 active torsions:
REMARK  status: ('A' for Active; 'I' for Inactive)
REMARK    1  A    between atoms: N_4  and  C_15
REMARK    2  A    between atoms: N_5  and  C_17
REMARK    3  A    between atoms: N_7  and  C_26
REMARK    4  A    between atoms: C_12  and  C_16
REMARK    5  A    between atoms: C_15  and  C_19
REMARK    6  A    between atoms: C_16  and  C_18
REMARK    7  A    between atoms: C_18  and  C_20
REMARK    8  A    between atoms: C_26  and  C_27
REMARK                            x       y       z     vdW  Elec       q    Type
REMARK                         _______ _______ _______ _____ _____    ______ ____
ROOT
ATOM      1  O   UNL     1      -2.841   2.184  22.516  0.00  0.00    -0.274 OA
ATOM      4  N   UNL     1      -4.743   1.586  24.338  0.00  0.00    -0.286 NA
ATOM      5  N   UNL     1      -2.218  -1.055  24.543  0.00  0.00    -0.296 NA
ATOM      6  N   UNL     1      -1.090   1.500  23.821  0.00  0.00    -0.312 N 
ATOM      8  C   UNL     1      -3.311  -0.222  25.094  0.00  0.00    +0.084 C 
ATOM      9  C   UNL     1      -3.350   1.289  24.722  0.00  0.00    +0.161 C 
ATOM     10  C   UNL     1      -4.719  -0.690  24.683  0.00  0.00    +0.036 C 
ATOM     11  C   UNL     1      -5.577   0.536  24.910  0.00  0.00    +0.087 C 
ATOM     12  C   UNL     1      -0.855  -0.664  25.002  0.00  0.00    +0.074 C 
ATOM     13  C   UNL     1      -2.435   1.695  23.569  0.00  0.00    +0.232 C 
ATOM     14  C   UNL     1      -0.586   0.853  25.016  0.00  0.00    +0.123 C 
ATOM     17  C   UNL     1      -2.458  -2.482  24.817  0.00  0.00    +0.105 C 
ATOM     31  H   UNL     1      -0.424   1.772  23.103  0.00  0.00    +0.149 HD
ENDROOT
BRANCH   4  15
ATOM     15  C   UNL     1      -5.181   2.917  24.739  0.00  0.00    +0.120 C 
BRANCH  15  19
ATOM     19  C   UNL     1      -4.021   3.859  24.920  0.00  0.00    -0.033 A 
ATOM     21  C   UNL     1      -3.227   3.774  26.064  0.00  0.00    +0.005 A 
ATOM     22  C   UNL     1      -3.738   4.815  23.944  0.00  0.00    +0.005 A 
ATOM     23  C   UNL     1      -2.152   4.647  26.233  0.00  0.00    +0.000 A 
ATOM     24  C   UNL     1      -2.663   5.686  24.113  0.00  0.00    +0.000 A 
ATOM     25  C   UNL     1      -1.870   5.603  25.257  0.00  0.00    +0.000 A 
ENDBRANCH  15  19
ENDBRANCH   4  15
BRANCH  12  16
ATOM     16  C   UNL     1       0.222  -1.319  24.112  0.00  0.00    +0.029 C 
BRANCH  16  18
ATOM     18  C   UNL     1       0.067  -0.874  22.669  0.00  0.00    +0.097 C 
BRANCH  18  20
ATOM      2  O   UNL     1       1.751  -0.498  20.970  0.00  0.00    -0.276 OA
ATOM      7  N   UNL     1       2.031   0.455  23.069  0.00  0.00    -0.308 N 
ATOM     20  C   UNL     1       1.361  -0.302  22.118  0.00  0.00    +0.213 C 
ATOM     32  H   UNL     1       1.622   0.577  23.991  0.00  0.00    +0.149 HD
BRANCH   7  26
ATOM     26  C   UNL     1       3.289   1.105  22.789  0.00  0.00    +0.178 C 
BRANCH  26  27
ATOM      3  O   UNL     1       4.229  -1.000  23.571  0.00  0.00    -0.466 OA
ATOM     27  C   UNL     1       4.457   0.314  23.313  0.00  0.00    +0.122 A 
ATOM     28  C   UNL     1       5.762   0.643  23.602  0.00  0.00    +0.046 A 
ATOM     29  C   UNL     1       6.373  -0.546  24.066  0.00  0.00    +0.041 A 
ATOM     30  C   UNL     1       5.399  -1.516  24.028  0.00  0.00    +0.195 A 
ENDBRANCH  26  27
ENDBRANCH   7  26
ENDBRANCH  18  20
ENDBRANCH  16  18
ENDBRANCH  12  16
TORSDOF 7
ENDMDL
MODEL 3
REMARK VINA RESULT:      -1.5      1.424      2.186
REMARK  Name = 45360841
REMARK  8 active torsions:
REMARK  status: ('A' for Active; 'I' for Inactive)
REMARK    1  A    between atoms: N_4  and  C_15
REMARK    2  A    between atoms: N_5  and  C_17
REMARK    3  A    between atoms: N_7  and  C_26
REMARK    4  A    between atoms: C_12  and  C_16
REMARK    5  A    between atoms: C_15  and  C_19
REMARK    6  A    between atoms: C_16  and  C_18
REMARK    7  A    between atoms: C_18  and  C_20
REMARK    8  A    between atoms: C_26  and  C_27
REMARK                            x       y       z     vdW  Elec       q    Type
REMARK                         _______ _______ _______ _____ _____    ______ ____
ROOT
ATOM      1  O   UNL     1      -1.533  -2.723  23.647  0.00  0.00    -0.274 OA
ATOM      4  N   UNL     1       0.259  -0.706  23.540  0.00  0.00    -0.286 NA
ATOM      5  N   UNL     1      -3.056   0.834  23.715  0.00  0.00    -0.296 NA
ATOM      6  N   UNL     1      -2.927  -1.677  25.129  0.00  0.00    -0.312 N 
ATOM      8  C   UNL     1      -1.590   0.823  23.913  0.00  0.00    +0.084 C 
ATOM      9  C   UNL     1      -0.918  -0.493  24.403  0.00  0.00    +0.161 C 
ATOM     10  C   UNL     1      -0.785   1.137  22.638  0.00  0.00    +0.036 C 
ATOM     11  C   UNL     1       0.590   0.584  22.943  0.00  0.00    +0.087 C 
ATOM     12  C   UNL     1      -3.847   0.617  24.959  0.00  0.00    +0.074 C 
ATOM     13  C   UNL     1      -1.802  -1.736  24.328  0.00  0.00    +0.232 C 
ATOM     14  C   UNL     1      -3.314  -0.499  25.879  0.00  0.00    +0.123 C 
ATOM     17  C   UNL     1      -3.486   2.077  23.050  0.00  0.00    +0.105 C 
ATOM     31  H   UNL     1      -3.547  -2.482  25.143  0.00  0.00    +0.149 HD
ENDROOT
BRANCH   4  15
ATOM     15  C   UNL     1       1.392  -1.293  24.243  0.00  0.00    +0.120 C 
BRANCH  15  19
ATOM     19  C   UNL     1       2.703  -0.729  23.762  0.00  0.00    -0.033 A 
ATOM     21  C   UNL     1       3.895  -1.395  24.048  0.00  0.00    +0.005 A 
ATOM     22  C   UNL     1       2.726   0.459  23.031  0.00  0.00    +0.005 A 
ATOM     23  C   UNL     1       5.110  -0.873  23.604  0.00  0.00    +0.000 A 
ATOM     24  C   UNL     1       3.940   0.981  22.587  0.00  0.00    +0.000 A 
ATOM     25  C   UNL     1       5.132   0.316  22.873  0.00  0.00    +0.000 A 
ENDBRANCH  15  19
ENDBRANCH   4  15
BRANCH  12  16
ATOM     16  C   UNL     1      -5.311   0.274  24.614  0.00  0.00    +0.029 C 
BRANCH  16  18
ATOM     18  C   UNL     1      -6.218   1.461  24.884  0.00  0.00    +0.097 C 
BRANCH  18  20
ATOM      2  O   UNL     1      -5.973   2.433  27.089  0.00  0.00    -0.276 OA
ATOM      7  N   UNL     1      -4.631   3.204  25.358  0.00  0.00    -0.308 N 
ATOM     20  C   UNL     1      -5.617   2.401  25.913  0.00  0.00    +0.213 C 
ATOM     32  H   UNL     1      -4.390   3.095  24.376  0.00  0.00    +0.149 HD
BRANCH   7  26
ATOM     26  C   UNL     1      -3.908   4.184  26.133  0.00  0.00    +0.178 C 
BRANCH  26  27
ATOM      3  O   UNL     1      -1.672   3.224  26.052  0.00  0.00    -0.466 OA
ATOM     27  C   UNL     1      -2.465   4.275  25.716  0.00  0.00    +0.122 A 
ATOM     28  C   UNL     1      -1.740   5.230  25.041  0.00  0.00    +0.046 A 
ATOM     29  C   UNL     1      -0.418   4.734  24.957  0.00  0.00    +0.041 A 
ATOM     30  C   UNL     1      -0.429   3.511  25.586  0.00  0.00    +0.195 A 
ENDBRANCH  26  27
ENDBRANCH   7  26
ENDBRANCH  18  20
ENDBRANCH  16  18
ENDBRANCH  12  16
TORSDOF 7
ENDMDL
MODEL 4
REMARK VINA RESULT:      -1.0      1.763      4.055
REMARK  Name = 45360841
REMARK  8 active torsions:
REMARK  status: ('A' for Active; 'I' for Inactive)
REMARK    1  A    between atoms: N_4  and  C_15
REMARK    2  A    between atoms: N_5  and  C_17
REMARK    3  A    between atoms: N_7  and  C_26
REMARK    4  A    between atoms: C_12  and  C_16
REMARK    5  A    between atoms: C_15  and  C_19
REMARK    6  A    between atoms: C_16  and  C_18
REMARK    7  A    between atoms: C_18  and  C_20
REMARK    8  A    between atoms: C_26  and  C_27
REMARK                            x       y       z     vdW  Elec       q    Type
REMARK                         _______ _______ _______ _____ _____    ______ ____
ROOT
ATOM      1  O   UNL     1      -0.972   0.046  26.495  0.00  0.00    -0.274 OA
ATOM      4  N   UNL     1      -0.159  -0.535  23.987  0.00  0.00    -0.286 NA
ATOM      5  N   UNL     1      -1.738   2.763  23.847  0.00  0.00    -0.296 NA
ATOM      6  N   UNL     1      -0.435   2.267  26.373  0.00  0.00    -0.312 N 
ATOM      8  C   UNL     1      -0.810   1.718  23.360  0.00  0.00    +0.084 C 
ATOM      9  C   UNL     1      -0.030   0.872  24.409  0.00  0.00    +0.161 C 
ATOM     10  C   UNL     1      -1.489   0.627  22.511  0.00  0.00    +0.036 C 
ATOM     11  C   UNL     1      -0.512  -0.526  22.571  0.00  0.00    +0.087 C 
ATOM     12  C   UNL     1      -1.079   3.870  24.597  0.00  0.00    +0.074 C 
ATOM     13  C   UNL     1      -0.538   0.994  25.843  0.00  0.00    +0.232 C 
ATOM     14  C   UNL     1      -0.004   3.419  25.606  0.00  0.00    +0.123 C 
ATOM     17  C   UNL     1      -2.542   3.308  22.739  0.00  0.00    +0.105 C 
ATOM     31  H   UNL     1      -0.735   2.411  27.333  0.00  0.00    +0.149 HD
ENDROOT
BRANCH   4  15
ATOM     15  C   UNL     1       1.035  -1.328  24.251  0.00  0.00    +0.120 C 
BRANCH  15  19
ATOM     19  C   UNL     1       2.280  -0.656  23.736  0.00  0.00    -0.033 A 
ATOM     21  C   UNL     1       2.194   0.594  23.124  0.00  0.00    +0.005 A 
ATOM     22  C   UNL     1       3.519  -1.282  23.873  0.00  0.00    +0.005 A 
ATOM     23  C   UNL     1       3.347   1.217  22.646  0.00  0.00    +0.000 A 
ATOM     24  C   UNL     1       4.671  -0.659  23.396  0.00  0.00    +0.000 A 
ATOM     25  C   UNL     1       4.586   0.590  22.783  0.00  0.00    +0.000 A 
ENDBRANCH  15  19
ENDBRANCH   4  15
BRANCH  12  16
ATOM     16  C   UNL     1      -2.128   4.694  25.373  0.00  0.00    +0.029 C 
BRANCH  16  18
ATOM     18  C   UNL     1      -2.865   3.819  26.372  0.00  0.00    +0.097 C 
BRANCH  18  20
ATOM      2  O   UNL     1      -5.083   3.712  25.405  0.00  0.00    -0.276 OA
ATOM      7  N   UNL     1      -3.832   1.764  25.581  0.00  0.00    -0.308 N 
ATOM     20  C   UNL     1      -4.056   3.125  25.735  0.00  0.00    +0.213 C 
ATOM     32  H   UNL     1      -2.941   1.367  25.868  0.00  0.00    +0.149 HD
BRANCH   7  26
ATOM     26  C   UNL     1      -4.816   0.883  24.999  0.00  0.00    +0.178 C 
BRANCH  26  27
ATOM      3  O   UNL     1      -3.608  -1.037  25.886  0.00  0.00    -0.466 OA
ATOM     27  C   UNL     1      -4.285  -0.516  24.829  0.00  0.00    +0.122 A 
ATOM     28  C   UNL     1      -4.336  -1.421  23.795  0.00  0.00    +0.046 A 
ATOM     29  C   UNL     1      -3.647  -2.572  24.245  0.00  0.00    +0.041 A 
ATOM     30  C   UNL     1      -3.224  -2.288  25.523  0.00  0.00    +0.195 A 
ENDBRANCH  26  27
ENDBRANCH   7  26
ENDBRANCH  18  20
ENDBRANCH  16  18
ENDBRANCH  12  16
TORSDOF 7
ENDMDL
MODEL 5
REMARK VINA RESULT:      -0.2      1.632      2.636
REMARK  Name = 45360841
REMARK  8 active torsions:
REMARK  status: ('A' for Active; 'I' for Inactive)
REMARK    1  A    between atoms: N_4  and  C_15
REMARK    2  A    between atoms: N_5  and  C_17
REMARK    3  A    between atoms: N_7  and  C_26
REMARK    4  A    between atoms: C_12  and  C_16
REMARK    5  A    between atoms: C_15  and  C_19
REMARK    6  A    between atoms: C_16  and  C_18
REMARK    7  A    between atoms: C_18  and  C_20
REMARK    8  A    between atoms: C_26  and  C_27
REMARK                            x       y       z     vdW  Elec       q    Type
REMARK                         _______ _______ _______ _____ _____    ______ ____
ROOT
ATOM      1  O   UNL     1      -0.998  -0.804  21.908  0.00  0.00    -0.274 OA
ATOM      4  N   UNL     1       1.172   0.535  22.796  0.00  0.00    -0.286 NA
ATOM      5  N   UNL     1      -1.200   0.404  25.579  0.00  0.00    -0.296 NA
ATOM      6  N   UNL     1      -1.368  -1.916  23.873  0.00  0.00    -0.312 N 
ATOM      8  C   UNL     1       0.157   0.517  25.001  0.00  0.00    +0.084 C 
ATOM      9  C   UNL     1       0.511  -0.360  23.764  0.00  0.00    +0.161 C 
ATOM     10  C   UNL     1       0.508   1.931  24.502  0.00  0.00    +0.036 C 
ATOM     11  C   UNL     1       1.654   1.692  23.543  0.00  0.00    +0.087 C 
ATOM     12  C   UNL     1      -1.520  -0.938  26.144  0.00  0.00    +0.074 C 
ATOM     13  C   UNL     1      -0.682  -1.018  23.076  0.00  0.00    +0.232 C 
ATOM     14  C   UNL     1      -1.071  -2.129  25.275  0.00  0.00    +0.123 C 
ATOM     17  C   UNL     1      -1.427   1.449  26.592  0.00  0.00    +0.105 C 
ATOM     31  H   UNL     1      -2.160  -2.407  23.468  0.00  0.00    +0.149 HD
ENDROOT
BRANCH   4  15
ATOM     15  C   UNL     1       2.236  -0.114  22.042  0.00  0.00    +0.120 C 
BRANCH  15  19
ATOM     19  C   UNL     1       3.513  -0.201  22.836  0.00  0.00    -0.033 A 
ATOM     21  C   UNL     1       3.852  -1.389  23.483  0.00  0.00    +0.005 A 
ATOM     22  C   UNL     1       4.358   0.906  22.923  0.00  0.00    +0.005 A 
ATOM     23  C   UNL     1       5.034  -1.470  24.219  0.00  0.00    +0.000 A 
ATOM     24  C   UNL     1       5.539   0.825  23.658  0.00  0.00    +0.000 A 
ATOM     25  C   UNL     1       5.878  -0.362  24.306  0.00  0.00    +0.000 A 
ENDBRANCH  15  19
ENDBRANCH   4  15
BRANCH  12  16
ATOM     16  C   UNL     1      -3.039  -1.077  26.375  0.00  0.00    +0.029 C 
BRANCH  16  18
ATOM     18  C   UNL     1      -3.791  -0.993  25.058  0.00  0.00    +0.097 C 
BRANCH  18  20
ATOM      2  O   UNL     1      -5.313   0.869  25.341  0.00  0.00    -0.276 OA
ATOM      7  N   UNL     1      -3.517   1.087  23.885  0.00  0.00    -0.308 N 
ATOM     20  C   UNL     1      -4.310   0.409  24.799  0.00  0.00    +0.213 C 
ATOM     32  H   UNL     1      -2.694   0.631  23.500  0.00  0.00    +0.149 HD
BRANCH   7  26
ATOM     26  C   UNL     1      -3.803   2.440  23.471  0.00  0.00    +0.178 C 
BRANCH  26  27
ATOM      3  O   UNL     1      -2.044   3.944  24.227  0.00  0.00    -0.466 OA
ATOM     27  C   UNL     1      -3.288   3.450  24.461  0.00  0.00    +0.122 A 
ATOM     28  C   UNL     1      -3.822   4.007  25.600  0.00  0.00    +0.046 A 
ATOM     29  C   UNL     1      -2.844   4.900  26.097  0.00  0.00    +0.041 A 
ATOM     30  C   UNL     1      -1.781   4.826  25.227  0.00  0.00    +0.195 A 
ENDBRANCH  26  27
ENDBRANCH   7  26
ENDBRANCH  18  20
ENDBRANCH  16  18
ENDBRANCH  12  16
TORSDOF 7
ENDMDL
MODEL 6
REMARK VINA RESULT:      -0.0      1.867      3.439
REMARK  Name = 45360841
REMARK  8 active torsions:
REMARK  status: ('A' for Active; 'I' for Inactive)
REMARK    1  A    between atoms: N_4  and  C_15
REMARK    2  A    between atoms: N_5  and  C_17
REMARK    3  A    between atoms: N_7  and  C_26
REMARK    4  A    between atoms: C_12  and  C_16
REMARK    5  A    between atoms: C_15  and  C_19
REMARK    6  A    between atoms: C_16  and  C_18
REMARK    7  A    between atoms: C_18  and  C_20
REMARK    8  A    between atoms: C_26  and  C_27
REMARK                            x       y       z     vdW  Elec       q    Type
REMARK                         _______ _______ _______ _____ _____    ______ ____
ROOT
ATOM      1  O   UNL     1       1.414   2.517  24.380  0.00  0.00    -0.274 OA
ATOM      4  N   UNL     1       0.889  -0.089  23.908  0.00  0.00    -0.286 NA
ATOM      5  N   UNL     1      -2.153   1.358  25.338  0.00  0.00    -0.296 NA
ATOM      6  N   UNL     1      -0.660   3.257  23.760  0.00  0.00    -0.312 N 
ATOM      8  C   UNL     1      -1.414   0.365  24.527  0.00  0.00    +0.084 C 
ATOM      9  C   UNL     1      -0.216   0.858  23.663  0.00  0.00    +0.161 C 
ATOM     10  C   UNL     1      -0.771  -0.763  25.355  0.00  0.00    +0.036 C 
ATOM     11  C   UNL     1       0.294  -1.314  24.431  0.00  0.00    +0.087 C 
ATOM     12  C   UNL     1      -2.852   2.406  24.543  0.00  0.00    +0.074 C 
ATOM     13  C   UNL     1       0.277   2.266  23.986  0.00  0.00    +0.232 C 
ATOM     14  C   UNL     1      -2.031   2.987  23.374  0.00  0.00    +0.123 C 
ATOM     17  C   UNL     1      -3.102   0.691  26.247  0.00  0.00    +0.105 C 
ATOM     31  H   UNL     1      -0.389   4.220  23.933  0.00  0.00    +0.149 HD
ENDROOT
BRANCH   4  15
ATOM     15  C   UNL     1       1.709  -0.337  22.729  0.00  0.00    +0.120 C 
BRANCH  15  19
ATOM     19  C   UNL     1       3.179  -0.302  23.051  0.00  0.00    -0.033 A 
ATOM     21  C   UNL     1       3.792  -1.413  23.632  0.00  0.00    +0.005 A 
ATOM     22  C   UNL     1       3.930   0.840  22.768  0.00  0.00    +0.005 A 
ATOM     23  C   UNL     1       5.154  -1.381  23.931  0.00  0.00    +0.000 A 
ATOM     24  C   UNL     1       5.291   0.871  23.067  0.00  0.00    +0.000 A 
ATOM     25  C   UNL     1       5.903  -0.239  23.649  0.00  0.00    +0.000 A 
ENDBRANCH  15  19
ENDBRANCH   4  15
BRANCH  12  16
ATOM     16  C   UNL     1      -3.267   3.584  25.449  0.00  0.00    +0.029 C 
BRANCH  16  18
ATOM     18  C   UNL     1      -4.765   3.820  25.369  0.00  0.00    +0.097 C 
BRANCH  18  20
ATOM      2  O   UNL     1      -6.298   2.381  26.569  0.00  0.00    -0.276 OA
ATOM      7  N   UNL     1      -5.301   1.598  24.624  0.00  0.00    -0.308 N 
ATOM     20  C   UNL     1      -5.546   2.542  25.611  0.00  0.00    +0.213 C 
ATOM     32  H   UNL     1      -4.675   1.826  23.857  0.00  0.00    +0.149 HD
BRANCH   7  26
ATOM     26  C   UNL     1      -5.926   0.297  24.630  0.00  0.00    +0.178 C 
BRANCH  26  27
ATOM      3  O   UNL     1      -4.436  -1.376  25.585  0.00  0.00    -0.466 OA
ATOM     27  C   UNL     1      -4.921  -0.809  24.449  0.00  0.00    +0.122 A 
ATOM     28  C   UNL     1      -4.360  -1.397  23.338  0.00  0.00    +0.046 A 
ATOM     29  C   UNL     1      -3.475  -2.389  23.824  0.00  0.00    +0.041 A 
ATOM     30  C   UNL     1      -3.558  -2.336  25.195  0.00  0.00    +0.195 A 
ENDBRANCH  26  27
ENDBRANCH   7  26
ENDBRANCH  18  20
ENDBRANCH  16  18
ENDBRANCH  12  16
TORSDOF 7
ENDMDL
