MODEL 1
REMARK VINA RESULT:      -3.5      0.000      0.000
REMARK  Name = 11887518
REMARK  6 active torsions:
REMARK  status: ('A' for Active; 'I' for Inactive)
REMARK    1  A    between atoms: N_6  and  C_19
REMARK    2  A    between atoms: N_8  and  C_25
REMARK    3  A    between atoms: N_8  and  C_28
REMARK    4  A    between atoms: N_8  and  C_29
REMARK    5  A    between atoms: C_18  and  C_21
REMARK    6  A    between atoms: C_24  and  C_25
REMARK                            x       y       z     vdW  Elec       q    Type
REMARK                         _______ _______ _______ _____ _____    ______ ____
ROOT
ATOM      1  O   UNL     1      14.725  -8.178  25.982  0.00  0.00    -0.266 OA
ATOM      2  O   UNL     1      11.990  -7.298  30.284  0.00  0.00    -0.270 OA
ATOM      4  N   UNL     1      13.870  -8.556  30.883  0.00  0.00    -0.297 N 
ATOM      5  N   UNL     1      15.424  -8.786  28.128  0.00  0.00    -0.310 N 
ATOM      9  C   UNL     1      14.245 -10.595  29.507  0.00  0.00    +0.027 C 
ATOM     10  C   UNL     1      16.169  -9.391  30.457  0.00  0.00    +0.054 C 
ATOM     11  C   UNL     1      15.607 -10.781  30.166  0.00  0.00    +0.018 C 
ATOM     12  C   UNL     1      13.295  -9.828  30.443  0.00  0.00    +0.113 C 
ATOM     13  C   UNL     1      14.438  -9.877  28.165  0.00  0.00    +0.130 C 
ATOM     14  C   UNL     1      15.232  -8.648  31.431  0.00  0.00    +0.117 C 
ATOM     15  C   UNL     1      16.321  -8.585  29.181  0.00  0.00    +0.027 A 
ATOM     16  C   UNL     1      17.289  -7.658  29.076  0.00  0.00    +0.024 A 
ATOM     17  C   UNL     1      15.483  -8.027  26.942  0.00  0.00    +0.273 A 
ATOM     18  C   UNL     1      13.128  -7.380  30.741  0.00  0.00    +0.248 C 
ATOM     19  C   UNL     1      16.558  -6.985  26.877  0.00  0.00    +0.099 A 
ATOM     20  C   UNL     1      17.405  -6.843  27.901  0.00  0.00    +0.030 A 
ENDROOT
BRANCH  18  21
ATOM      7  N   UNL     1      13.978  -4.370  32.796  0.00  0.00    -0.263 NA
ATOM     21  C   UNL     1      13.755  -6.120  31.151  0.00  0.00    +0.055 A 
ATOM     22  C   UNL     1      14.682  -5.489  30.334  0.00  0.00    +0.016 A 
ATOM     23  C   UNL     1      13.438  -5.531  32.360  0.00  0.00    +0.123 A 
ATOM     26  C   UNL     1      15.259  -4.294  30.748  0.00  0.00    +0.020 A 
ATOM     27  C   UNL     1      14.876  -3.781  31.977  0.00  0.00    +0.111 A 
ENDBRANCH  18  21
BRANCH  19   6
ATOM      3  O   UNL     1      17.405  -4.256  26.747  0.00  0.00    -0.274 OA
ATOM      6  N   UNL     1      16.636  -6.216  25.754  0.00  0.00    -0.280 N 
ATOM     24  C   UNL     1      17.066  -4.894  25.753  0.00  0.00    +0.231 C 
ATOM     30  H   UNL     1      16.149  -6.561  24.930  0.00  0.00    +0.155 HD
BRANCH  24  25
ATOM     25  C   UNL     1      17.045  -4.307  24.355  0.00  0.00    +0.180 C 
BRANCH  25   8
ATOM      8  N   UNL     1      16.357  -3.025  24.389  0.00  0.00    -0.300 NA
ATOM     28  C   UNL     1      15.621  -2.800  23.142  0.00  0.00    +0.105 C 
ATOM     29  C   UNL     1      17.305  -1.934  24.619  0.00  0.00    +0.105 C 
ENDBRANCH  25   8
ENDBRANCH  24  25
ENDBRANCH  19   6
TORSDOF 4
ENDMDL
MODEL 2
REMARK VINA RESULT:      -1.1      1.625      2.185
REMARK  Name = 11887518
REMARK  6 active torsions:
REMARK  status: ('A' for Active; 'I' for Inactive)
REMARK    1  A    between atoms: N_6  and  C_19
REMARK    2  A    between atoms: N_8  and  C_25
REMARK    3  A    between atoms: N_8  and  C_28
REMARK    4  A    between atoms: N_8  and  C_29
REMARK    5  A    between atoms: C_18  and  C_21
REMARK    6  A    between atoms: C_24  and  C_25
REMARK                            x       y       z     vdW  Elec       q    Type
REMARK                         _______ _______ _______ _____ _____    ______ ____
ROOT
ATOM      1  O   UNL     1      14.063  -6.446  26.640  0.00  0.00    -0.266 OA
ATOM      2  O   UNL     1      12.968  -4.302  31.219  0.00  0.00    -0.270 OA
ATOM      4  N   UNL     1      14.230  -6.231  31.621  0.00  0.00    -0.297 N 
ATOM      5  N   UNL     1      14.896  -7.218  28.683  0.00  0.00    -0.310 N 
ATOM      9  C   UNL     1      13.405  -8.279  30.474  0.00  0.00    +0.027 C 
ATOM     10  C   UNL     1      15.814  -7.999  30.894  0.00  0.00    +0.054 C 
ATOM     11  C   UNL     1      14.672  -9.015  30.892  0.00  0.00    +0.018 C 
ATOM     12  C   UNL     1      13.095  -7.140  31.462  0.00  0.00    +0.113 C 
ATOM     13  C   UNL     1      13.580  -7.768  29.039  0.00  0.00    +0.130 C 
ATOM     14  C   UNL     1      15.513  -6.887  31.919  0.00  0.00    +0.117 C 
ATOM     15  C   UNL     1      16.004  -7.389  29.519  0.00  0.00    +0.027 A 
ATOM     16  C   UNL     1      17.221  -6.982  29.121  0.00  0.00    +0.024 A 
ATOM     17  C   UNL     1      15.005  -6.605  27.418  0.00  0.00    +0.273 A 
ATOM     18  C   UNL     1      14.038  -4.855  31.466  0.00  0.00    +0.248 C 
ATOM     19  C   UNL     1      16.374  -6.140  27.024  0.00  0.00    +0.099 A 
ATOM     20  C   UNL     1      17.405  -6.344  27.848  0.00  0.00    +0.030 A 
ENDROOT
BRANCH  18  21
ATOM      7  N   UNL     1      17.258  -3.137  30.637  0.00  0.00    -0.263 NA
ATOM     21  C   UNL     1      15.208  -3.980  31.589  0.00  0.00    +0.055 A 
ATOM     22  C   UNL     1      15.390  -3.192  32.716  0.00  0.00    +0.016 A 
ATOM     23  C   UNL     1      16.157  -3.921  30.586  0.00  0.00    +0.123 A 
ATOM     26  C   UNL     1      16.510  -2.373  32.805  0.00  0.00    +0.020 A 
ATOM     27  C   UNL     1      17.405  -2.382  31.748  0.00  0.00    +0.111 A 
ENDBRANCH  18  21
BRANCH  19   6
ATOM      3  O   UNL     1      17.089  -3.405  26.589  0.00  0.00    -0.274 OA
ATOM      6  N   UNL     1      16.517  -5.524  25.815  0.00  0.00    -0.280 N 
ATOM     24  C   UNL     1      16.877  -4.190  25.668  0.00  0.00    +0.231 C 
ATOM     30  H   UNL     1      16.127  -6.006  25.009  0.00  0.00    +0.155 HD
BRANCH  24  25
ATOM     25  C   UNL     1      16.956  -3.797  24.206  0.00  0.00    +0.180 C 
BRANCH  25   8
ATOM      8  N   UNL     1      16.355  -2.482  24.033  0.00  0.00    -0.300 NA
ATOM     28  C   UNL     1      15.426  -2.483  22.901  0.00  0.00    +0.105 C 
ATOM     29  C   UNL     1      17.387  -1.462  23.839  0.00  0.00    +0.105 C 
ENDBRANCH  25   8
ENDBRANCH  24  25
ENDBRANCH  19   6
TORSDOF 4
ENDMDL
