MODEL 1
REMARK VINA RESULT:      -4.3      0.000      0.000
REMARK  Name = 45783791
REMARK  6 active torsions:
REMARK  status: ('A' for Active; 'I' for Inactive)
REMARK    1  A    between atoms: N_2  and  C_10
REMARK    2  A    between atoms: N_6  and  C_21
REMARK    3  A    between atoms: N_6  and  C_22
REMARK    4  A    between atoms: C_7  and  C_10
REMARK    5  A    between atoms: C_11  and  C_15
REMARK    6  A    between atoms: C_16  and  C_17
REMARK                            x       y       z     vdW  Elec       q    Type
REMARK                         _______ _______ _______ _____ _____    ______ ____
ROOT
ATOM      1  O   UNL     1      -2.015   3.144  24.835  0.00  0.00    -0.336 OA
ATOM      3  N   UNL     1      -1.693   1.277  23.641  0.00  0.00    -0.190 NA
ATOM      4  N   UNL     1      -0.628   3.013  24.684  0.00  0.00    -0.056 NA
ATOM     15  C   UNL     1      -2.566   2.082  24.192  0.00  0.00    +0.245 A 
ATOM     16  C   UNL     1      -0.519   1.889  23.968  0.00  0.00    +0.204 A 
ENDROOT
BRANCH  16  17
ATOM      5  N   UNL     1       3.125   1.674  23.260  0.00  0.00    -0.240 NA
ATOM     17  C   UNL     1       0.750   1.351  23.567  0.00  0.00    +0.041 A 
ATOM     18  C   UNL     1       0.860   0.042  23.112  0.00  0.00    +0.016 A 
ATOM     19  C   UNL     1       1.901   2.119  23.622  0.00  0.00    +0.124 A 
ATOM     20  C   UNL     1       2.103  -0.452  22.731  0.00  0.00    +0.044 A 
ATOM     21  C   UNL     1       3.194   0.397  22.822  0.00  0.00    +0.118 A 
BRANCH  21   6
ATOM      6  N   UNL     1       4.453  -0.122  22.430  0.00  0.00    -0.332 N 
ATOM     22  C   UNL     1       5.594  -0.106  23.288  0.00  0.00    +0.127 C 
ATOM     23  H   UNL     1       4.593  -0.300  21.442  0.00  0.00    +0.147 HD
ENDBRANCH  21   6
ENDBRANCH  16  17
BRANCH  15  11
ATOM      2  N   UNL     1      -4.572   0.927  25.105  0.00  0.00    -0.291 NA
ATOM     11  C   UNL     1      -4.077   1.993  24.209  0.00  0.00    +0.146 C 
ATOM     12  C   UNL     1      -5.885   1.365  25.581  0.00  0.00    +0.085 C 
ATOM     13  C   UNL     1      -4.743   3.280  24.729  0.00  0.00    +0.030 C 
ATOM     14  C   UNL     1      -5.639   2.831  25.875  0.00  0.00    +0.017 C 
BRANCH   2  10
ATOM     10  C   UNL     1      -4.630  -0.380  24.465  0.00  0.00    +0.088 C 
BRANCH  10   7
ATOM      7  C   UNL     1      -3.789  -1.379  25.192  0.00  0.00    +0.003 C 
ATOM      8  C   UNL     1      -3.605  -2.747  24.605  0.00  0.00    +0.005 C 
ATOM      9  C   UNL     1      -2.461  -1.776  24.619  0.00  0.00    +0.005 C 
ENDBRANCH  10   7
ENDBRANCH   2  10
ENDBRANCH  15  11
TORSDOF 5
ENDMDL
MODEL 2
REMARK VINA RESULT:      -4.1      1.748      3.264
REMARK  Name = 45783791
REMARK  6 active torsions:
REMARK  status: ('A' for Active; 'I' for Inactive)
REMARK    1  A    between atoms: N_2  and  C_10
REMARK    2  A    between atoms: N_6  and  C_21
REMARK    3  A    between atoms: N_6  and  C_22
REMARK    4  A    between atoms: C_7  and  C_10
REMARK    5  A    between atoms: C_11  and  C_15
REMARK    6  A    between atoms: C_16  and  C_17
REMARK                            x       y       z     vdW  Elec       q    Type
REMARK                         _______ _______ _______ _____ _____    ______ ____
ROOT
ATOM      1  O   UNL     1      -3.054  -0.308  24.437  0.00  0.00    -0.336 OA
ATOM      3  N   UNL     1      -1.635   1.404  24.705  0.00  0.00    -0.190 NA
ATOM      4  N   UNL     1      -1.848  -0.705  23.846  0.00  0.00    -0.056 NA
ATOM     15  C   UNL     1      -2.842   0.945  24.918  0.00  0.00    +0.245 A 
ATOM     16  C   UNL     1      -1.062   0.358  24.045  0.00  0.00    +0.204 A 
ENDROOT
BRANCH  16  17
ATOM      5  N   UNL     1       2.429   1.548  23.573  0.00  0.00    -0.240 NA
ATOM     17  C   UNL     1       0.300   0.404  23.596  0.00  0.00    +0.041 A 
ATOM     18  C   UNL     1       0.819  -0.595  22.779  0.00  0.00    +0.016 A 
ATOM     19  C   UNL     1       1.139   1.445  23.962  0.00  0.00    +0.124 A 
ATOM     20  C   UNL     1       2.143  -0.523  22.360  0.00  0.00    +0.044 A 
ATOM     21  C   UNL     1       2.899   0.559  22.780  0.00  0.00    +0.118 A 
BRANCH  21   6
ATOM      6  N   UNL     1       4.246   0.616  22.345  0.00  0.00    -0.332 N 
ATOM     22  C   UNL     1       5.336   0.173  23.152  0.00  0.00    +0.127 C 
ATOM     23  H   UNL     1       4.446   1.192  21.534  0.00  0.00    +0.147 HD
ENDBRANCH  21   6
ENDBRANCH  16  17
BRANCH  15  11
ATOM      2  N   UNL     1      -4.291   2.961  25.093  0.00  0.00    -0.291 NA
ATOM     11  C   UNL     1      -4.013   1.607  25.614  0.00  0.00    +0.146 C 
ATOM     12  C   UNL     1      -5.726   3.186  25.272  0.00  0.00    +0.085 C 
ATOM     13  C   UNL     1      -5.332   0.836  25.423  0.00  0.00    +0.030 C 
ATOM     14  C   UNL     1      -6.308   1.853  24.848  0.00  0.00    +0.017 C 
BRANCH   2  10
ATOM     10  C   UNL     1      -3.491   3.998  25.730  0.00  0.00    +0.088 C 
BRANCH  10   7
ATOM      7  C   UNL     1      -2.451   4.531  24.798  0.00  0.00    +0.003 C 
ATOM      8  C   UNL     1      -1.680   5.758  25.186  0.00  0.00    +0.005 C 
ATOM      9  C   UNL     1      -1.003   4.420  25.173  0.00  0.00    +0.005 C 
ENDBRANCH  10   7
ENDBRANCH   2  10
ENDBRANCH  15  11
TORSDOF 5
ENDMDL
MODEL 3
REMARK VINA RESULT:      -1.9      1.505      2.229
REMARK  Name = 45783791
REMARK  6 active torsions:
REMARK  status: ('A' for Active; 'I' for Inactive)
REMARK    1  A    between atoms: N_2  and  C_10
REMARK    2  A    between atoms: N_6  and  C_21
REMARK    3  A    between atoms: N_6  and  C_22
REMARK    4  A    between atoms: C_7  and  C_10
REMARK    5  A    between atoms: C_11  and  C_15
REMARK    6  A    between atoms: C_16  and  C_17
REMARK                            x       y       z     vdW  Elec       q    Type
REMARK                         _______ _______ _______ _____ _____    ______ ____
ROOT
ATOM      1  O   UNL     1      -1.732   0.676  23.506  0.00  0.00    -0.336 OA
ATOM      3  N   UNL     1      -0.059   2.121  23.871  0.00  0.00    -0.190 NA
ATOM      4  N   UNL     1      -0.547  -0.024  23.242  0.00  0.00    -0.056 NA
ATOM     15  C   UNL     1      -1.354   1.929  23.869  0.00  0.00    +0.245 A 
ATOM     16  C   UNL     1       0.394   0.895  23.479  0.00  0.00    +0.204 A 
ENDROOT
BRANCH  16  17
ATOM      5  N   UNL     1       3.607  -0.976  23.434  0.00  0.00    -0.240 NA
ATOM     17  C   UNL     1       1.795   0.620  23.333  0.00  0.00    +0.041 A 
ATOM     18  C   UNL     1       2.686   1.621  22.965  0.00  0.00    +0.016 A 
ATOM     19  C   UNL     1       2.300  -0.651  23.555  0.00  0.00    +0.124 A 
ATOM     20  C   UNL     1       4.038   1.325  22.830  0.00  0.00    +0.044 A 
ATOM     21  C   UNL     1       4.444   0.023  23.075  0.00  0.00    +0.118 A 
BRANCH  21   6
ATOM      6  N   UNL     1       5.824  -0.263  22.933  0.00  0.00    -0.332 N 
ATOM     22  C   UNL     1       6.619  -0.773  24.003  0.00  0.00    +0.127 C 
ATOM     23  H   UNL     1       6.294   0.118  22.119  0.00  0.00    +0.147 HD
ENDBRANCH  21   6
ENDBRANCH  16  17
BRANCH  15  11
ATOM      2  N   UNL     1      -3.501   2.289  25.077  0.00  0.00    -0.291 NA
ATOM     11  C   UNL     1      -2.468   2.896  24.212  0.00  0.00    +0.146 C 
ATOM     12  C   UNL     1      -4.063   3.378  25.876  0.00  0.00    +0.085 C 
ATOM     13  C   UNL     1      -1.971   4.122  25.000  0.00  0.00    +0.030 C 
ATOM     14  C   UNL     1      -2.822   4.158  26.261  0.00  0.00    +0.017 C 
BRANCH   2  10
ATOM     10  C   UNL     1      -4.526   1.572  24.330  0.00  0.00    +0.088 C 
BRANCH  10   7
ATOM      7  C   UNL     1      -4.830   0.250  24.958  0.00  0.00    +0.003 C 
ATOM      8  C   UNL     1      -4.360  -1.006  24.286  0.00  0.00    +0.005 C 
ATOM      9  C   UNL     1      -3.714  -0.550  25.562  0.00  0.00    +0.005 C 
ENDBRANCH  10   7
ENDBRANCH   2  10
ENDBRANCH  15  11
TORSDOF 5
ENDMDL
MODEL 4
REMARK VINA RESULT:      -1.6      1.846      3.409
REMARK  Name = 45783791
REMARK  6 active torsions:
REMARK  status: ('A' for Active; 'I' for Inactive)
REMARK    1  A    between atoms: N_2  and  C_10
REMARK    2  A    between atoms: N_6  and  C_21
REMARK    3  A    between atoms: N_6  and  C_22
REMARK    4  A    between atoms: C_7  and  C_10
REMARK    5  A    between atoms: C_11  and  C_15
REMARK    6  A    between atoms: C_16  and  C_17
REMARK                            x       y       z     vdW  Elec       q    Type
REMARK                         _______ _______ _______ _____ _____    ______ ____
ROOT
ATOM      1  O   UNL     1      -1.891  -0.560  24.040  0.00  0.00    -0.336 OA
ATOM      3  N   UNL     1      -0.480   1.149  24.365  0.00  0.00    -0.190 NA
ATOM      4  N   UNL     1      -0.636  -1.002  23.600  0.00  0.00    -0.056 NA
ATOM     15  C   UNL     1      -1.710   0.715  24.473  0.00  0.00    +0.245 A 
ATOM     16  C   UNL     1       0.142   0.062  23.825  0.00  0.00    +0.204 A 
ENDROOT
BRANCH  16  17
ATOM      5  N   UNL     1       3.637  -1.134  23.393  0.00  0.00    -0.240 NA
ATOM     17  C   UNL     1       1.544   0.069  23.519  0.00  0.00    +0.041 A 
ATOM     18  C   UNL     1       2.172   1.225  23.068  0.00  0.00    +0.016 A 
ATOM     19  C   UNL     1       2.314  -1.074  23.664  0.00  0.00    +0.124 A 
ATOM     20  C   UNL     1       3.533   1.202  22.779  0.00  0.00    +0.044 A 
ATOM     21  C   UNL     1       4.213   0.008  22.957  0.00  0.00    +0.118 A 
BRANCH  21   6
ATOM      6  N   UNL     1       5.598   0.001  22.657  0.00  0.00    -0.332 N 
ATOM     22  C   UNL     1       6.605   0.010  23.669  0.00  0.00    +0.127 C 
ATOM     23  H   UNL     1       5.866   0.222  21.704  0.00  0.00    +0.147 HD
ENDBRANCH  21   6
ENDBRANCH  16  17
BRANCH  15  11
ATOM      2  N   UNL     1      -3.596   2.263  23.985  0.00  0.00    -0.291 NA
ATOM     11  C   UNL     1      -2.936   1.426  25.007  0.00  0.00    +0.146 C 
ATOM     12  C   UNL     1      -5.016   2.299  24.335  0.00  0.00    +0.085 C 
ATOM     13  C   UNL     1      -4.030   0.452  25.480  0.00  0.00    +0.030 C 
ATOM     14  C   UNL     1      -5.282   0.856  24.715  0.00  0.00    +0.017 C 
BRANCH   2  10
ATOM     10  C   UNL     1      -3.024   3.599  23.880  0.00  0.00    +0.088 C 
BRANCH  10   7
ATOM      7  C   UNL     1      -2.282   3.971  25.123  0.00  0.00    +0.003 C 
ATOM      8  C   UNL     1      -0.816   4.279  25.037  0.00  0.00    +0.005 C 
ATOM      9  C   UNL     1      -1.801   5.382  25.296  0.00  0.00    +0.005 C 
ENDBRANCH  10   7
ENDBRANCH   2  10
ENDBRANCH  15  11
TORSDOF 5
ENDMDL
MODEL 5
REMARK VINA RESULT:      -1.3      1.530      3.359
REMARK  Name = 45783791
REMARK  6 active torsions:
REMARK  status: ('A' for Active; 'I' for Inactive)
REMARK    1  A    between atoms: N_2  and  C_10
REMARK    2  A    between atoms: N_6  and  C_21
REMARK    3  A    between atoms: N_6  and  C_22
REMARK    4  A    between atoms: C_7  and  C_10
REMARK    5  A    between atoms: C_11  and  C_15
REMARK    6  A    between atoms: C_16  and  C_17
REMARK                            x       y       z     vdW  Elec       q    Type
REMARK                         _______ _______ _______ _____ _____    ______ ____
ROOT
ATOM      1  O   UNL     1      -1.494   0.794  23.878  0.00  0.00    -0.336 OA
ATOM      3  N   UNL     1      -0.116  -0.927  24.269  0.00  0.00    -0.190 NA
ATOM      4  N   UNL     1      -0.223   1.210  23.461  0.00  0.00    -0.056 NA
ATOM     15  C   UNL     1      -1.342  -0.474  24.340  0.00  0.00    +0.245 A 
ATOM     16  C   UNL     1       0.534   0.140  23.723  0.00  0.00    +0.204 A 
ENDROOT
BRANCH  16  17
ATOM      5  N   UNL     1       4.008  -1.147  23.404  0.00  0.00    -0.240 NA
ATOM     17  C   UNL     1       1.943   0.108  23.453  0.00  0.00    +0.041 A 
ATOM     18  C   UNL     1       2.610   1.238  22.994  0.00  0.00    +0.016 A 
ATOM     19  C   UNL     1       2.680  -1.050  23.640  0.00  0.00    +0.124 A 
ATOM     20  C   UNL     1       3.976   1.177  22.740  0.00  0.00    +0.044 A 
ATOM     21  C   UNL     1       4.623  -0.028  22.959  0.00  0.00    +0.118 A 
BRANCH  21   6
ATOM      6  N   UNL     1       6.014  -0.074  22.695  0.00  0.00    -0.332 N 
ATOM     22  C   UNL     1       6.976  -0.417  23.691  0.00  0.00    +0.127 C 
ATOM     23  H   UNL     1       6.337   0.364  21.839  0.00  0.00    +0.147 HD
ENDBRANCH  21   6
ENDBRANCH  16  17
BRANCH  15  11
ATOM      2  N   UNL     1      -3.828  -0.461  24.452  0.00  0.00    -0.291 NA
ATOM     11  C   UNL     1      -2.590  -1.158  24.857  0.00  0.00    +0.146 C 
ATOM     12  C   UNL     1      -4.869  -1.486  24.362  0.00  0.00    +0.085 C 
ATOM     13  C   UNL     1      -2.752  -2.589  24.315  0.00  0.00    +0.030 C 
ATOM     14  C   UNL     1      -4.133  -2.619  23.675  0.00  0.00    +0.017 C 
BRANCH   2  10
ATOM     10  C   UNL     1      -4.201   0.620  25.355  0.00  0.00    +0.088 C 
BRANCH  10   7
ATOM      7  C   UNL     1      -4.863   1.739  24.618  0.00  0.00    +0.003 C 
ATOM      8  C   UNL     1      -6.228   2.191  25.046  0.00  0.00    +0.005 C 
ATOM      9  C   UNL     1      -5.035   3.065  25.299  0.00  0.00    +0.005 C 
ENDBRANCH  10   7
ENDBRANCH   2  10
ENDBRANCH  15  11
TORSDOF 5
ENDMDL
