MODEL 1
REMARK VINA RESULT:       5.7      0.000      0.000
REMARK  Name = 11886270
REMARK  9 active torsions:
REMARK  status: ('A' for Active; 'I' for Inactive)
REMARK    1  A    between atoms: S_1  and  N_8
REMARK    2  A    between atoms: S_1  and  C_24
REMARK    3  A    between atoms: O_4  and  C_23
REMARK    4  A    between atoms: O_4  and  C_27
REMARK    5  A    between atoms: N_8  and  C_19
REMARK    6  A    between atoms: N_9  and  C_20
REMARK    7  A    between atoms: N_13  and  C_30
REMARK    8  A    between atoms: N_14  and  C_35
REMARK    9  A    between atoms: C_36  and  C_37
REMARK                            x       y       z     vdW  Elec       q    Type
REMARK                         _______ _______ _______ _____ _____    ______ ____
ROOT
ATOM      2  O   UNL     1      -1.990  -1.017  26.202  0.00  0.00    -0.370 OA
ATOM      3  O   UNL     1      -3.301  -1.330  23.345  0.00  0.00    -0.370 OA
ATOM     17  C   UNL     1      -2.136  -0.660  23.852  0.00  0.00    +0.170 C 
ATOM     18  C   UNL     1      -2.486  -0.095  25.216  0.00  0.00    +0.175 C 
ATOM     19  C   UNL     1      -1.040  -1.661  24.131  0.00  0.00    +0.133 C 
ATOM     20  C   UNL     1      -4.002  -0.071  25.247  0.00  0.00    +0.171 C 
ATOM     21  C   UNL     1      -1.351  -2.118  25.542  0.00  0.00    +0.183 C 
ATOM     22  C   UNL     1      -4.383  -1.181  24.276  0.00  0.00    +0.190 C 
ENDROOT
BRANCH  20   9
ATOM      9  N   UNL     1      -4.551   1.249  24.925  0.00  0.00    -0.187 N 
ATOM     10  N   UNL     1      -5.856   1.515  25.077  0.00  0.00    -0.041 NA
ATOM     11  N   UNL     1      -4.789   3.314  24.307  0.00  0.00    -0.071 NA
ATOM     12  N   UNL     1      -5.995   2.779  24.699  0.00  0.00    -0.020 NA
ATOM     23  C   UNL     1      -3.909   2.351  24.455  0.00  0.00    +0.342 A 
BRANCH  23   4
ATOM      4  O   UNL     1      -2.616   2.416  24.197  0.00  0.00    -0.423 OA
BRANCH   4  27
ATOM     27  C   UNL     1      -1.656   2.481  25.198  0.00  0.00    +0.132 A 
ATOM     31  C   UNL     1      -0.344   2.089  24.932  0.00  0.00    +0.048 A 
ATOM     32  C   UNL     1      -2.004   2.940  26.468  0.00  0.00    +0.048 A 
ATOM     33  C   UNL     1       0.620   2.154  25.938  0.00  0.00    +0.031 A 
ATOM     34  C   UNL     1      -1.040   3.004  27.473  0.00  0.00    +0.031 A 
ATOM     35  C   UNL     1       0.272   2.612  27.208  0.00  0.00    +0.067 A 
BRANCH  35  14
ATOM     14  N   UNL     1       1.228   2.675  28.206  0.00  0.00    -0.220 N 
ATOM     15  N   UNL     1       2.454   3.172  27.978  0.00  0.00    -0.154 NA
ATOM     16  N   UNL     1       2.212   2.489  30.148  0.00  0.00    -0.222 NA
ATOM     38  C   UNL     1       1.093   2.271  29.498  0.00  0.00    +0.225 A 
ATOM     39  C   UNL     1       3.009   3.036  29.185  0.00  0.00    +0.245 A 
ENDBRANCH  35  14
ENDBRANCH   4  27
ENDBRANCH  23   4
ENDBRANCH  20   9
BRANCH  19   8
ATOM      8  N   UNL     1       0.279  -0.985  24.106  0.00  0.00    -0.182 NA
ATOM     40  H   UNL     1       0.715  -0.757  25.008  0.00  0.00    +0.148 HD
BRANCH   8   1
ATOM      1  S   UNL     1       0.829  -0.261  22.672  0.00  0.00    +0.059 S 
ATOM      5  O   UNL     1       0.286   1.080  22.569  0.00  0.00    -0.153 OA
ATOM      6  O   UNL     1       0.663  -1.202  21.581  0.00  0.00    -0.153 OA
BRANCH   1  24
ATOM     24  C   UNL     1       2.565  -0.125  22.976  0.00  0.00    +0.105 A 
ATOM     25  C   UNL     1       3.262  -1.195  23.537  0.00  0.00    +0.030 A 
ATOM     26  C   UNL     1       3.239   1.054  22.655  0.00  0.00    +0.030 A 
ATOM     28  C   UNL     1       4.632  -1.086  23.778  0.00  0.00    +0.025 A 
ATOM     29  C   UNL     1       4.608   1.163  22.895  0.00  0.00    +0.025 A 
ATOM     30  C   UNL     1       5.305   0.093  23.457  0.00  0.00    +0.033 A 
BRANCH  30  13
ATOM      7  O   UNL     1       7.642  -1.168  22.037  0.00  0.00    -0.276 OA
ATOM     13  N   UNL     1       6.675   0.201  23.696  0.00  0.00    -0.286 N 
ATOM     36  C   UNL     1       7.725  -0.412  23.001  0.00  0.00    +0.214 C 
ATOM     37  C   UNL     1       9.070  -0.038  23.573  0.00  0.00    +0.109 C 
ATOM     41  H   UNL     1       6.934   0.802  24.475  0.00  0.00    +0.155 HD
ENDBRANCH  30  13
ENDBRANCH   1  24
ENDBRANCH   8   1
ENDBRANCH  19   8
TORSDOF 8
ENDMDL
MODEL 2
REMARK VINA RESULT:       6.2      2.918      7.621
REMARK  Name = 11886270
REMARK  9 active torsions:
REMARK  status: ('A' for Active; 'I' for Inactive)
REMARK    1  A    between atoms: S_1  and  N_8
REMARK    2  A    between atoms: S_1  and  C_24
REMARK    3  A    between atoms: O_4  and  C_23
REMARK    4  A    between atoms: O_4  and  C_27
REMARK    5  A    between atoms: N_8  and  C_19
REMARK    6  A    between atoms: N_9  and  C_20
REMARK    7  A    between atoms: N_13  and  C_30
REMARK    8  A    between atoms: N_14  and  C_35
REMARK    9  A    between atoms: C_36  and  C_37
REMARK                            x       y       z     vdW  Elec       q    Type
REMARK                         _______ _______ _______ _____ _____    ______ ____
ROOT
ATOM      2  O   UNL     1      -0.560   3.303  26.658  0.00  0.00    -0.370 OA
ATOM      3  O   UNL     1      -0.743   3.032  23.517  0.00  0.00    -0.370 OA
ATOM     17  C   UNL     1      -1.698   3.002  24.589  0.00  0.00    +0.170 C 
ATOM     18  C   UNL     1      -1.052   2.291  25.762  0.00  0.00    +0.175 C 
ATOM     19  C   UNL     1      -1.957   4.401  25.094  0.00  0.00    +0.133 C 
ATOM     20  C   UNL     1       0.110   1.525  25.159  0.00  0.00    +0.171 C 
ATOM     21  C   UNL     1      -0.860   4.598  26.121  0.00  0.00    +0.183 C 
ATOM     22  C   UNL     1       0.448   2.339  23.916  0.00  0.00    +0.190 C 
ENDROOT
BRANCH  20   9
ATOM      9  N   UNL     1      -0.213   0.118  24.909  0.00  0.00    -0.187 N 
ATOM     10  N   UNL     1      -0.969  -0.583  25.766  0.00  0.00    -0.041 NA
ATOM     11  N   UNL     1      -0.358  -1.868  24.049  0.00  0.00    -0.071 NA
ATOM     12  N   UNL     1      -1.056  -1.796  25.234  0.00  0.00    -0.020 NA
ATOM     23  C   UNL     1       0.155  -0.673  23.867  0.00  0.00    +0.342 A 
BRANCH  23   4
ATOM      4  O   UNL     1       0.905  -0.282  22.854  0.00  0.00    -0.423 OA
BRANCH   4  27
ATOM     27  C   UNL     1       2.291  -0.254  22.917  0.00  0.00    +0.132 A 
ATOM     31  C   UNL     1       2.991   0.837  22.399  0.00  0.00    +0.048 A 
ATOM     32  C   UNL     1       2.984  -1.315  23.497  0.00  0.00    +0.048 A 
ATOM     33  C   UNL     1       4.384   0.864  22.463  0.00  0.00    +0.031 A 
ATOM     34  C   UNL     1       4.377  -1.287  23.560  0.00  0.00    +0.031 A 
ATOM     35  C   UNL     1       5.076  -0.197  23.043  0.00  0.00    +0.067 A 
BRANCH  35  14
ATOM     14  N   UNL     1       6.458  -0.169  23.105  0.00  0.00    -0.220 N 
ATOM     15  N   UNL     1       7.113   0.714  23.874  0.00  0.00    -0.154 NA
ATOM     16  N   UNL     1       8.558  -0.657  22.749  0.00  0.00    -0.222 NA
ATOM     38  C   UNL     1       7.324  -0.980  22.439  0.00  0.00    +0.225 A 
ATOM     39  C   UNL     1       8.380   0.376  23.623  0.00  0.00    +0.245 A 
ENDBRANCH  35  14
ENDBRANCH   4  27
ENDBRANCH  23   4
ENDBRANCH  20   9
BRANCH  19   8
ATOM      8  N   UNL     1      -3.279   4.461  25.761  0.00  0.00    -0.182 NA
ATOM     40  H   UNL     1      -3.295   4.472  26.788  0.00  0.00    +0.148 HD
BRANCH   8   1
ATOM      1  S   UNL     1      -4.686   4.109  24.879  0.00  0.00    +0.059 S 
ATOM      5  O   UNL     1      -4.662   4.833  23.622  0.00  0.00    -0.153 OA
ATOM      6  O   UNL     1      -5.831   4.219  25.763  0.00  0.00    -0.153 OA
BRANCH   1  24
ATOM     24  C   UNL     1      -4.473   2.391  24.523  0.00  0.00    +0.105 A 
ATOM     25  C   UNL     1      -3.761   1.996  23.390  0.00  0.00    +0.030 A 
ATOM     26  C   UNL     1      -5.018   1.429  25.374  0.00  0.00    +0.030 A 
ATOM     28  C   UNL     1      -3.594   0.640  23.109  0.00  0.00    +0.025 A 
ATOM     29  C   UNL     1      -4.851   0.073  25.093  0.00  0.00    +0.025 A 
ATOM     30  C   UNL     1      -4.139  -0.322  23.960  0.00  0.00    +0.033 A 
BRANCH  30  13
ATOM      7  O   UNL     1      -3.595  -2.645  25.796  0.00  0.00    -0.276 OA
ATOM     13  N   UNL     1      -3.971  -1.678  23.679  0.00  0.00    -0.286 N 
ATOM     36  C   UNL     1      -3.717  -2.722  24.577  0.00  0.00    +0.214 C 
ATOM     37  C   UNL     1      -3.601  -4.051  23.873  0.00  0.00    +0.109 C 
ATOM     41  H   UNL     1      -4.043  -1.930  22.696  0.00  0.00    +0.155 HD
ENDBRANCH  30  13
ENDBRANCH   1  24
ENDBRANCH   8   1
ENDBRANCH  19   8
TORSDOF 8
ENDMDL
MODEL 3
REMARK VINA RESULT:       6.4      2.415      6.014
REMARK  Name = 11886270
REMARK  9 active torsions:
REMARK  status: ('A' for Active; 'I' for Inactive)
REMARK    1  A    between atoms: S_1  and  N_8
REMARK    2  A    between atoms: S_1  and  C_24
REMARK    3  A    between atoms: O_4  and  C_23
REMARK    4  A    between atoms: O_4  and  C_27
REMARK    5  A    between atoms: N_8  and  C_19
REMARK    6  A    between atoms: N_9  and  C_20
REMARK    7  A    between atoms: N_13  and  C_30
REMARK    8  A    between atoms: N_14  and  C_35
REMARK    9  A    between atoms: C_36  and  C_37
REMARK                            x       y       z     vdW  Elec       q    Type
REMARK                         _______ _______ _______ _____ _____    ______ ____
ROOT
ATOM      2  O   UNL     1      -5.833   0.115  25.076  0.00  0.00    -0.370 OA
ATOM      3  O   UNL     1      -2.859   0.279  26.127  0.00  0.00    -0.370 OA
ATOM     17  C   UNL     1      -3.539   0.739  24.948  0.00  0.00    +0.170 C 
ATOM     18  C   UNL     1      -4.560  -0.315  24.564  0.00  0.00    +0.175 C 
ATOM     19  C   UNL     1      -4.365   1.962  25.268  0.00  0.00    +0.133 C 
ATOM     20  C   UNL     1      -4.110  -1.570  25.286  0.00  0.00    +0.171 C 
ATOM     21  C   UNL     1      -5.673   1.370  25.752  0.00  0.00    +0.183 C 
ATOM     22  C   UNL     1      -3.345  -1.022  26.484  0.00  0.00    +0.190 C 
ENDROOT
BRANCH  20   9
ATOM      9  N   UNL     1      -3.343  -2.472  24.421  0.00  0.00    -0.187 N 
ATOM     10  N   UNL     1      -3.693  -3.757  24.274  0.00  0.00    -0.041 NA
ATOM     11  N   UNL     1      -1.880  -3.309  23.056  0.00  0.00    -0.071 NA
ATOM     12  N   UNL     1      -2.796  -4.263  23.437  0.00  0.00    -0.020 NA
ATOM     23  C   UNL     1      -2.237  -2.208  23.676  0.00  0.00    +0.342 A 
BRANCH  23   4
ATOM      4  O   UNL     1      -1.640  -1.032  23.605  0.00  0.00    -0.423 OA
BRANCH   4  27
ATOM     27  C   UNL     1      -0.259  -0.897  23.566  0.00  0.00    +0.132 A 
ATOM     31  C   UNL     1       0.345  -0.215  22.509  0.00  0.00    +0.048 A 
ATOM     32  C   UNL     1       0.524  -1.442  24.583  0.00  0.00    +0.048 A 
ATOM     33  C   UNL     1       1.733  -0.080  22.470  0.00  0.00    +0.031 A 
ATOM     34  C   UNL     1       1.911  -1.306  24.543  0.00  0.00    +0.031 A 
ATOM     35  C   UNL     1       2.515  -0.625  23.487  0.00  0.00    +0.067 A 
BRANCH  35  14
ATOM     14  N   UNL     1       3.891  -0.491  23.447  0.00  0.00    -0.220 N 
ATOM     15  N   UNL     1       4.709  -1.473  23.856  0.00  0.00    -0.154 NA
ATOM     16  N   UNL     1       5.883   0.349  23.126  0.00  0.00    -0.222 NA
ATOM     38  C   UNL     1       4.597   0.589  23.015  0.00  0.00    +0.225 A 
ATOM     39  C   UNL     1       5.902  -0.915  23.641  0.00  0.00    +0.245 A 
ENDBRANCH  35  14
ENDBRANCH   4  27
ENDBRANCH  23   4
ENDBRANCH  20   9
BRANCH  19   8
ATOM      8  N   UNL     1      -4.601   2.749  24.035  0.00  0.00    -0.182 NA
ATOM     40  H   UNL     1      -5.488   2.602  23.538  0.00  0.00    +0.148 HD
BRANCH   8   1
ATOM      1  S   UNL     1      -3.303   3.532  23.271  0.00  0.00    +0.059 S 
ATOM      5  O   UNL     1      -3.564   4.958  23.216  0.00  0.00    -0.153 OA
ATOM      6  O   UNL     1      -2.965   2.804  22.062  0.00  0.00    -0.153 OA
BRANCH   1  24
ATOM     24  C   UNL     1      -1.987   3.262  24.420  0.00  0.00    +0.105 A 
ATOM     25  C   UNL     1      -0.867   2.525  24.038  0.00  0.00    +0.030 A 
ATOM     26  C   UNL     1      -2.070   3.787  25.710  0.00  0.00    +0.030 A 
ATOM     28  C   UNL     1       0.171   2.312  24.946  0.00  0.00    +0.025 A 
ATOM     29  C   UNL     1      -1.032   3.574  26.618  0.00  0.00    +0.025 A 
ATOM     30  C   UNL     1       0.088   2.836  26.236  0.00  0.00    +0.033 A 
BRANCH  30  13
ATOM      7  O   UNL     1       0.049   2.645  29.240  0.00  0.00    -0.276 OA
ATOM     13  N   UNL     1       1.127   2.624  27.143  0.00  0.00    -0.286 N 
ATOM     36  C   UNL     1       1.052   2.544  28.539  0.00  0.00    +0.214 C 
ATOM     37  C   UNL     1       2.406   2.302  29.159  0.00  0.00    +0.109 C 
ATOM     41  H   UNL     1       2.049   2.514  26.729  0.00  0.00    +0.155 HD
ENDBRANCH  30  13
ENDBRANCH   1  24
ENDBRANCH   8   1
ENDBRANCH  19   8
TORSDOF 8
ENDMDL
MODEL 4
REMARK VINA RESULT:       7.0      2.240      3.670
REMARK  Name = 11886270
REMARK  9 active torsions:
REMARK  status: ('A' for Active; 'I' for Inactive)
REMARK    1  A    between atoms: S_1  and  N_8
REMARK    2  A    between atoms: S_1  and  C_24
REMARK    3  A    between atoms: O_4  and  C_23
REMARK    4  A    between atoms: O_4  and  C_27
REMARK    5  A    between atoms: N_8  and  C_19
REMARK    6  A    between atoms: N_9  and  C_20
REMARK    7  A    between atoms: N_13  and  C_30
REMARK    8  A    between atoms: N_14  and  C_35
REMARK    9  A    between atoms: C_36  and  C_37
REMARK                            x       y       z     vdW  Elec       q    Type
REMARK                         _______ _______ _______ _____ _____    ______ ____
ROOT
ATOM      2  O   UNL     1      -3.457   0.593  25.987  0.00  0.00    -0.370 OA
ATOM      3  O   UNL     1      -6.380   1.391  25.094  0.00  0.00    -0.370 OA
ATOM     17  C   UNL     1      -5.256   0.785  24.438  0.00  0.00    +0.170 C 
ATOM     18  C   UNL     1      -3.999   1.450  24.966  0.00  0.00    +0.175 C 
ATOM     19  C   UNL     1      -5.122  -0.658  24.861  0.00  0.00    +0.133 C 
ATOM     20  C   UNL     1      -4.480   2.749  25.585  0.00  0.00    +0.171 C 
ATOM     21  C   UNL     1      -4.292  -0.564  26.126  0.00  0.00    +0.183 C 
ATOM     22  C   UNL     1      -5.921   2.434  25.965  0.00  0.00    +0.190 C 
ENDROOT
BRANCH  20   9
ATOM      9  N   UNL     1      -4.312   3.895  24.687  0.00  0.00    -0.187 N 
ATOM     10  N   UNL     1      -5.277   4.815  24.547  0.00  0.00    -0.041 NA
ATOM     11  N   UNL     1      -3.532   5.329  23.259  0.00  0.00    -0.071 NA
ATOM     12  N   UNL     1      -4.794   5.689  23.674  0.00  0.00    -0.020 NA
ATOM     23  C   UNL     1      -3.253   4.216  23.898  0.00  0.00    +0.342 A 
BRANCH  23   4
ATOM      4  O   UNL     1      -2.142   3.510  23.806  0.00  0.00    -0.423 OA
BRANCH   4  27
ATOM     27  C   UNL     1      -1.302   3.291  24.890  0.00  0.00    +0.132 A 
ATOM     31  C   UNL     1      -1.692   3.699  26.166  0.00  0.00    +0.048 A 
ATOM     32  C   UNL     1      -0.071   2.664  24.703  0.00  0.00    +0.048 A 
ATOM     33  C   UNL     1      -0.849   3.480  27.255  0.00  0.00    +0.031 A 
ATOM     34  C   UNL     1       0.771   2.446  25.792  0.00  0.00    +0.031 A 
ATOM     35  C   UNL     1       0.383   2.853  27.068  0.00  0.00    +0.067 A 
BRANCH  35  14
ATOM     14  N   UNL     1       1.219   2.637  28.148  0.00  0.00    -0.220 N 
ATOM     15  N   UNL     1       2.506   3.015  28.132  0.00  0.00    -0.154 NA
ATOM     16  N   UNL     1       1.948   2.017  30.113  0.00  0.00    -0.222 NA
ATOM     38  C   UNL     1       0.895   2.044  29.329  0.00  0.00    +0.225 A 
ATOM     39  C   UNL     1       2.902   2.617  29.343  0.00  0.00    +0.245 A 
ENDBRANCH  35  14
ENDBRANCH   4  27
ENDBRANCH  23   4
ENDBRANCH  20   9
BRANCH  19   8
ATOM      8  N   UNL     1      -4.376  -1.420  23.832  0.00  0.00    -0.182 NA
ATOM     40  H   UNL     1      -4.710  -1.365  22.863  0.00  0.00    +0.148 HD
BRANCH   8   1
ATOM      1  S   UNL     1      -3.291  -2.637  24.304  0.00  0.00    +0.059 S 
ATOM      5  O   UNL     1      -3.359  -3.738  23.362  0.00  0.00    -0.153 OA
ATOM      6  O   UNL     1      -3.453  -2.883  25.725  0.00  0.00    -0.153 OA
BRANCH   1  24
ATOM     24  C   UNL     1      -1.729  -1.836  24.095  0.00  0.00    +0.105 A 
ATOM     25  C   UNL     1      -0.605  -2.310  24.771  0.00  0.00    +0.030 A 
ATOM     26  C   UNL     1      -1.622  -0.729  23.253  0.00  0.00    +0.030 A 
ATOM     28  C   UNL     1       0.626  -1.676  24.606  0.00  0.00    +0.025 A 
ATOM     29  C   UNL     1      -0.390  -0.095  23.088  0.00  0.00    +0.025 A 
ATOM     30  C   UNL     1       0.734  -0.569  23.764  0.00  0.00    +0.033 A 
BRANCH  30  13
ATOM      7  O   UNL     1       2.406  -0.165  21.293  0.00  0.00    -0.276 OA
ATOM     13  N   UNL     1       1.967   0.064  23.598  0.00  0.00    -0.286 N 
ATOM     36  C   UNL     1       2.705   0.223  22.419  0.00  0.00    +0.214 C 
ATOM     37  C   UNL     1       3.993   0.970  22.661  0.00  0.00    +0.109 C 
ATOM     41  H   UNL     1       2.372   0.455  24.446  0.00  0.00    +0.155 HD
ENDBRANCH  30  13
ENDBRANCH   1  24
ENDBRANCH   8   1
ENDBRANCH  19   8
TORSDOF 8
ENDMDL
MODEL 5
REMARK VINA RESULT:       8.6      2.752      7.203
REMARK  Name = 11886270
REMARK  9 active torsions:
REMARK  status: ('A' for Active; 'I' for Inactive)
REMARK    1  A    between atoms: S_1  and  N_8
REMARK    2  A    between atoms: S_1  and  C_24
REMARK    3  A    between atoms: O_4  and  C_23
REMARK    4  A    between atoms: O_4  and  C_27
REMARK    5  A    between atoms: N_8  and  C_19
REMARK    6  A    between atoms: N_9  and  C_20
REMARK    7  A    between atoms: N_13  and  C_30
REMARK    8  A    between atoms: N_14  and  C_35
REMARK    9  A    between atoms: C_36  and  C_37
REMARK                            x       y       z     vdW  Elec       q    Type
REMARK                         _______ _______ _______ _____ _____    ______ ____
ROOT
ATOM      2  O   UNL     1      -3.161  -1.153  23.256  0.00  0.00    -0.370 OA
ATOM      3  O   UNL     1      -2.961  -0.926  26.400  0.00  0.00    -0.370 OA
ATOM     17  C   UNL     1      -3.596  -0.150  25.372  0.00  0.00    +0.170 C 
ATOM     18  C   UNL     1      -2.678  -0.147  24.164  0.00  0.00    +0.175 C 
ATOM     19  C   UNL     1      -4.846  -0.848  24.891  0.00  0.00    +0.133 C 
ATOM     20  C   UNL     1      -1.321  -0.550  24.707  0.00  0.00    +0.171 C 
ATOM     21  C   UNL     1      -4.321  -1.781  23.818  0.00  0.00    +0.183 C 
ATOM     22  C   UNL     1      -1.676  -1.370  25.941  0.00  0.00    +0.190 C 
ENDROOT
BRANCH  20   9
ATOM      9  N   UNL     1      -0.451   0.603  24.958  0.00  0.00    -0.187 N 
ATOM     10  N   UNL     1      -0.759   1.514  25.891  0.00  0.00    -0.041 NA
ATOM     11  N   UNL     1       1.159   2.054  24.891  0.00  0.00    -0.071 NA
ATOM     12  N   UNL     1       0.229   2.398  25.846  0.00  0.00    -0.020 NA
ATOM     23  C   UNL     1       0.718   0.939  24.354  0.00  0.00    +0.342 A 
BRANCH  23   4
ATOM      4  O   UNL     1       1.295   0.246  23.389  0.00  0.00    -0.423 OA
BRANCH   4  27
ATOM     27  C   UNL     1       2.672   0.111  23.287  0.00  0.00    +0.132 A 
ATOM     31  C   UNL     1       3.439   1.157  22.771  0.00  0.00    +0.048 A 
ATOM     32  C   UNL     1       3.290  -1.070  23.698  0.00  0.00    +0.048 A 
ATOM     33  C   UNL     1       4.823   1.020  22.668  0.00  0.00    +0.031 A 
ATOM     34  C   UNL     1       4.674  -1.205  23.594  0.00  0.00    +0.031 A 
ATOM     35  C   UNL     1       5.440  -0.160  23.080  0.00  0.00    +0.067 A 
BRANCH  35  14
ATOM     14  N   UNL     1       6.813  -0.295  22.976  0.00  0.00    -0.220 N 
ATOM     15  N   UNL     1       7.374  -1.289  22.271  0.00  0.00    -0.154 NA
ATOM     16  N   UNL     1       8.954   0.068  23.216  0.00  0.00    -0.222 NA
ATOM     38  C   UNL     1       7.759   0.507  23.535  0.00  0.00    +0.225 A 
ATOM     39  C   UNL     1       8.670  -1.025  22.449  0.00  0.00    +0.245 A 
ENDBRANCH  35  14
ENDBRANCH   4  27
ENDBRANCH  23   4
ENDBRANCH  20   9
BRANCH  19   8
ATOM      8  N   UNL     1      -5.772   0.137  24.284  0.00  0.00    -0.182 NA
ATOM     40  H   UNL     1      -5.854   0.147  23.261  0.00  0.00    +0.148 HD
BRANCH   8   1
ATOM      1  S   UNL     1      -6.340   1.443  25.209  0.00  0.00    +0.059 S 
ATOM      5  O   UNL     1      -6.534   1.014  26.582  0.00  0.00    -0.153 OA
ATOM      6  O   UNL     1      -7.419   2.091  24.488  0.00  0.00    -0.153 OA
BRANCH   1  24
ATOM     24  C   UNL     1      -4.959   2.545  25.172  0.00  0.00    +0.105 A 
ATOM     25  C   UNL     1      -4.505   3.134  26.352  0.00  0.00    +0.030 A 
ATOM     26  C   UNL     1      -4.323   2.825  23.963  0.00  0.00    +0.030 A 
ATOM     28  C   UNL     1      -3.415   4.004  26.322  0.00  0.00    +0.025 A 
ATOM     29  C   UNL     1      -3.233   3.695  23.933  0.00  0.00    +0.025 A 
ATOM     30  C   UNL     1      -2.779   4.285  25.112  0.00  0.00    +0.033 A 
BRANCH  30  13
ATOM      7  O   UNL     1      -0.273   4.220  23.446  0.00  0.00    -0.276 OA
ATOM     13  N   UNL     1      -1.688   5.155  25.083  0.00  0.00    -0.286 N 
ATOM     36  C   UNL     1      -0.541   5.076  24.283  0.00  0.00    +0.214 C 
ATOM     37  C   UNL     1       0.408   6.216  24.553  0.00  0.00    +0.109 C 
ATOM     41  H   UNL     1      -1.743   5.941  25.726  0.00  0.00    +0.155 HD
ENDBRANCH  30  13
ENDBRANCH   1  24
ENDBRANCH   8   1
ENDBRANCH  19   8
TORSDOF 8
ENDMDL
MODEL 6
REMARK VINA RESULT:       9.0      2.672      5.758
REMARK  Name = 11886270
REMARK  9 active torsions:
REMARK  status: ('A' for Active; 'I' for Inactive)
REMARK    1  A    between atoms: S_1  and  N_8
REMARK    2  A    between atoms: S_1  and  C_24
REMARK    3  A    between atoms: O_4  and  C_23
REMARK    4  A    between atoms: O_4  and  C_27
REMARK    5  A    between atoms: N_8  and  C_19
REMARK    6  A    between atoms: N_9  and  C_20
REMARK    7  A    between atoms: N_13  and  C_30
REMARK    8  A    between atoms: N_14  and  C_35
REMARK    9  A    between atoms: C_36  and  C_37
REMARK                            x       y       z     vdW  Elec       q    Type
REMARK                         _______ _______ _______ _____ _____    ______ ____
ROOT
ATOM      2  O   UNL     1      -5.508   2.847  25.662  0.00  0.00    -0.370 OA
ATOM      3  O   UNL     1      -4.172   2.296  22.854  0.00  0.00    -0.370 OA
ATOM     17  C   UNL     1      -4.023   1.736  24.168  0.00  0.00    +0.170 C 
ATOM     18  C   UNL     1      -4.157   2.869  25.169  0.00  0.00    +0.175 C 
ATOM     19  C   UNL     1      -5.184   0.822  24.479  0.00  0.00    +0.133 C 
ATOM     20  C   UNL     1      -3.923   4.130  24.360  0.00  0.00    +0.171 C 
ATOM     21  C   UNL     1      -6.224   1.773  25.037  0.00  0.00    +0.183 C 
ATOM     22  C   UNL     1      -4.339   3.717  22.954  0.00  0.00    +0.190 C 
ENDROOT
BRANCH  20   9
ATOM      9  N   UNL     1      -2.550   4.628  24.480  0.00  0.00    -0.187 N 
ATOM     10  N   UNL     1      -2.289   5.816  25.041  0.00  0.00    -0.041 NA
ATOM     11  N   UNL     1      -0.394   4.842  24.386  0.00  0.00    -0.071 NA
ATOM     12  N   UNL     1      -0.969   5.942  24.982  0.00  0.00    -0.020 NA
ATOM     23  C   UNL     1      -1.390   4.041  24.084  0.00  0.00    +0.342 A 
BRANCH  23   4
ATOM      4  O   UNL     1      -1.304   2.864  23.494  0.00  0.00    -0.423 OA
BRANCH   4  27
ATOM     27  C   UNL     1      -0.126   2.131  23.455  0.00  0.00    +0.132 A 
ATOM     31  C   UNL     1       1.081   2.732  23.814  0.00  0.00    +0.048 A 
ATOM     32  C   UNL     1      -0.149   0.794  23.058  0.00  0.00    +0.048 A 
ATOM     33  C   UNL     1       2.265   1.995  23.775  0.00  0.00    +0.031 A 
ATOM     34  C   UNL     1       1.035   0.059  23.019  0.00  0.00    +0.031 A 
ATOM     35  C   UNL     1       2.242   0.659  23.378  0.00  0.00    +0.067 A 
BRANCH  35  14
ATOM     14  N   UNL     1       3.416  -0.070  23.338  0.00  0.00    -0.220 N 
ATOM     15  N   UNL     1       3.444  -1.380  23.628  0.00  0.00    -0.154 NA
ATOM     16  N   UNL     1       5.523  -0.593  23.090  0.00  0.00    -0.222 NA
ATOM     38  C   UNL     1       4.656   0.390  23.020  0.00  0.00    +0.225 A 
ATOM     39  C   UNL     1       4.742  -1.648  23.463  0.00  0.00    +0.245 A 
ENDBRANCH  35  14
ENDBRANCH   4  27
ENDBRANCH  23   4
ENDBRANCH  20   9
BRANCH  19   8
ATOM      8  N   UNL     1      -4.793  -0.154  25.522  0.00  0.00    -0.182 NA
ATOM     40  H   UNL     1      -5.195  -0.037  26.460  0.00  0.00    +0.148 HD
BRANCH   8   1
ATOM      1  S   UNL     1      -3.439  -1.151  25.281  0.00  0.00    +0.059 S 
ATOM      5  O   UNL     1      -3.240  -1.358  23.859  0.00  0.00    -0.153 OA
ATOM      6  O   UNL     1      -3.531  -2.288  26.178  0.00  0.00    -0.153 OA
BRANCH   1  24
ATOM     24  C   UNL     1      -2.124  -0.130  25.873  0.00  0.00    +0.105 A 
ATOM     25  C   UNL     1      -0.870  -0.685  26.126  0.00  0.00    +0.030 A 
ATOM     26  C   UNL     1      -2.341   1.231  26.090  0.00  0.00    +0.030 A 
ATOM     28  C   UNL     1       0.168   0.121  26.594  0.00  0.00    +0.025 A 
ATOM     29  C   UNL     1      -1.303   2.037  26.558  0.00  0.00    +0.025 A 
ATOM     30  C   UNL     1      -0.049   1.482  26.811  0.00  0.00    +0.033 A 
BRANCH  30  13
ATOM      7  O   UNL     1       0.938   1.967  29.613  0.00  0.00    -0.276 OA
ATOM     13  N   UNL     1       0.990   2.288  27.278  0.00  0.00    -0.286 N 
ATOM     36  C   UNL     1       1.408   2.478  28.601  0.00  0.00    +0.214 C 
ATOM     37  C   UNL     1       2.573   3.432  28.689  0.00  0.00    +0.109 C 
ATOM     41  H   UNL     1       1.502   2.796  26.561  0.00  0.00    +0.155 HD
ENDBRANCH  30  13
ENDBRANCH   1  24
ENDBRANCH   8   1
ENDBRANCH  19   8
TORSDOF 8
ENDMDL
MODEL 7
REMARK VINA RESULT:       9.1      1.925      2.741
REMARK  Name = 11886270
REMARK  9 active torsions:
REMARK  status: ('A' for Active; 'I' for Inactive)
REMARK    1  A    between atoms: S_1  and  N_8
REMARK    2  A    between atoms: S_1  and  C_24
REMARK    3  A    between atoms: O_4  and  C_23
REMARK    4  A    between atoms: O_4  and  C_27
REMARK    5  A    between atoms: N_8  and  C_19
REMARK    6  A    between atoms: N_9  and  C_20
REMARK    7  A    between atoms: N_13  and  C_30
REMARK    8  A    between atoms: N_14  and  C_35
REMARK    9  A    between atoms: C_36  and  C_37
REMARK                            x       y       z     vdW  Elec       q    Type
REMARK                         _______ _______ _______ _____ _____    ______ ____
ROOT
ATOM      2  O   UNL     1      -4.120  -0.175  26.173  0.00  0.00    -0.370 OA
ATOM      3  O   UNL     1      -5.721   0.549  23.548  0.00  0.00    -0.370 OA
ATOM     17  C   UNL     1      -4.331   0.541  23.912  0.00  0.00    +0.170 C 
ATOM     18  C   UNL     1      -4.229   1.002  25.353  0.00  0.00    +0.175 C 
ATOM     19  C   UNL     1      -3.808  -0.876  23.933  0.00  0.00    +0.133 C 
ATOM     20  C   UNL     1      -5.545   1.703  25.629  0.00  0.00    +0.171 C 
ATOM     21  C   UNL     1      -4.144  -1.339  25.337  0.00  0.00    +0.183 C 
ATOM     22  C   UNL     1      -6.501   1.036  24.649  0.00  0.00    +0.190 C 
ENDROOT
BRANCH  20   9
ATOM      9  N   UNL     1      -5.443   3.160  25.502  0.00  0.00    -0.187 N 
ATOM     10  N   UNL     1      -6.464   3.960  25.842  0.00  0.00    -0.041 NA
ATOM     11  N   UNL     1      -4.744   5.176  25.111  0.00  0.00    -0.071 NA
ATOM     12  N   UNL     1      -6.030   5.190  25.602  0.00  0.00    -0.020 NA
ATOM     23  C   UNL     1      -4.400   3.909  25.058  0.00  0.00    +0.342 A 
BRANCH  23   4
ATOM      4  O   UNL     1      -3.245   3.422  24.646  0.00  0.00    -0.423 OA
BRANCH   4  27
ATOM     27  C   UNL     1      -2.165   3.237  25.498  0.00  0.00    +0.132 A 
ATOM     31  C   UNL     1      -2.253   3.635  26.832  0.00  0.00    +0.048 A 
ATOM     32  C   UNL     1      -0.992   2.653  25.020  0.00  0.00    +0.048 A 
ATOM     33  C   UNL     1      -1.168   3.449  27.688  0.00  0.00    +0.031 A 
ATOM     34  C   UNL     1       0.093   2.467  25.876  0.00  0.00    +0.031 A 
ATOM     35  C   UNL     1       0.005   2.865  27.210  0.00  0.00    +0.067 A 
BRANCH  35  14
ATOM     14  N   UNL     1       1.081   2.682  28.059  0.00  0.00    -0.220 N 
ATOM     15  N   UNL     1       0.954   2.045  29.234  0.00  0.00    -0.154 NA
ATOM     16  N   UNL     1       3.105   2.738  28.880  0.00  0.00    -0.222 NA
ATOM     38  C   UNL     1       2.363   3.091  27.857  0.00  0.00    +0.225 A 
ATOM     39  C   UNL     1       2.207   2.106  29.691  0.00  0.00    +0.245 A 
ENDBRANCH  35  14
ENDBRANCH   4  27
ENDBRANCH  23   4
ENDBRANCH  20   9
BRANCH  19   8
ATOM      8  N   UNL     1      -2.337  -0.873  23.750  0.00  0.00    -0.182 NA
ATOM     40  H   UNL     1      -1.974  -0.673  22.810  0.00  0.00    +0.148 HD
BRANCH   8   1
ATOM      1  S   UNL     1      -1.338  -1.572  24.931  0.00  0.00    +0.059 S 
ATOM      5  O   UNL     1      -1.495  -3.013  24.906  0.00  0.00    -0.153 OA
ATOM      6  O   UNL     1      -1.504  -0.842  26.174  0.00  0.00    -0.153 OA
BRANCH   1  24
ATOM     24  C   UNL     1       0.275  -1.187  24.319  0.00  0.00    +0.105 A 
ATOM     25  C   UNL     1       0.455  -0.105  23.458  0.00  0.00    +0.030 A 
ATOM     26  C   UNL     1       1.368  -1.968  24.695  0.00  0.00    +0.030 A 
ATOM     28  C   UNL     1       1.728   0.197  22.974  0.00  0.00    +0.025 A 
ATOM     29  C   UNL     1       2.641  -1.665  24.212  0.00  0.00    +0.025 A 
ATOM     30  C   UNL     1       2.821  -0.583  23.351  0.00  0.00    +0.033 A 
BRANCH  30  13
ATOM      7  O   UNL     1       5.495  -0.617  24.733  0.00  0.00    -0.276 OA
ATOM     13  N   UNL     1       4.094  -0.279  22.867  0.00  0.00    -0.286 N 
ATOM     36  C   UNL     1       5.312  -0.312  23.558  0.00  0.00    +0.214 C 
ATOM     37  C   UNL     1       6.468   0.087  22.675  0.00  0.00    +0.109 C 
ATOM     41  H   UNL     1       4.132  -0.001  21.889  0.00  0.00    +0.155 HD
ENDBRANCH  30  13
ENDBRANCH   1  24
ENDBRANCH   8   1
ENDBRANCH  19   8
TORSDOF 8
ENDMDL
