MODEL 1
REMARK VINA RESULT:      -2.5      0.000      0.000
REMARK  Name = 38029291
REMARK  13 active torsions:
REMARK  status: ('A' for Active; 'I' for Inactive)
REMARK    1  A    between atoms: S_1  and  N_5
REMARK    2  A    between atoms: S_1  and  C_21
REMARK    3  A    between atoms: N_5  and  C_15
REMARK    4  A    between atoms: N_6  and  C_22
REMARK    5  A    between atoms: C_8  and  C_12
REMARK    6  A    between atoms: C_9  and  C_15
REMARK    7  A    between atoms: C_11  and  C_16
REMARK    8  A    between atoms: C_12  and  C_17
REMARK    9  A    between atoms: C_12  and  C_18
REMARK   10  A    between atoms: C_13  and  C_19
REMARK   11  A    between atoms: C_16  and  C_20
REMARK   12  A    between atoms: C_22  and  C_23
REMARK   13  A    between atoms: C_28  and  C_29
REMARK                            x       y       z     vdW  Elec       q    Type
REMARK                         _______ _______ _______ _____ _____    ______ ____
ROOT
ATOM      8  C   UNL     1      -1.599   0.330  24.821  0.00  0.00    +0.000 C 
ATOM      9  C   UNL     1      -0.489  -0.710  24.526  0.00  0.00    +0.030 C 
ATOM     10  C   UNL     1      -2.622  -0.244  25.814  0.00  0.00    +0.012 C 
ATOM     11  C   UNL     1      -3.285  -1.531  25.287  0.00  0.00    +0.023 C 
ATOM     13  C   UNL     1      -2.265  -2.502  24.729  0.00  0.00    -0.073 C 
ATOM     14  C   UNL     1      -1.016  -2.120  24.407  0.00  0.00    -0.023 C 
ATOM     19  C   UNL     1      -2.699  -3.935  24.590  0.00  0.00    +0.039 C 
ENDROOT
BRANCH   8  12
ATOM     12  C   UNL     1      -1.022   1.639  25.370  0.00  0.00    -0.013 C 
ATOM     17  C   UNL     1      -0.217   1.375  26.639  0.00  0.00    +0.007 C 
ATOM     18  C   UNL     1      -0.161   2.325  24.315  0.00  0.00    +0.007 C 
ENDBRANCH   8  12
BRANCH   9  15
ATOM     15  C   UNL     1       0.287  -0.345  23.255  0.00  0.00    +0.113 C 
BRANCH  15   5
ATOM      5  N   UNL     1       1.708  -0.676  23.450  0.00  0.00    -0.194 NA
ATOM     30  H   UNL     1       1.938  -0.975  24.406  0.00  0.00    +0.148 HD
BRANCH   5   1
ATOM      1  S   UNL     1       2.899   0.266  22.667  0.00  0.00    +0.027 S 
ATOM      3  O   UNL     1       2.864   1.624  23.175  0.00  0.00    -0.158 OA
ATOM      4  O   UNL     1       2.832   0.005  21.242  0.00  0.00    -0.158 OA
ATOM     21  C   UNL     1       4.379  -0.508  23.279  0.00  0.00    +0.214 C 
ENDBRANCH   5   1
ENDBRANCH  15   5
ENDBRANCH   9  15
BRANCH  11  16
ATOM     16  C   UNL     1      -4.365  -1.211  24.248  0.00  0.00    +0.103 C 
BRANCH  16  20
ATOM      2  O   UNL     1      -3.985   0.952  23.234  0.00  0.00    -0.276 OA
ATOM      6  N   UNL     1      -5.486   0.763  24.997  0.00  0.00    -0.311 N 
ATOM     20  C   UNL     1      -4.567   0.278  24.079  0.00  0.00    +0.214 C 
ATOM     31  H   UNL     1      -5.919   0.123  25.658  0.00  0.00    +0.149 HD
BRANCH   6  22
ATOM     22  C   UNL     1      -5.874   2.152  25.068  0.00  0.00    +0.139 C 
BRANCH  22  23
ATOM     23  C   UNL     1      -4.687   3.070  25.042  0.00  0.00    -0.030 A 
ATOM     24  C   UNL     1      -4.006   3.364  26.223  0.00  0.00    +0.006 A 
ATOM     25  C   UNL     1      -4.263   3.628  23.835  0.00  0.00    +0.006 A 
ATOM     26  C   UNL     1      -2.902   4.216  26.199  0.00  0.00    +0.019 A 
ATOM     27  C   UNL     1      -3.159   4.480  23.811  0.00  0.00    +0.019 A 
ATOM     28  C   UNL     1      -2.478   4.774  24.992  0.00  0.00    +0.052 A 
BRANCH  28  29
ATOM      7  N   UNL     1      -0.429   6.357  24.948  0.00  0.00    -0.191 NA
ATOM     29  C   UNL     1      -1.348   5.648  24.967  0.00  0.00    +0.099 C 
ENDBRANCH  28  29
ENDBRANCH  22  23
ENDBRANCH   6  22
ENDBRANCH  16  20
ENDBRANCH  11  16
TORSDOF 9
ENDMDL
MODEL 2
REMARK VINA RESULT:      -1.9     14.622     17.428
REMARK  Name = 38029291
REMARK  13 active torsions:
REMARK  status: ('A' for Active; 'I' for Inactive)
REMARK    1  A    between atoms: S_1  and  N_5
REMARK    2  A    between atoms: S_1  and  C_21
REMARK    3  A    between atoms: N_5  and  C_15
REMARK    4  A    between atoms: N_6  and  C_22
REMARK    5  A    between atoms: C_8  and  C_12
REMARK    6  A    between atoms: C_9  and  C_15
REMARK    7  A    between atoms: C_11  and  C_16
REMARK    8  A    between atoms: C_12  and  C_17
REMARK    9  A    between atoms: C_12  and  C_18
REMARK   10  A    between atoms: C_13  and  C_19
REMARK   11  A    between atoms: C_16  and  C_20
REMARK   12  A    between atoms: C_22  and  C_23
REMARK   13  A    between atoms: C_28  and  C_29
REMARK                            x       y       z     vdW  Elec       q    Type
REMARK                         _______ _______ _______ _____ _____    ______ ____
ROOT
ATOM      8  C   UNL     1      -8.701  -9.941  12.281  0.00  0.00    +0.000 C 
ATOM      9  C   UNL     1      -9.154 -10.248  13.729  0.00  0.00    +0.030 C 
ATOM     10  C   UNL     1      -7.467 -10.781  11.915  0.00  0.00    +0.012 C 
ATOM     11  C   UNL     1      -6.282 -10.519  12.864  0.00  0.00    +0.023 C 
ATOM     13  C   UNL     1      -6.710 -10.541  14.317  0.00  0.00    -0.073 C 
ATOM     14  C   UNL     1      -7.999 -10.432  14.684  0.00  0.00    -0.023 C 
ATOM     19  C   UNL     1      -5.624 -10.737  15.340  0.00  0.00    +0.039 C 
ENDROOT
BRANCH   8  12
ATOM     12  C   UNL     1      -9.821 -10.196  11.267  0.00  0.00    -0.013 C 
ATOM     17  C   UNL     1     -10.606  -8.915  11.007  0.00  0.00    +0.007 C 
ATOM     18  C   UNL     1      -9.245 -10.752   9.968  0.00  0.00    +0.007 C 
ENDBRANCH   8  12
BRANCH   9  15
ATOM     15  C   UNL     1     -10.088  -9.154  14.261  0.00  0.00    +0.113 C 
BRANCH  15   5
ATOM      5  N   UNL     1     -10.323  -9.380  15.696  0.00  0.00    -0.194 NA
ATOM     30  H   UNL     1     -11.235  -9.806  15.906  0.00  0.00    +0.148 HD
BRANCH   5   1
ATOM      1  S   UNL     1      -9.776  -8.219  16.824  0.00  0.00    +0.027 S 
ATOM      3  O   UNL     1     -10.211  -6.897  16.419  0.00  0.00    -0.158 OA
ATOM      4  O   UNL     1      -8.380  -8.484  17.119  0.00  0.00    -0.158 OA
ATOM     21  C   UNL     1     -10.719  -8.690  18.257  0.00  0.00    +0.214 C 
ENDBRANCH   5   1
ENDBRANCH  15   5
ENDBRANCH   9  15
BRANCH  11  16
ATOM     16  C   UNL     1      -5.578  -9.203  12.518  0.00  0.00    +0.103 C 
BRANCH  16  20
ATOM      2  O   UNL     1      -4.750  -9.038  10.252  0.00  0.00    -0.276 OA
ATOM      6  N   UNL     1      -3.396  -9.958  11.901  0.00  0.00    -0.311 N 
ATOM     20  C   UNL     1      -4.558  -9.375  11.417  0.00  0.00    +0.214 C 
ATOM     31  H   UNL     1      -3.330 -10.201  12.885  0.00  0.00    +0.149 HD
BRANCH   6  22
ATOM     22  C   UNL     1      -2.250 -10.243  11.069  0.00  0.00    +0.139 C 
BRANCH  22  23
ATOM     23  C   UNL     1      -1.094  -9.336  11.374  0.00  0.00    -0.030 A 
ATOM     24  C   UNL     1      -0.080  -9.158  10.433  0.00  0.00    +0.006 A 
ATOM     25  C   UNL     1      -1.035  -8.668  12.598  0.00  0.00    +0.006 A 
ATOM     26  C   UNL     1       0.994  -8.315  10.716  0.00  0.00    +0.019 A 
ATOM     27  C   UNL     1       0.039  -7.825  12.880  0.00  0.00    +0.019 A 
ATOM     28  C   UNL     1       1.053  -7.647  11.940  0.00  0.00    +0.052 A 
BRANCH  28  29
ATOM      7  N   UNL     1       3.047  -6.081  12.467  0.00  0.00    -0.191 NA
ATOM     29  C   UNL     1       2.154  -6.783  12.230  0.00  0.00    +0.099 C 
ENDBRANCH  28  29
ENDBRANCH  22  23
ENDBRANCH   6  22
ENDBRANCH  16  20
ENDBRANCH  11  16
TORSDOF 9
ENDMDL
MODEL 3
REMARK VINA RESULT:      -1.9      2.675      6.842
REMARK  Name = 38029291
REMARK  13 active torsions:
REMARK  status: ('A' for Active; 'I' for Inactive)
REMARK    1  A    between atoms: S_1  and  N_5
REMARK    2  A    between atoms: S_1  and  C_21
REMARK    3  A    between atoms: N_5  and  C_15
REMARK    4  A    between atoms: N_6  and  C_22
REMARK    5  A    between atoms: C_8  and  C_12
REMARK    6  A    between atoms: C_9  and  C_15
REMARK    7  A    between atoms: C_11  and  C_16
REMARK    8  A    between atoms: C_12  and  C_17
REMARK    9  A    between atoms: C_12  and  C_18
REMARK   10  A    between atoms: C_13  and  C_19
REMARK   11  A    between atoms: C_16  and  C_20
REMARK   12  A    between atoms: C_22  and  C_23
REMARK   13  A    between atoms: C_28  and  C_29
REMARK                            x       y       z     vdW  Elec       q    Type
REMARK                         _______ _______ _______ _____ _____    ______ ____
ROOT
ATOM      8  C   UNL     1      -3.967   2.532  25.280  0.00  0.00    +0.000 C 
ATOM      9  C   UNL     1      -4.526   1.403  24.378  0.00  0.00    +0.030 C 
ATOM     10  C   UNL     1      -3.396   3.671  24.421  0.00  0.00    +0.012 C 
ATOM     11  C   UNL     1      -2.269   3.188  23.488  0.00  0.00    +0.023 C 
ATOM     13  C   UNL     1      -2.649   1.915  22.759  0.00  0.00    -0.073 C 
ATOM     14  C   UNL     1      -3.669   1.137  23.163  0.00  0.00    -0.023 C 
ATOM     19  C   UNL     1      -1.857   1.579  21.525  0.00  0.00    +0.039 C 
ENDROOT
BRANCH   8  12
ATOM     12  C   UNL     1      -5.035   3.084  26.229  0.00  0.00    -0.013 C 
ATOM     17  C   UNL     1      -5.565   4.419  25.714  0.00  0.00    +0.007 C 
ATOM     18  C   UNL     1      -6.170   2.078  26.395  0.00  0.00    +0.007 C 
ENDBRANCH   8  12
BRANCH   9  15
ATOM     15  C   UNL     1      -4.708   0.102  25.169  0.00  0.00    +0.113 C 
BRANCH  15   5
ATOM      5  N   UNL     1      -3.421  -0.607  25.230  0.00  0.00    -0.194 NA
ATOM     30  H   UNL     1      -2.616  -0.031  24.952  0.00  0.00    +0.148 HD
BRANCH   5   1
ATOM      1  S   UNL     1      -3.348  -2.248  24.760  0.00  0.00    +0.027 S 
ATOM      3  O   UNL     1      -4.239  -2.478  23.639  0.00  0.00    -0.158 OA
ATOM      4  O   UNL     1      -3.425  -3.074  25.950  0.00  0.00    -0.158 OA
ATOM     21  C   UNL     1      -1.677  -2.340  24.158  0.00  0.00    +0.214 C 
ENDBRANCH   5   1
ENDBRANCH  15   5
ENDBRANCH   9  15
BRANCH  11  16
ATOM     16  C   UNL     1      -0.955   3.009  24.256  0.00  0.00    +0.103 C 
BRANCH  16  20
ATOM      2  O   UNL     1      -1.005   0.826  25.296  0.00  0.00    -0.276 OA
ATOM      6  N   UNL     1       0.309   1.164  23.409  0.00  0.00    -0.311 N 
ATOM     20  C   UNL     1      -0.576   1.553  24.404  0.00  0.00    +0.214 C 
ATOM     31  H   UNL     1       0.606   1.840  22.711  0.00  0.00    +0.149 HD
BRANCH   6  22
ATOM     22  C   UNL     1       0.841  -0.175  23.305  0.00  0.00    +0.139 C 
BRANCH  22  23
ATOM     23  C   UNL     1       2.341  -0.183  23.264  0.00  0.00    -0.030 A 
ATOM     24  C   UNL     1       3.046  -1.286  23.744  0.00  0.00    +0.006 A 
ATOM     25  C   UNL     1       3.030   0.913  22.743  0.00  0.00    +0.006 A 
ATOM     26  C   UNL     1       4.440  -1.294  23.706  0.00  0.00    +0.019 A 
ATOM     27  C   UNL     1       4.424   0.905  22.705  0.00  0.00    +0.019 A 
ATOM     28  C   UNL     1       5.130  -0.198  23.185  0.00  0.00    +0.052 A 
BRANCH  28  29
ATOM      7  N   UNL     1       7.718  -0.211  23.112  0.00  0.00    -0.191 NA
ATOM     29  C   UNL     1       6.558  -0.206  23.145  0.00  0.00    +0.099 C 
ENDBRANCH  28  29
ENDBRANCH  22  23
ENDBRANCH   6  22
ENDBRANCH  16  20
ENDBRANCH  11  16
TORSDOF 9
ENDMDL
MODEL 4
REMARK VINA RESULT:      -1.1      2.421      5.564
REMARK  Name = 38029291
REMARK  13 active torsions:
REMARK  status: ('A' for Active; 'I' for Inactive)
REMARK    1  A    between atoms: S_1  and  N_5
REMARK    2  A    between atoms: S_1  and  C_21
REMARK    3  A    between atoms: N_5  and  C_15
REMARK    4  A    between atoms: N_6  and  C_22
REMARK    5  A    between atoms: C_8  and  C_12
REMARK    6  A    between atoms: C_9  and  C_15
REMARK    7  A    between atoms: C_11  and  C_16
REMARK    8  A    between atoms: C_12  and  C_17
REMARK    9  A    between atoms: C_12  and  C_18
REMARK   10  A    between atoms: C_13  and  C_19
REMARK   11  A    between atoms: C_16  and  C_20
REMARK   12  A    between atoms: C_22  and  C_23
REMARK   13  A    between atoms: C_28  and  C_29
REMARK                            x       y       z     vdW  Elec       q    Type
REMARK                         _______ _______ _______ _____ _____    ______ ____
ROOT
ATOM      8  C   UNL     1      -3.336   2.294  23.817  0.00  0.00    +0.000 C 
ATOM      9  C   UNL     1      -3.699   3.614  24.543  0.00  0.00    +0.030 C 
ATOM     10  C   UNL     1      -4.584   1.415  23.644  0.00  0.00    +0.012 C 
ATOM     11  C   UNL     1      -5.242   1.066  24.993  0.00  0.00    +0.023 C 
ATOM     13  C   UNL     1      -5.389   2.286  25.880  0.00  0.00    -0.073 C 
ATOM     14  C   UNL     1      -4.702   3.420  25.655  0.00  0.00    -0.023 C 
ATOM     19  C   UNL     1      -6.381   2.188  27.006  0.00  0.00    +0.039 C 
ENDROOT
BRANCH   8  12
ATOM     12  C   UNL     1      -2.692   2.554  22.451  0.00  0.00    -0.013 C 
ATOM     17  C   UNL     1      -2.420   1.237  21.732  0.00  0.00    +0.007 C 
ATOM     18  C   UNL     1      -3.584   3.458  21.606  0.00  0.00    +0.007 C 
ENDBRANCH   8  12
BRANCH   9  15
ATOM     15  C   UNL     1      -2.447   4.303  25.097  0.00  0.00    +0.113 C 
BRANCH  15   5
ATOM      5  N   UNL     1      -1.900   3.493  26.196  0.00  0.00    -0.194 NA
ATOM     30  H   UNL     1      -1.914   3.966  27.109  0.00  0.00    +0.148 HD
BRANCH   5   1
ATOM      1  S   UNL     1      -0.542   2.498  25.905  0.00  0.00    +0.027 S 
ATOM      3  O   UNL     1      -0.972   1.130  25.693  0.00  0.00    -0.158 OA
ATOM      4  O   UNL     1       0.479   2.812  26.886  0.00  0.00    -0.158 OA
ATOM     21  C   UNL     1       0.007   3.148  24.343  0.00  0.00    +0.214 C 
ENDBRANCH   5   1
ENDBRANCH  15   5
ENDBRANCH   9  15
BRANCH  11  16
ATOM     16  C   UNL     1      -4.469  -0.045  25.713  0.00  0.00    +0.103 C 
BRANCH  16  20
ATOM      2  O   UNL     1      -4.472  -1.580  23.844  0.00  0.00    -0.276 OA
ATOM      6  N   UNL     1      -2.499  -1.205  25.013  0.00  0.00    -0.311 N 
ATOM     20  C   UNL     1      -3.848  -1.025  24.744  0.00  0.00    +0.214 C 
ATOM     31  H   UNL     1      -2.070  -0.698  25.781  0.00  0.00    +0.149 HD
BRANCH   6  22
ATOM     22  C   UNL     1      -1.653  -2.088  24.245  0.00  0.00    +0.139 C 
BRANCH  22  23
ATOM     23  C   UNL     1      -0.360  -1.433  23.858  0.00  0.00    -0.030 A 
ATOM     24  C   UNL     1       0.809  -1.723  24.561  0.00  0.00    +0.006 A 
ATOM     25  C   UNL     1      -0.326  -0.533  22.791  0.00  0.00    +0.006 A 
ATOM     26  C   UNL     1       2.011  -1.114  24.200  0.00  0.00    +0.019 A 
ATOM     27  C   UNL     1       0.875   0.076  22.430  0.00  0.00    +0.019 A 
ATOM     28  C   UNL     1       2.044  -0.215  23.133  0.00  0.00    +0.052 A 
BRANCH  28  29
ATOM      7  N   UNL     1       4.274   0.918  22.464  0.00  0.00    -0.191 NA
ATOM     29  C   UNL     1       3.274   0.410  22.764  0.00  0.00    +0.099 C 
ENDBRANCH  28  29
ENDBRANCH  22  23
ENDBRANCH   6  22
ENDBRANCH  16  20
ENDBRANCH  11  16
TORSDOF 9
ENDMDL
MODEL 5
REMARK VINA RESULT:      -0.5      3.043      5.925
REMARK  Name = 38029291
REMARK  13 active torsions:
REMARK  status: ('A' for Active; 'I' for Inactive)
REMARK    1  A    between atoms: S_1  and  N_5
REMARK    2  A    between atoms: S_1  and  C_21
REMARK    3  A    between atoms: N_5  and  C_15
REMARK    4  A    between atoms: N_6  and  C_22
REMARK    5  A    between atoms: C_8  and  C_12
REMARK    6  A    between atoms: C_9  and  C_15
REMARK    7  A    between atoms: C_11  and  C_16
REMARK    8  A    between atoms: C_12  and  C_17
REMARK    9  A    between atoms: C_12  and  C_18
REMARK   10  A    between atoms: C_13  and  C_19
REMARK   11  A    between atoms: C_16  and  C_20
REMARK   12  A    between atoms: C_22  and  C_23
REMARK   13  A    between atoms: C_28  and  C_29
REMARK                            x       y       z     vdW  Elec       q    Type
REMARK                         _______ _______ _______ _____ _____    ______ ____
ROOT
ATOM      8  C   UNL     1      -1.349   1.835  25.069  0.00  0.00    +0.000 C 
ATOM      9  C   UNL     1      -0.105   2.520  25.686  0.00  0.00    +0.030 C 
ATOM     10  C   UNL     1      -1.799   2.579  23.802  0.00  0.00    +0.012 C 
ATOM     11  C   UNL     1      -2.144   4.054  24.085  0.00  0.00    +0.023 C 
ATOM     13  C   UNL     1      -1.079   4.729  24.926  0.00  0.00    -0.073 C 
ATOM     14  C   UNL     1      -0.168   4.028  25.623  0.00  0.00    -0.023 C 
ATOM     19  C   UNL     1      -1.057   6.233  24.910  0.00  0.00    +0.039 C 
ENDROOT
BRANCH   8  12
ATOM     12  C   UNL     1      -1.083   0.363  24.737  0.00  0.00    -0.013 C 
ATOM     17  C   UNL     1       0.017   0.244  23.687  0.00  0.00    +0.007 C 
ATOM     18  C   UNL     1      -0.712  -0.408  26.000  0.00  0.00    +0.007 C 
ENDBRANCH   8  12
BRANCH   9  15
ATOM     15  C   UNL     1       0.108   2.077  27.138  0.00  0.00    +0.113 C 
BRANCH  15   5
ATOM      5  N   UNL     1       1.471   2.443  27.556  0.00  0.00    -0.194 NA
ATOM     30  H   UNL     1       2.209   2.035  26.968  0.00  0.00    +0.148 HD
BRANCH   5   1
ATOM      1  S   UNL     1       1.833   2.550  29.222  0.00  0.00    +0.027 S 
ATOM      3  O   UNL     1       2.622   1.404  29.628  0.00  0.00    -0.158 OA
ATOM      4  O   UNL     1       0.622   2.908  29.936  0.00  0.00    -0.158 OA
ATOM     21  C   UNL     1       2.896   3.977  29.232  0.00  0.00    +0.214 C 
ENDBRANCH   5   1
ENDBRANCH  15   5
ENDBRANCH   9  15
BRANCH  11  16
ATOM     16  C   UNL     1      -3.524   4.183  24.740  0.00  0.00    +0.103 C 
BRANCH  16  20
ATOM      2  O   UNL     1      -4.797   2.627  23.396  0.00  0.00    -0.276 OA
ATOM      6  N   UNL     1      -4.631   2.288  25.688  0.00  0.00    -0.311 N 
ATOM     20  C   UNL     1      -4.383   2.962  24.502  0.00  0.00    +0.214 C 
ATOM     31  H   UNL     1      -4.241   2.643  26.557  0.00  0.00    +0.149 HD
BRANCH   6  22
ATOM     22  C   UNL     1      -5.427   1.085  25.761  0.00  0.00    +0.139 C 
BRANCH  22  23
ATOM     23  C   UNL     1      -4.688  -0.111  25.237  0.00  0.00    -0.030 A 
ATOM     24  C   UNL     1      -4.664  -0.372  23.867  0.00  0.00    +0.006 A 
ATOM     25  C   UNL     1      -4.022  -0.962  26.120  0.00  0.00    +0.006 A 
ATOM     26  C   UNL     1      -3.976  -1.483  23.379  0.00  0.00    +0.019 A 
ATOM     27  C   UNL     1      -3.334  -2.073  25.632  0.00  0.00    +0.019 A 
ATOM     28  C   UNL     1      -3.311  -2.334  24.263  0.00  0.00    +0.052 A 
BRANCH  28  29
ATOM      7  N   UNL     1      -2.035  -4.397  23.357  0.00  0.00    -0.191 NA
ATOM     29  C   UNL     1      -2.606  -3.472  23.764  0.00  0.00    +0.099 C 
ENDBRANCH  28  29
ENDBRANCH  22  23
ENDBRANCH   6  22
ENDBRANCH  16  20
ENDBRANCH  11  16
TORSDOF 9
ENDMDL
MODEL 6
REMARK VINA RESULT:      -0.3      1.738      3.500
REMARK  Name = 38029291
REMARK  13 active torsions:
REMARK  status: ('A' for Active; 'I' for Inactive)
REMARK    1  A    between atoms: S_1  and  N_5
REMARK    2  A    between atoms: S_1  and  C_21
REMARK    3  A    between atoms: N_5  and  C_15
REMARK    4  A    between atoms: N_6  and  C_22
REMARK    5  A    between atoms: C_8  and  C_12
REMARK    6  A    between atoms: C_9  and  C_15
REMARK    7  A    between atoms: C_11  and  C_16
REMARK    8  A    between atoms: C_12  and  C_17
REMARK    9  A    between atoms: C_12  and  C_18
REMARK   10  A    between atoms: C_13  and  C_19
REMARK   11  A    between atoms: C_16  and  C_20
REMARK   12  A    between atoms: C_22  and  C_23
REMARK   13  A    between atoms: C_28  and  C_29
REMARK                            x       y       z     vdW  Elec       q    Type
REMARK                         _______ _______ _______ _____ _____    ______ ____
ROOT
ATOM      8  C   UNL     1      -3.008  -0.877  24.871  0.00  0.00    +0.000 C 
ATOM      9  C   UNL     1      -1.899  -0.165  24.057  0.00  0.00    +0.030 C 
ATOM     10  C   UNL     1      -4.377  -0.679  24.201  0.00  0.00    +0.012 C 
ATOM     11  C   UNL     1      -4.749   0.810  24.067  0.00  0.00    +0.023 C 
ATOM     13  C   UNL     1      -3.600   1.630  23.515  0.00  0.00    -0.073 C 
ATOM     14  C   UNL     1      -2.335   1.172  23.507  0.00  0.00    -0.023 C 
ATOM     19  C   UNL     1      -3.945   2.972  22.931  0.00  0.00    +0.039 C 
ENDROOT
BRANCH   8  12
ATOM     12  C   UNL     1      -2.723  -2.374  25.034  0.00  0.00    -0.013 C 
ATOM     17  C   UNL     1      -3.920  -3.197  24.568  0.00  0.00    +0.007 C 
ATOM     18  C   UNL     1      -1.465  -2.763  24.263  0.00  0.00    +0.007 C 
ENDBRANCH   8  12
BRANCH   9  15
ATOM     15  C   UNL     1      -0.627   0.016  24.894  0.00  0.00    +0.113 C 
BRANCH  15   5
ATOM      5  N   UNL     1       0.481  -0.701  24.244  0.00  0.00    -0.194 NA
ATOM     30  H   UNL     1       0.957  -1.375  24.859  0.00  0.00    +0.148 HD
BRANCH   5   1
ATOM      1  S   UNL     1       1.491   0.136  23.150  0.00  0.00    +0.027 S 
ATOM      3  O   UNL     1       1.668   1.505  23.594  0.00  0.00    -0.158 OA
ATOM      4  O   UNL     1       1.049  -0.154  21.799  0.00  0.00    -0.158 OA
ATOM     21  C   UNL     1       3.027  -0.724  23.402  0.00  0.00    +0.214 C 
ENDBRANCH   5   1
ENDBRANCH  15   5
ENDBRANCH   9  15
BRANCH  11  16
ATOM     16  C   UNL     1      -5.238   1.380  25.403  0.00  0.00    +0.103 C 
BRANCH  16  20
ATOM      2  O   UNL     1      -5.242   3.798  25.383  0.00  0.00    -0.276 OA
ATOM      6  N   UNL     1      -3.431   2.664  26.298  0.00  0.00    -0.311 N 
ATOM     20  C   UNL     1      -4.669   2.753  25.678  0.00  0.00    +0.214 C 
ATOM     31  H   UNL     1      -3.039   1.750  26.504  0.00  0.00    +0.149 HD
BRANCH   6  22
ATOM     22  C   UNL     1      -2.654   3.821  26.678  0.00  0.00    +0.139 C 
BRANCH  22  23
ATOM     23  C   UNL     1      -1.757   4.286  25.569  0.00  0.00    -0.030 A 
ATOM     24  C   UNL     1      -1.909   5.566  25.037  0.00  0.00    +0.006 A 
ATOM     25  C   UNL     1      -0.768   3.437  25.070  0.00  0.00    +0.006 A 
ATOM     26  C   UNL     1      -1.075   5.998  24.006  0.00  0.00    +0.019 A 
ATOM     27  C   UNL     1       0.066   3.869  24.039  0.00  0.00    +0.019 A 
ATOM     28  C   UNL     1      -0.086   5.149  23.508  0.00  0.00    +0.052 A 
BRANCH  28  29
ATOM      7  N   UNL     1       1.463   5.951  21.594  0.00  0.00    -0.191 NA
ATOM     29  C   UNL     1       0.769   5.591  22.452  0.00  0.00    +0.099 C 
ENDBRANCH  28  29
ENDBRANCH  22  23
ENDBRANCH   6  22
ENDBRANCH  16  20
ENDBRANCH  11  16
TORSDOF 9
ENDMDL
MODEL 7
REMARK VINA RESULT:      -0.2      2.933      5.260
REMARK  Name = 38029291
REMARK  13 active torsions:
REMARK  status: ('A' for Active; 'I' for Inactive)
REMARK    1  A    between atoms: S_1  and  N_5
REMARK    2  A    between atoms: S_1  and  C_21
REMARK    3  A    between atoms: N_5  and  C_15
REMARK    4  A    between atoms: N_6  and  C_22
REMARK    5  A    between atoms: C_8  and  C_12
REMARK    6  A    between atoms: C_9  and  C_15
REMARK    7  A    between atoms: C_11  and  C_16
REMARK    8  A    between atoms: C_12  and  C_17
REMARK    9  A    between atoms: C_12  and  C_18
REMARK   10  A    between atoms: C_13  and  C_19
REMARK   11  A    between atoms: C_16  and  C_20
REMARK   12  A    between atoms: C_22  and  C_23
REMARK   13  A    between atoms: C_28  and  C_29
REMARK                            x       y       z     vdW  Elec       q    Type
REMARK                         _______ _______ _______ _____ _____    ______ ____
ROOT
ATOM      8  C   UNL     1       0.522   0.678  23.528  0.00  0.00    +0.000 C 
ATOM      9  C   UNL     1      -0.544  -0.029  24.401  0.00  0.00    +0.030 C 
ATOM     10  C   UNL     1       1.350   1.655  24.378  0.00  0.00    +0.012 C 
ATOM     11  C   UNL     1       0.473   2.731  25.047  0.00  0.00    +0.023 C 
ATOM     13  C   UNL     1      -0.752   2.130  25.705  0.00  0.00    -0.073 C 
ATOM     14  C   UNL     1      -1.184   0.890  25.414  0.00  0.00    -0.023 C 
ATOM     19  C   UNL     1      -1.445   2.971  26.741  0.00  0.00    +0.039 C 
ENDROOT
BRANCH   8  12
ATOM     12  C   UNL     1       1.453  -0.326  22.840  0.00  0.00    -0.013 C 
ATOM     17  C   UNL     1       0.977  -0.606  21.418  0.00  0.00    +0.007 C 
ATOM     18  C   UNL     1       2.887   0.193  22.839  0.00  0.00    +0.007 C 
ENDBRANCH   8  12
BRANCH   9  15
ATOM     15  C   UNL     1      -1.634  -0.670  23.533  0.00  0.00    +0.113 C 
BRANCH  15   5
ATOM      5  N   UNL     1      -1.866  -2.048  23.994  0.00  0.00    -0.194 NA
ATOM     30  H   UNL     1      -1.409  -2.763  23.414  0.00  0.00    +0.148 HD
BRANCH   5   1
ATOM      1  S   UNL     1      -3.400  -2.474  24.614  0.00  0.00    +0.027 S 
ATOM      3  O   UNL     1      -3.404  -3.872  24.995  0.00  0.00    -0.158 OA
ATOM      4  O   UNL     1      -4.419  -1.942  23.729  0.00  0.00    -0.158 OA
ATOM     21  C   UNL     1      -3.430  -1.501  26.102  0.00  0.00    +0.214 C 
ENDBRANCH   5   1
ENDBRANCH  15   5
ENDBRANCH   9  15
BRANCH  11  16
ATOM     16  C   UNL     1       0.078   3.822  24.045  0.00  0.00    +0.103 C 
BRANCH  16  20
ATOM      2  O   UNL     1      -2.102   4.694  24.625  0.00  0.00    -0.276 OA
ATOM      6  N   UNL     1      -1.909   3.151  22.898  0.00  0.00    -0.311 N 
ATOM     20  C   UNL     1      -1.421   3.959  23.914  0.00  0.00    +0.214 C 
ATOM     31  H   UNL     1      -1.264   2.577  22.362  0.00  0.00    +0.149 HD
BRANCH   6  22
ATOM     22  C   UNL     1      -3.309   3.079  22.550  0.00  0.00    +0.139 C 
BRANCH  22  23
ATOM     23  C   UNL     1      -4.159   2.672  23.717  0.00  0.00    -0.030 A 
ATOM     24  C   UNL     1      -4.359   1.321  23.998  0.00  0.00    +0.006 A 
ATOM     25  C   UNL     1      -4.749   3.647  24.524  0.00  0.00    +0.006 A 
ATOM     26  C   UNL     1      -5.149   0.943  25.083  0.00  0.00    +0.019 A 
ATOM     27  C   UNL     1      -5.539   3.268  25.609  0.00  0.00    +0.019 A 
ATOM     28  C   UNL     1      -5.739   1.917  25.890  0.00  0.00    +0.052 A 
BRANCH  28  29
ATOM      7  N   UNL     1      -7.207   1.217  27.905  0.00  0.00    -0.191 NA
ATOM     29  C   UNL     1      -6.548   1.531  27.002  0.00  0.00    +0.099 C 
ENDBRANCH  28  29
ENDBRANCH  22  23
ENDBRANCH   6  22
ENDBRANCH  16  20
ENDBRANCH  11  16
TORSDOF 9
ENDMDL
MODEL 8
REMARK VINA RESULT:      -0.1      2.976      6.886
REMARK  Name = 38029291
REMARK  13 active torsions:
REMARK  status: ('A' for Active; 'I' for Inactive)
REMARK    1  A    between atoms: S_1  and  N_5
REMARK    2  A    between atoms: S_1  and  C_21
REMARK    3  A    between atoms: N_5  and  C_15
REMARK    4  A    between atoms: N_6  and  C_22
REMARK    5  A    between atoms: C_8  and  C_12
REMARK    6  A    between atoms: C_9  and  C_15
REMARK    7  A    between atoms: C_11  and  C_16
REMARK    8  A    between atoms: C_12  and  C_17
REMARK    9  A    between atoms: C_12  and  C_18
REMARK   10  A    between atoms: C_13  and  C_19
REMARK   11  A    between atoms: C_16  and  C_20
REMARK   12  A    between atoms: C_22  and  C_23
REMARK   13  A    between atoms: C_28  and  C_29
REMARK                            x       y       z     vdW  Elec       q    Type
REMARK                         _______ _______ _______ _____ _____    ______ ____
ROOT
ATOM      8  C   UNL     1      -2.943   0.792  23.943  0.00  0.00    +0.000 C 
ATOM      9  C   UNL     1      -4.392   0.418  24.345  0.00  0.00    +0.030 C 
ATOM     10  C   UNL     1      -2.322  -0.318  23.080  0.00  0.00    +0.012 C 
ATOM     11  C   UNL     1      -2.292  -1.674  23.810  0.00  0.00    +0.023 C 
ATOM     13  C   UNL     1      -3.620  -1.990  24.466  0.00  0.00    -0.073 C 
ATOM     14  C   UNL     1      -4.552  -1.045  24.685  0.00  0.00    -0.023 C 
ATOM     19  C   UNL     1      -3.873  -3.429  24.825  0.00  0.00    +0.039 C 
ENDROOT
BRANCH   8  12
ATOM     12  C   UNL     1      -2.888   2.125  23.190  0.00  0.00    -0.013 C 
ATOM     17  C   UNL     1      -1.810   3.027  23.784  0.00  0.00    +0.007 C 
ATOM     18  C   UNL     1      -2.636   1.887  21.705  0.00  0.00    +0.007 C 
ENDBRANCH   8  12
BRANCH   9  15
ATOM     15  C   UNL     1      -4.878   1.272  25.522  0.00  0.00    +0.113 C 
BRANCH  15   5
ATOM      5  N   UNL     1      -5.726   2.358  25.007  0.00  0.00    -0.194 NA
ATOM     30  H   UNL     1      -6.166   2.149  24.102  0.00  0.00    +0.148 HD
BRANCH   5   1
ATOM      1  S   UNL     1      -5.233   3.979  25.228  0.00  0.00    +0.027 S 
ATOM      3  O   UNL     1      -6.298   4.735  25.857  0.00  0.00    -0.158 OA
ATOM      4  O   UNL     1      -4.616   4.445  24.000  0.00  0.00    -0.158 OA
ATOM     21  C   UNL     1      -3.935   3.763  26.425  0.00  0.00    +0.214 C 
ENDBRANCH   5   1
ENDBRANCH  15   5
ENDBRANCH   9  15
BRANCH  11  16
ATOM     16  C   UNL     1      -1.149  -1.727  24.830  0.00  0.00    +0.103 C 
BRANCH  16  20
ATOM      2  O   UNL     1      -0.340   0.318  25.837  0.00  0.00    -0.276 OA
ATOM      6  N   UNL     1       0.318  -0.232  23.678  0.00  0.00    -0.311 N 
ATOM     20  C   UNL     1      -0.362  -0.437  24.869  0.00  0.00    +0.214 C 
ATOM     31  H   UNL     1       0.239  -0.917  22.932  0.00  0.00    +0.149 HD
BRANCH   6  22
ATOM     22  C   UNL     1       1.151   0.922  23.433  0.00  0.00    +0.139 C 
BRANCH  22  23
ATOM     23  C   UNL     1       2.600   0.554  23.307  0.00  0.00    -0.030 A 
ATOM     24  C   UNL     1       3.018  -0.746  23.590  0.00  0.00    +0.006 A 
ATOM     25  C   UNL     1       3.531   1.513  22.905  0.00  0.00    +0.006 A 
ATOM     26  C   UNL     1       4.364  -1.088  23.473  0.00  0.00    +0.019 A 
ATOM     27  C   UNL     1       4.878   1.171  22.788  0.00  0.00    +0.019 A 
ATOM     28  C   UNL     1       5.295  -0.129  23.071  0.00  0.00    +0.052 A 
BRANCH  28  29
ATOM      7  N   UNL     1       7.797  -0.763  22.854  0.00  0.00    -0.191 NA
ATOM     29  C   UNL     1       6.675  -0.479  22.951  0.00  0.00    +0.099 C 
ENDBRANCH  28  29
ENDBRANCH  22  23
ENDBRANCH   6  22
ENDBRANCH  16  20
ENDBRANCH  11  16
TORSDOF 9
ENDMDL
MODEL 9
REMARK VINA RESULT:       0.2      2.587      6.102
REMARK  Name = 38029291
REMARK  13 active torsions:
REMARK  status: ('A' for Active; 'I' for Inactive)
REMARK    1  A    between atoms: S_1  and  N_5
REMARK    2  A    between atoms: S_1  and  C_21
REMARK    3  A    between atoms: N_5  and  C_15
REMARK    4  A    between atoms: N_6  and  C_22
REMARK    5  A    between atoms: C_8  and  C_12
REMARK    6  A    between atoms: C_9  and  C_15
REMARK    7  A    between atoms: C_11  and  C_16
REMARK    8  A    between atoms: C_12  and  C_17
REMARK    9  A    between atoms: C_12  and  C_18
REMARK   10  A    between atoms: C_13  and  C_19
REMARK   11  A    between atoms: C_16  and  C_20
REMARK   12  A    between atoms: C_22  and  C_23
REMARK   13  A    between atoms: C_28  and  C_29
REMARK                            x       y       z     vdW  Elec       q    Type
REMARK                         _______ _______ _______ _____ _____    ______ ____
ROOT
ATOM      8  C   UNL     1      -3.125   0.530  23.660  0.00  0.00    +0.000 C 
ATOM      9  C   UNL     1      -3.755   0.765  25.055  0.00  0.00    +0.030 C 
ATOM     10  C   UNL     1      -3.469  -0.877  23.146  0.00  0.00    +0.012 C 
ATOM     11  C   UNL     1      -2.973  -1.982  24.098  0.00  0.00    +0.023 C 
ATOM     13  C   UNL     1      -3.327  -1.683  25.541  0.00  0.00    -0.073 C 
ATOM     14  C   UNL     1      -3.687  -0.452  25.947  0.00  0.00    -0.023 C 
ATOM     19  C   UNL     1      -3.302  -2.842  26.499  0.00  0.00    +0.039 C 
ENDROOT
BRANCH   8  12
ATOM     12  C   UNL     1      -3.585   1.579  22.643  0.00  0.00    -0.013 C 
ATOM     17  C   UNL     1      -4.169   2.794  23.358  0.00  0.00    +0.007 C 
ATOM     18  C   UNL     1      -2.426   1.988  21.739  0.00  0.00    +0.007 C 
ENDBRANCH   8  12
BRANCH   9  15
ATOM     15  C   UNL     1      -3.100   1.956  25.765  0.00  0.00    +0.113 C 
BRANCH  15   5
ATOM      5  N   UNL     1      -1.652   1.930  25.508  0.00  0.00    -0.194 NA
ATOM     30  H   UNL     1      -1.153   1.189  26.017  0.00  0.00    +0.148 HD
BRANCH   5   1
ATOM      1  S   UNL     1      -0.807   3.406  25.343  0.00  0.00    +0.027 S 
ATOM      3  O   UNL     1      -0.485   3.633  23.948  0.00  0.00    -0.158 OA
ATOM      4  O   UNL     1       0.224   3.464  26.362  0.00  0.00    -0.158 OA
ATOM     21  C   UNL     1      -2.077   4.561  25.807  0.00  0.00    +0.214 C 
ENDBRANCH   5   1
ENDBRANCH  15   5
ENDBRANCH   9  15
BRANCH  11  16
ATOM     16  C   UNL     1      -1.466  -2.212  23.940  0.00  0.00    +0.103 C 
BRANCH  16  20
ATOM      2  O   UNL     1      -0.520  -0.598  25.473  0.00  0.00    -0.276 OA
ATOM      6  N   UNL     1      -0.115  -0.386  23.195  0.00  0.00    -0.311 N 
ATOM     20  C   UNL     1      -0.661  -0.990  24.318  0.00  0.00    +0.214 C 
ATOM     31  H   UNL     1      -0.287  -0.787  22.277  0.00  0.00    +0.149 HD
BRANCH   6  22
ATOM     22  C   UNL     1       0.702   0.804  23.257  0.00  0.00    +0.139 C 
BRANCH  22  23
ATOM     23  C   UNL     1       2.167   0.483  23.213  0.00  0.00    -0.030 A 
ATOM     24  C   UNL     1       3.088   1.474  22.874  0.00  0.00    +0.006 A 
ATOM     25  C   UNL     1       2.609  -0.806  23.513  0.00  0.00    +0.006 A 
ATOM     26  C   UNL     1       4.450   1.177  22.833  0.00  0.00    +0.019 A 
ATOM     27  C   UNL     1       3.970  -1.103  23.473  0.00  0.00    +0.019 A 
ATOM     28  C   UNL     1       4.892  -0.113  23.134  0.00  0.00    +0.052 A 
BRANCH  28  29
ATOM      7  N   UNL     1       7.420  -0.665  23.060  0.00  0.00    -0.191 NA
ATOM     29  C   UNL     1       6.287  -0.418  23.092  0.00  0.00    +0.099 C 
ENDBRANCH  28  29
ENDBRANCH  22  23
ENDBRANCH   6  22
ENDBRANCH  16  20
ENDBRANCH  11  16
TORSDOF 9
ENDMDL
MODEL 10
REMARK VINA RESULT:       0.7      2.690      5.114
REMARK  Name = 38029291
REMARK  13 active torsions:
REMARK  status: ('A' for Active; 'I' for Inactive)
REMARK    1  A    between atoms: S_1  and  N_5
REMARK    2  A    between atoms: S_1  and  C_21
REMARK    3  A    between atoms: N_5  and  C_15
REMARK    4  A    between atoms: N_6  and  C_22
REMARK    5  A    between atoms: C_8  and  C_12
REMARK    6  A    between atoms: C_9  and  C_15
REMARK    7  A    between atoms: C_11  and  C_16
REMARK    8  A    between atoms: C_12  and  C_17
REMARK    9  A    between atoms: C_12  and  C_18
REMARK   10  A    between atoms: C_13  and  C_19
REMARK   11  A    between atoms: C_16  and  C_20
REMARK   12  A    between atoms: C_22  and  C_23
REMARK   13  A    between atoms: C_28  and  C_29
REMARK                            x       y       z     vdW  Elec       q    Type
REMARK                         _______ _______ _______ _____ _____    ______ ____
ROOT
ATOM      8  C   UNL     1      -1.272   0.467  24.097  0.00  0.00    +0.000 C 
ATOM      9  C   UNL     1      -0.635  -0.857  23.605  0.00  0.00    +0.030 C 
ATOM     10  C   UNL     1      -0.714   1.657  23.301  0.00  0.00    +0.012 C 
ATOM     11  C   UNL     1       0.817   1.776  23.426  0.00  0.00    +0.023 C 
ATOM     13  C   UNL     1       1.503   0.441  23.217  0.00  0.00    -0.073 C 
ATOM     14  C   UNL     1       0.835  -0.724  23.287  0.00  0.00    -0.023 C 
ATOM     19  C   UNL     1       2.968   0.479  22.879  0.00  0.00    +0.039 C 
ENDROOT
BRANCH   8  12
ATOM     12  C   UNL     1      -2.799   0.439  23.987  0.00  0.00    -0.013 C 
ATOM     17  C   UNL     1      -3.436   0.735  25.341  0.00  0.00    +0.007 C 
ATOM     18  C   UNL     1      -3.274   1.437  22.935  0.00  0.00    +0.007 C 
ENDBRANCH   8  12
BRANCH   9  15
ATOM     15  C   UNL     1      -0.837  -1.982  24.628  0.00  0.00    +0.113 C 
BRANCH  15   5
ATOM      5  N   UNL     1      -1.848  -2.920  24.115  0.00  0.00    -0.194 NA
ATOM     30  H   UNL     1      -1.830  -3.032  23.093  0.00  0.00    +0.148 HD
BRANCH   5   1
ATOM      1  S   UNL     1      -3.398  -2.952  24.832  0.00  0.00    +0.027 S 
ATOM      3  O   UNL     1      -3.406  -2.124  26.022  0.00  0.00    -0.158 OA
ATOM      4  O   UNL     1      -3.857  -4.327  24.881  0.00  0.00    -0.158 OA
ATOM     21  C   UNL     1      -4.351  -2.120  23.581  0.00  0.00    +0.214 C 
ENDBRANCH   5   1
ENDBRANCH  15   5
ENDBRANCH   9  15
BRANCH  11  16
ATOM     16  C   UNL     1       1.215   2.393  24.771  0.00  0.00    +0.103 C 
BRANCH  16  20
ATOM      2  O   UNL     1      -0.487   2.869  26.422  0.00  0.00    -0.276 OA
ATOM      6  N   UNL     1      -0.196   4.317  24.628  0.00  0.00    -0.311 N 
ATOM     20  C   UNL     1       0.089   3.192  25.386  0.00  0.00    +0.214 C 
ATOM     31  H   UNL     1       0.339   4.501  23.784  0.00  0.00    +0.149 HD
BRANCH   6  22
ATOM     22  C   UNL     1      -1.229   5.264  24.978  0.00  0.00    +0.139 C 
BRANCH  22  23
ATOM     23  C   UNL     1      -2.534   4.587  25.281  0.00  0.00    -0.030 A 
ATOM     24  C   UNL     1      -2.865   4.267  26.597  0.00  0.00    +0.006 A 
ATOM     25  C   UNL     1      -3.417   4.281  24.245  0.00  0.00    +0.006 A 
ATOM     26  C   UNL     1      -4.078   3.639  26.879  0.00  0.00    +0.019 A 
ATOM     27  C   UNL     1      -4.630   3.652  24.527  0.00  0.00    +0.019 A 
ATOM     28  C   UNL     1      -4.961   3.332  25.843  0.00  0.00    +0.052 A 
BRANCH  28  29
ATOM      7  N   UNL     1      -7.214   2.165  26.363  0.00  0.00    -0.191 NA
ATOM     29  C   UNL     1      -6.204   2.688  26.131  0.00  0.00    +0.099 C 
ENDBRANCH  28  29
ENDBRANCH  22  23
ENDBRANCH   6  22
ENDBRANCH  16  20
ENDBRANCH  11  16
TORSDOF 9
ENDMDL
