MODEL 1
REMARK VINA RESULT:       8.2      0.000      0.000
REMARK  Name = 25389733
REMARK  9 active torsions:
REMARK  status: ('A' for Active; 'I' for Inactive)
REMARK    1  A    between atoms: O_2  and  C_21
REMARK    2  A    between atoms: O_2  and  C_33
REMARK    3  A    between atoms: N_6  and  C_12
REMARK    4  A    between atoms: N_6  and  C_22
REMARK    5  A    between atoms: N_8  and  C_27
REMARK    6  A    between atoms: C_10  and  C_18
REMARK    7  A    between atoms: C_14  and  C_21
REMARK    8  A    between atoms: C_22  and  C_27
REMARK    9  A    between atoms: C_34  and  C_35
REMARK                            x       y       z     vdW  Elec       q    Type
REMARK                         _______ _______ _______ _____ _____    ______ ____
ROOT
ATOM      5  N   UNL     1      -1.071   1.551  25.917  0.00  0.00    -0.274 NA
ATOM      7  N   UNL     1      -3.799  -0.003  23.856  0.00  0.00    -0.356 N 
ATOM      9  C   UNL     1      -2.097   1.641  24.833  0.00  0.00    +0.106 C 
ATOM     10  C   UNL     1      -0.448   2.869  26.202  0.00  0.00    +0.093 C 
ATOM     11  C   UNL     1      -3.196   2.647  25.208  0.00  0.00    +0.044 C 
ATOM     12  C   UNL     1      -2.592   4.028  25.461  0.00  0.00    +0.057 C 
ATOM     13  C   UNL     1      -1.522   3.930  26.546  0.00  0.00    +0.042 C 
ATOM     14  C   UNL     1      -0.105   0.437  25.711  0.00  0.00    +0.172 C 
ATOM     15  C   UNL     1      -2.662   0.279  24.561  0.00  0.00    +0.038 A 
ATOM     16  C   UNL     1      -0.797  -0.950  25.685  0.00  0.00    +0.068 C 
ATOM     17  C   UNL     1      -2.076  -0.914  24.925  0.00  0.00    -0.016 A 
ATOM     19  C   UNL     1      -2.907  -1.966  24.454  0.00  0.00    +0.003 A 
ATOM     20  C   UNL     1      -3.981  -1.368  23.789  0.00  0.00    +0.047 A 
ATOM     25  C   UNL     1      -2.851  -3.374  24.523  0.00  0.00    +0.010 A 
ATOM     26  C   UNL     1      -5.004  -2.111  23.189  0.00  0.00    +0.026 A 
ATOM     28  C   UNL     1      -3.869  -4.127  23.929  0.00  0.00    +0.001 A 
ATOM     31  C   UNL     1      -4.928  -3.504  23.273  0.00  0.00    +0.002 A 
ATOM     37  H   UNL     1      -4.421   0.681  23.446  0.00  0.00    +0.166 HD
ENDROOT
BRANCH  10  18
ATOM      1  F   UNL     1      -1.189   2.702  28.943  0.00  0.00    -0.205 F 
ATOM     18  C   UNL     1       0.562   2.846  27.347  0.00  0.00    +0.005 A 
ATOM     23  C   UNL     1       0.121   2.763  28.668  0.00  0.00    +0.128 A 
ATOM     24  C   UNL     1       1.927   2.909  27.070  0.00  0.00    +0.008 A 
ATOM     29  C   UNL     1       1.045   2.743  29.712  0.00  0.00    +0.038 A 
ATOM     30  C   UNL     1       2.852   2.889  28.115  0.00  0.00    +0.000 A 
ATOM     32  C   UNL     1       2.412   2.806  29.436  0.00  0.00    +0.003 A 
ENDBRANCH  10  18
BRANCH  14  21
ATOM      3  O   UNL     1       1.232   1.721  24.169  0.00  0.00    -0.249 OA
ATOM     21  C   UNL     1       0.696   0.660  24.459  0.00  0.00    +0.325 C 
BRANCH  21   2
ATOM      2  O   UNL     1       0.724  -0.489  23.726  0.00  0.00    -0.467 OA
ATOM     33  C   UNL     1       1.302  -0.371  22.422  0.00  0.00    +0.280 C 
ENDBRANCH  21   2
ENDBRANCH  14  21
BRANCH  12   6
ATOM      6  N   UNL     1      -3.641   4.971  25.848  0.00  0.00    -0.312 NA
ATOM     36  H   UNL     1      -4.022   4.712  26.758  0.00  0.00    +0.122 HD
BRANCH   6  22
ATOM     22  C   UNL     1      -4.720   4.971  24.872  0.00  0.00    +0.100 C 
BRANCH  22  27
ATOM     27  C   UNL     1      -6.055   4.733  25.560  0.00  0.00    +0.119 C 
BRANCH  27   8
ATOM      4  O   UNL     1      -6.399   2.068  24.460  0.00  0.00    -0.276 OA
ATOM      8  N   UNL     1      -6.056   3.485  26.276  0.00  0.00    -0.314 N 
ATOM     34  C   UNL     1      -6.229   2.252  25.663  0.00  0.00    +0.210 C 
ATOM     35  C   UNL     1      -6.162   1.108  26.638  0.00  0.00    +0.109 C 
ATOM     38  H   UNL     1      -5.906   3.519  27.280  0.00  0.00    +0.149 HD
ENDBRANCH  27   8
ENDBRANCH  22  27
ENDBRANCH   6  22
ENDBRANCH  12   6
TORSDOF 7
ENDMDL
MODEL 2
REMARK VINA RESULT:       9.4      2.263      5.856
REMARK  Name = 25389733
REMARK  9 active torsions:
REMARK  status: ('A' for Active; 'I' for Inactive)
REMARK    1  A    between atoms: O_2  and  C_21
REMARK    2  A    between atoms: O_2  and  C_33
REMARK    3  A    between atoms: N_6  and  C_12
REMARK    4  A    between atoms: N_6  and  C_22
REMARK    5  A    between atoms: N_8  and  C_27
REMARK    6  A    between atoms: C_10  and  C_18
REMARK    7  A    between atoms: C_14  and  C_21
REMARK    8  A    between atoms: C_22  and  C_27
REMARK    9  A    between atoms: C_34  and  C_35
REMARK                            x       y       z     vdW  Elec       q    Type
REMARK                         _______ _______ _______ _____ _____    ______ ____
ROOT
ATOM      5  N   UNL     1      -0.650   1.196  24.413  0.00  0.00    -0.274 NA
ATOM      7  N   UNL     1      -4.007   2.031  25.876  0.00  0.00    -0.356 N 
ATOM      9  C   UNL     1      -1.693   1.014  25.468  0.00  0.00    +0.106 C 
ATOM     10  C   UNL     1       0.462   0.222  24.557  0.00  0.00    +0.093 C 
ATOM     11  C   UNL     1      -2.264  -0.413  25.427  0.00  0.00    +0.044 C 
ATOM     12  C   UNL     1      -1.149  -1.440  25.621  0.00  0.00    +0.057 C 
ATOM     13  C   UNL     1      -0.069  -1.232  24.562  0.00  0.00    +0.042 C 
ATOM     14  C   UNL     1      -0.222   2.614  24.261  0.00  0.00    +0.172 C 
ATOM     15  C   UNL     1      -2.768   2.044  25.298  0.00  0.00    +0.038 A 
ATOM     16  C   UNL     1      -1.390   3.546  23.849  0.00  0.00    +0.068 C 
ATOM     17  C   UNL     1      -2.643   3.214  24.579  0.00  0.00    -0.016 A 
ATOM     19  C   UNL     1      -3.867   3.926  24.694  0.00  0.00    +0.003 A 
ATOM     20  C   UNL     1      -4.706   3.162  25.511  0.00  0.00    +0.047 A 
ATOM     25  C   UNL     1      -4.348   5.152  24.187  0.00  0.00    +0.010 A 
ATOM     26  C   UNL     1      -6.003   3.565  25.845  0.00  0.00    +0.026 A 
ATOM     28  C   UNL     1      -5.644   5.564  24.513  0.00  0.00    +0.001 A 
ATOM     31  C   UNL     1      -6.458   4.782  25.329  0.00  0.00    +0.002 A 
ATOM     37  H   UNL     1      -4.366   1.303  26.479  0.00  0.00    +0.166 HD
ENDROOT
BRANCH  10  18
ATOM      1  F   UNL     1       0.177  -0.950  21.981  0.00  0.00    -0.205 F 
ATOM     18  C   UNL     1       1.524   0.323  23.465  0.00  0.00    +0.005 A 
ATOM     23  C   UNL     1       1.313  -0.280  22.225  0.00  0.00    +0.128 A 
ATOM     24  C   UNL     1       2.708   1.018  23.709  0.00  0.00    +0.008 A 
ATOM     29  C   UNL     1       2.284  -0.186  21.229  0.00  0.00    +0.038 A 
ATOM     30  C   UNL     1       3.680   1.112  22.713  0.00  0.00    +0.000 A 
ATOM     32  C   UNL     1       3.469   0.509  21.473  0.00  0.00    +0.003 A 
ENDBRANCH  10  18
BRANCH  14  21
ATOM      3  O   UNL     1       0.761   4.266  25.717  0.00  0.00    -0.249 OA
ATOM     21  C   UNL     1       0.436   3.103  25.521  0.00  0.00    +0.325 C 
BRANCH  21   2
ATOM      2  O   UNL     1       0.603   2.058  26.382  0.00  0.00    -0.467 OA
ATOM     33  C   UNL     1       0.844   2.420  27.746  0.00  0.00    +0.280 C 
ENDBRANCH  21   2
ENDBRANCH  14  21
BRANCH  12   6
ATOM      6  N   UNL     1      -1.696  -2.795  25.548  0.00  0.00    -0.312 NA
ATOM     36  H   UNL     1      -1.005  -3.467  25.882  0.00  0.00    +0.122 HD
BRANCH   6  22
ATOM     22  C   UNL     1      -2.052  -3.133  24.177  0.00  0.00    +0.100 C 
BRANCH  22  27
ATOM     27  C   UNL     1      -3.525  -3.498  24.088  0.00  0.00    +0.119 C 
BRANCH  27   8
ATOM      4  O   UNL     1      -3.786  -0.905  22.811  0.00  0.00    -0.276 OA
ATOM      8  N   UNL     1      -4.360  -2.402  24.500  0.00  0.00    -0.314 N 
ATOM     34  C   UNL     1      -4.420  -1.191  23.823  0.00  0.00    +0.210 C 
ATOM     35  C   UNL     1      -5.390  -0.227  24.451  0.00  0.00    +0.109 C 
ATOM     38  H   UNL     1      -4.943  -2.537  25.321  0.00  0.00    +0.149 HD
ENDBRANCH  27   8
ENDBRANCH  22  27
ENDBRANCH   6  22
ENDBRANCH  12   6
TORSDOF 7
ENDMDL
MODEL 3
REMARK VINA RESULT:       9.8      3.080      6.226
REMARK  Name = 25389733
REMARK  9 active torsions:
REMARK  status: ('A' for Active; 'I' for Inactive)
REMARK    1  A    between atoms: O_2  and  C_21
REMARK    2  A    between atoms: O_2  and  C_33
REMARK    3  A    between atoms: N_6  and  C_12
REMARK    4  A    between atoms: N_6  and  C_22
REMARK    5  A    between atoms: N_8  and  C_27
REMARK    6  A    between atoms: C_10  and  C_18
REMARK    7  A    between atoms: C_14  and  C_21
REMARK    8  A    between atoms: C_22  and  C_27
REMARK    9  A    between atoms: C_34  and  C_35
REMARK                            x       y       z     vdW  Elec       q    Type
REMARK                         _______ _______ _______ _____ _____    ______ ____
ROOT
ATOM      5  N   UNL     1      -2.042   1.438  24.602  0.00  0.00    -0.274 NA
ATOM      7  N   UNL     1       0.884  -0.788  23.836  0.00  0.00    -0.356 N 
ATOM      9  C   UNL     1      -1.481   0.095  24.262  0.00  0.00    +0.106 C 
ATOM     10  C   UNL     1      -3.493   1.372  24.912  0.00  0.00    +0.093 C 
ATOM     11  C   UNL     1      -1.706  -0.896  25.415  0.00  0.00    +0.044 C 
ATOM     12  C   UNL     1      -3.197  -1.025  25.726  0.00  0.00    +0.057 C 
ATOM     13  C   UNL     1      -3.775   0.353  26.043  0.00  0.00    +0.042 C 
ATOM     14  C   UNL     1      -1.661   2.491  23.622  0.00  0.00    +0.172 C 
ATOM     15  C   UNL     1      -0.027   0.227  23.923  0.00  0.00    +0.038 A 
ATOM     16  C   UNL     1      -0.126   2.696  23.538  0.00  0.00    +0.068 C 
ATOM     17  C   UNL     1       0.605   1.401  23.572  0.00  0.00    -0.016 A 
ATOM     19  C   UNL     1       1.965   1.095  23.295  0.00  0.00    +0.003 A 
ATOM     20  C   UNL     1       2.114  -0.284  23.469  0.00  0.00    +0.047 A 
ATOM     25  C   UNL     1       3.088   1.854  22.907  0.00  0.00    +0.010 A 
ATOM     26  C   UNL     1       3.334  -0.941  23.276  0.00  0.00    +0.026 A 
ATOM     28  C   UNL     1       4.315   1.209  22.712  0.00  0.00    +0.001 A 
ATOM     31  C   UNL     1       4.434  -0.167  22.894  0.00  0.00    +0.002 A 
ATOM     37  H   UNL     1       0.694  -1.765  24.016  0.00  0.00    +0.166 HD
ENDROOT
BRANCH  10  18
ATOM      1  F   UNL     1      -6.275   1.942  24.752  0.00  0.00    -0.205 F 
ATOM     18  C   UNL     1      -4.103   2.707  25.330  0.00  0.00    +0.005 A 
ATOM     23  C   UNL     1      -5.479   2.913  25.221  0.00  0.00    +0.128 A 
ATOM     24  C   UNL     1      -3.283   3.722  25.820  0.00  0.00    +0.008 A 
ATOM     29  C   UNL     1      -6.034   4.134  25.604  0.00  0.00    +0.038 A 
ATOM     30  C   UNL     1      -3.838   4.944  26.203  0.00  0.00    +0.000 A 
ATOM     32  C   UNL     1      -5.214   5.150  26.095  0.00  0.00    +0.003 A 
ENDBRANCH  10  18
BRANCH  14  21
ATOM      3  O   UNL     1      -1.580   1.761  21.325  0.00  0.00    -0.249 OA
ATOM     21  C   UNL     1      -2.235   2.182  22.268  0.00  0.00    +0.325 C 
BRANCH  21   2
ATOM      2  O   UNL     1      -3.574   2.443  22.272  0.00  0.00    -0.467 OA
ATOM     33  C   UNL     1      -3.930   3.824  22.144  0.00  0.00    +0.280 C 
ENDBRANCH  21   2
ENDBRANCH  14  21
BRANCH  12   6
ATOM      6  N   UNL     1      -3.399  -1.944  26.845  0.00  0.00    -0.312 NA
ATOM     36  H   UNL     1      -2.803  -1.674  27.628  0.00  0.00    +0.122 HD
BRANCH   6  22
ATOM     22  C   UNL     1      -3.072  -3.308  26.458  0.00  0.00    +0.100 C 
BRANCH  22  27
ATOM     27  C   UNL     1      -2.641  -3.354  25.000  0.00  0.00    +0.119 C 
BRANCH  27   8
ATOM      4  O   UNL     1      -4.371  -1.676  23.383  0.00  0.00    -0.276 OA
ATOM      8  N   UNL     1      -3.721  -3.776  24.150  0.00  0.00    -0.314 N 
ATOM     34  C   UNL     1      -4.499  -2.897  23.409  0.00  0.00    +0.210 C 
ATOM     35  C   UNL     1      -5.543  -3.603  22.587  0.00  0.00    +0.109 C 
ATOM     38  H   UNL     1      -3.906  -4.773  24.083  0.00  0.00    +0.149 HD
ENDBRANCH  27   8
ENDBRANCH  22  27
ENDBRANCH   6  22
ENDBRANCH  12   6
TORSDOF 7
ENDMDL
MODEL 4
REMARK VINA RESULT:      10.3      2.980      6.453
REMARK  Name = 25389733
REMARK  9 active torsions:
REMARK  status: ('A' for Active; 'I' for Inactive)
REMARK    1  A    between atoms: O_2  and  C_21
REMARK    2  A    between atoms: O_2  and  C_33
REMARK    3  A    between atoms: N_6  and  C_12
REMARK    4  A    between atoms: N_6  and  C_22
REMARK    5  A    between atoms: N_8  and  C_27
REMARK    6  A    between atoms: C_10  and  C_18
REMARK    7  A    between atoms: C_14  and  C_21
REMARK    8  A    between atoms: C_22  and  C_27
REMARK    9  A    between atoms: C_34  and  C_35
REMARK                            x       y       z     vdW  Elec       q    Type
REMARK                         _______ _______ _______ _____ _____    ______ ____
ROOT
ATOM      5  N   UNL     1      -2.581   1.053  23.944  0.00  0.00    -0.274 NA
ATOM      7  N   UNL     1       0.455  -0.753  22.668  0.00  0.00    -0.356 N 
ATOM      9  C   UNL     1      -1.960  -0.044  23.141  0.00  0.00    +0.106 C 
ATOM     10  C   UNL     1      -4.058   0.917  24.021  0.00  0.00    +0.093 C 
ATOM     11  C   UNL     1      -2.309  -1.417  23.735  0.00  0.00    +0.044 C 
ATOM     12  C   UNL     1      -3.824  -1.609  23.782  0.00  0.00    +0.057 C 
ATOM     13  C   UNL     1      -4.461  -0.471  24.577  0.00  0.00    +0.042 C 
ATOM     14  C   UNL     1      -2.100   2.405  23.550  0.00  0.00    +0.172 C 
ATOM     15  C   UNL     1      -0.477   0.166  23.064  0.00  0.00    +0.038 A 
ATOM     16  C   UNL     1      -0.571   2.571  23.743  0.00  0.00    +0.068 C 
ATOM     17  C   UNL     1       0.173   1.354  23.317  0.00  0.00    -0.016 A 
ATOM     19  C   UNL     1       1.562   1.143  23.102  0.00  0.00    +0.003 A 
ATOM     20  C   UNL     1       1.711  -0.187  22.697  0.00  0.00    +0.047 A 
ATOM     25  C   UNL     1       2.711   1.953  23.206  0.00  0.00    +0.010 A 
ATOM     26  C   UNL     1       2.957  -0.746  22.392  0.00  0.00    +0.026 A 
ATOM     28  C   UNL     1       3.963   1.405  22.906  0.00  0.00    +0.001 A 
ATOM     31  C   UNL     1       4.082   0.076  22.506  0.00  0.00    +0.002 A 
ATOM     37  H   UNL     1       0.260  -1.708  22.398  0.00  0.00    +0.166 HD
ENDROOT
BRANCH  10  18
ATOM      1  F   UNL     1      -6.881   1.199  24.222  0.00  0.00    -0.205 F 
ATOM     18  C   UNL     1      -4.738   1.976  24.885  0.00  0.00    +0.005 A 
ATOM     23  C   UNL     1      -6.130   2.053  24.933  0.00  0.00    +0.128 A 
ATOM     24  C   UNL     1      -3.965   2.867  25.628  0.00  0.00    +0.008 A 
ATOM     29  C   UNL     1      -6.749   3.021  25.723  0.00  0.00    +0.038 A 
ATOM     30  C   UNL     1      -4.584   3.836  26.419  0.00  0.00    +0.000 A 
ATOM     32  C   UNL     1      -5.976   3.913  26.466  0.00  0.00    +0.003 A 
ENDBRANCH  10  18
BRANCH  14  21
ATOM      3  O   UNL     1      -1.881   2.328  21.149  0.00  0.00    -0.249 OA
ATOM     21  C   UNL     1      -2.497   2.713  22.133  0.00  0.00    +0.325 C 
BRANCH  21   2
ATOM      2  O   UNL     1      -3.630   3.472  22.133  0.00  0.00    -0.467 OA
ATOM     33  C   UNL     1      -3.652   4.542  23.084  0.00  0.00    +0.280 C 
ENDBRANCH  21   2
ENDBRANCH  14  21
BRANCH  12   6
ATOM      6  N   UNL     1      -4.147  -2.905  24.379  0.00  0.00    -0.312 NA
ATOM     36  H   UNL     1      -4.975  -2.818  24.969  0.00  0.00    +0.122 HD
BRANCH   6  22
ATOM     22  C   UNL     1      -3.042  -3.388  25.193  0.00  0.00    +0.100 C 
BRANCH  22  27
ATOM     27  C   UNL     1      -3.144  -2.834  26.605  0.00  0.00    +0.119 C 
BRANCH  27   8
ATOM      4  O   UNL     1      -0.423  -2.073  25.935  0.00  0.00    -0.276 OA
ATOM      8  N   UNL     1      -2.556  -1.524  26.695  0.00  0.00    -0.314 N 
ATOM     34  C   UNL     1      -1.238  -1.253  26.351  0.00  0.00    +0.210 C 
ATOM     35  C   UNL     1      -0.888   0.201  26.514  0.00  0.00    +0.109 C 
ATOM     38  H   UNL     1      -3.148  -0.763  27.013  0.00  0.00    +0.149 HD
ENDBRANCH  27   8
ENDBRANCH  22  27
ENDBRANCH   6  22
ENDBRANCH  12   6
TORSDOF 7
ENDMDL
MODEL 5
REMARK VINA RESULT:      10.4      2.680      7.825
REMARK  Name = 25389733
REMARK  9 active torsions:
REMARK  status: ('A' for Active; 'I' for Inactive)
REMARK    1  A    between atoms: O_2  and  C_21
REMARK    2  A    between atoms: O_2  and  C_33
REMARK    3  A    between atoms: N_6  and  C_12
REMARK    4  A    between atoms: N_6  and  C_22
REMARK    5  A    between atoms: N_8  and  C_27
REMARK    6  A    between atoms: C_10  and  C_18
REMARK    7  A    between atoms: C_14  and  C_21
REMARK    8  A    between atoms: C_22  and  C_27
REMARK    9  A    between atoms: C_34  and  C_35
REMARK                            x       y       z     vdW  Elec       q    Type
REMARK                         _______ _______ _______ _____ _____    ______ ____
ROOT
ATOM      5  N   UNL     1      -1.773   2.039  25.326  0.00  0.00    -0.274 NA
ATOM      7  N   UNL     1       1.720   2.441  26.646  0.00  0.00    -0.356 N 
ATOM      9  C   UNL     1      -0.323   2.330  25.107  0.00  0.00    +0.106 C 
ATOM     10  C   UNL     1      -2.518   1.939  24.045  0.00  0.00    +0.093 C 
ATOM     11  C   UNL     1       0.323   1.246  24.231  0.00  0.00    +0.044 C 
ATOM     12  C   UNL     1      -0.392   1.151  22.884  0.00  0.00    +0.057 C 
ATOM     13  C   UNL     1      -1.879   0.884  23.110  0.00  0.00    +0.042 C 
ATOM     14  C   UNL     1      -2.396   2.930  26.343  0.00  0.00    +0.172 C 
ATOM     15  C   UNL     1       0.370   2.458  26.430  0.00  0.00    +0.038 A 
ATOM     16  C   UNL     1      -1.735   2.792  27.738  0.00  0.00    +0.068 C 
ATOM     17  C   UNL     1      -0.254   2.687  27.638  0.00  0.00    -0.016 A 
ATOM     19  C   UNL     1       0.753   2.777  28.636  0.00  0.00    +0.003 A 
ATOM     20  C   UNL     1       1.981   2.618  27.988  0.00  0.00    +0.047 A 
ATOM     25  C   UNL     1       0.744   2.984  30.031  0.00  0.00    +0.010 A 
ATOM     26  C   UNL     1       3.203   2.655  28.670  0.00  0.00    +0.026 A 
ATOM     28  C   UNL     1       1.959   3.021  30.724  0.00  0.00    +0.001 A 
ATOM     31  C   UNL     1       3.169   2.858  30.052  0.00  0.00    +0.002 A 
ATOM     37  H   UNL     1       2.427   2.314  25.935  0.00  0.00    +0.166 HD
ENDROOT
BRANCH  10  18
ATOM      1  F   UNL     1      -4.602   3.872  24.163  0.00  0.00    -0.205 F 
ATOM     18  C   UNL     1      -3.993   1.578  24.209  0.00  0.00    +0.005 A 
ATOM     23  C   UNL     1      -4.959   2.584  24.259  0.00  0.00    +0.128 A 
ATOM     24  C   UNL     1      -4.374   0.241  24.308  0.00  0.00    +0.008 A 
ATOM     29  C   UNL     1      -6.304   2.252  24.408  0.00  0.00    +0.038 A 
ATOM     30  C   UNL     1      -5.720  -0.092  24.458  0.00  0.00    +0.000 A 
ATOM     32  C   UNL     1      -6.686   0.913  24.508  0.00  0.00    +0.003 A 
ENDBRANCH  10  18
BRANCH  14  21
ATOM      3  O   UNL     1      -3.034   5.255  26.380  0.00  0.00    -0.249 OA
ATOM     21  C   UNL     1      -2.372   4.358  25.876  0.00  0.00    +0.325 C 
BRANCH  21   2
ATOM      2  O   UNL     1      -1.509   4.480  24.827  0.00  0.00    -0.467 OA
ATOM     33  C   UNL     1      -0.841   5.741  24.725  0.00  0.00    +0.280 C 
ENDBRANCH  21   2
ENDBRANCH  14  21
BRANCH  12   6
ATOM      6  N   UNL     1       0.208   0.095  22.070  0.00  0.00    -0.312 NA
ATOM     36  H   UNL     1      -0.446  -0.682  21.973  0.00  0.00    +0.122 HD
BRANCH   6  22
ATOM     22  C   UNL     1       1.431  -0.399  22.686  0.00  0.00    +0.100 C 
BRANCH  22  27
ATOM     27  C   UNL     1       2.638  -0.021  21.841  0.00  0.00    +0.119 C 
BRANCH  27   8
ATOM      4  O   UNL     1       4.300  -1.552  23.662  0.00  0.00    -0.276 OA
ATOM      8  N   UNL     1       3.715   0.467  22.660  0.00  0.00    -0.314 N 
ATOM     34  C   UNL     1       4.459  -0.344  23.506  0.00  0.00    +0.210 C 
ATOM     35  C   UNL     1       5.541   0.414  24.227  0.00  0.00    +0.109 C 
ATOM     38  H   UNL     1       3.945   1.454  22.596  0.00  0.00    +0.149 HD
ENDBRANCH  27   8
ENDBRANCH  22  27
ENDBRANCH   6  22
ENDBRANCH  12   6
TORSDOF 7
ENDMDL
MODEL 6
REMARK VINA RESULT:      10.7      2.794      8.144
REMARK  Name = 25389733
REMARK  9 active torsions:
REMARK  status: ('A' for Active; 'I' for Inactive)
REMARK    1  A    between atoms: O_2  and  C_21
REMARK    2  A    between atoms: O_2  and  C_33
REMARK    3  A    between atoms: N_6  and  C_12
REMARK    4  A    between atoms: N_6  and  C_22
REMARK    5  A    between atoms: N_8  and  C_27
REMARK    6  A    between atoms: C_10  and  C_18
REMARK    7  A    between atoms: C_14  and  C_21
REMARK    8  A    between atoms: C_22  and  C_27
REMARK    9  A    between atoms: C_34  and  C_35
REMARK                            x       y       z     vdW  Elec       q    Type
REMARK                         _______ _______ _______ _____ _____    ______ ____
ROOT
ATOM      5  N   UNL     1      -1.064   0.441  24.942  0.00  0.00    -0.274 NA
ATOM      7  N   UNL     1       1.619   2.674  26.330  0.00  0.00    -0.356 N 
ATOM      9  C   UNL     1      -0.016   1.492  24.754  0.00  0.00    +0.106 C 
ATOM     10  C   UNL     1      -1.625  -0.021  23.647  0.00  0.00    +0.093 C 
ATOM     11  C   UNL     1       1.125   0.969  23.868  0.00  0.00    +0.044 C 
ATOM     12  C   UNL     1       0.586   0.530  22.506  0.00  0.00    +0.057 C 
ATOM     13  C   UNL     1      -0.506  -0.521  22.701  0.00  0.00    +0.042 C 
ATOM     14  C   UNL     1      -2.079   0.812  25.965  0.00  0.00    +0.172 C 
ATOM     15  C   UNL     1       0.486   1.947  26.091  0.00  0.00    +0.038 A 
ATOM     16  C   UNL     1      -1.457   1.026  27.368  0.00  0.00    +0.068 C 
ATOM     17  C   UNL     1      -0.165   1.761  27.292  0.00  0.00    -0.016 A 
ATOM     19  C   UNL     1       0.620   2.367  28.309  0.00  0.00    +0.003 A 
ATOM     20  C   UNL     1       1.734   2.931  27.679  0.00  0.00    +0.047 A 
ATOM     25  C   UNL     1       0.494   2.498  29.707  0.00  0.00    +0.010 A 
ATOM     26  C   UNL     1       2.729   3.619  28.382  0.00  0.00    +0.026 A 
ATOM     28  C   UNL     1       1.483   3.182  30.422  0.00  0.00    +0.001 A 
ATOM     31  C   UNL     1       2.583   3.734  29.768  0.00  0.00    +0.002 A 
ATOM     37  H   UNL     1       2.281   2.978  25.628  0.00  0.00    +0.166 HD
ENDROOT
BRANCH  10  18
ATOM      1  F   UNL     1      -1.065  -2.528  24.868  0.00  0.00    -0.205 F 
ATOM     18  C   UNL     1      -2.654  -1.141  23.777  0.00  0.00    +0.005 A 
ATOM     23  C   UNL     1      -2.304  -2.345  24.389  0.00  0.00    +0.128 A 
ATOM     24  C   UNL     1      -3.945  -0.960  23.283  0.00  0.00    +0.008 A 
ATOM     29  C   UNL     1      -3.246  -3.367  24.508  0.00  0.00    +0.038 A 
ATOM     30  C   UNL     1      -4.887  -1.982  23.401  0.00  0.00    +0.000 A 
ATOM     32  C   UNL     1      -4.538  -3.186  24.014  0.00  0.00    +0.003 A 
ENDBRANCH  10  18
BRANCH  14  21
ATOM      3  O   UNL     1      -2.360   3.144  25.418  0.00  0.00    -0.249 OA
ATOM     21  C   UNL     1      -2.848   2.027  25.528  0.00  0.00    +0.325 C 
BRANCH  21   2
ATOM      2  O   UNL     1      -4.144   1.681  25.281  0.00  0.00    -0.467 OA
ATOM     33  C   UNL     1      -5.084   2.760  25.318  0.00  0.00    +0.280 C 
ENDBRANCH  21   2
ENDBRANCH  14  21
BRANCH  12   6
ATOM      6  N   UNL     1       1.674   0.003  21.682  0.00  0.00    -0.312 NA
ATOM     36  H   UNL     1       1.355  -0.821  21.173  0.00  0.00    +0.122 HD
BRANCH   6  22
ATOM     22  C   UNL     1       2.813  -0.369  22.508  0.00  0.00    +0.100 C 
BRANCH  22  27
ATOM     27  C   UNL     1       3.713   0.834  22.741  0.00  0.00    +0.119 C 
BRANCH  27   8
ATOM      4  O   UNL     1       5.377  -0.586  24.649  0.00  0.00    -0.276 OA
ATOM      8  N   UNL     1       5.100   0.483  22.598  0.00  0.00    -0.314 N 
ATOM     34  C   UNL     1       5.819  -0.201  23.569  0.00  0.00    +0.210 C 
ATOM     35  C   UNL     1       7.242  -0.463  23.155  0.00  0.00    +0.109 C 
ATOM     38  H   UNL     1       5.564   0.739  21.731  0.00  0.00    +0.149 HD
ENDBRANCH  27   8
ENDBRANCH  22  27
ENDBRANCH   6  22
ENDBRANCH  12   6
TORSDOF 7
ENDMDL
MODEL 7
REMARK VINA RESULT:      11.3      2.936      6.106
REMARK  Name = 25389733
REMARK  9 active torsions:
REMARK  status: ('A' for Active; 'I' for Inactive)
REMARK    1  A    between atoms: O_2  and  C_21
REMARK    2  A    between atoms: O_2  and  C_33
REMARK    3  A    between atoms: N_6  and  C_12
REMARK    4  A    between atoms: N_6  and  C_22
REMARK    5  A    between atoms: N_8  and  C_27
REMARK    6  A    between atoms: C_10  and  C_18
REMARK    7  A    between atoms: C_14  and  C_21
REMARK    8  A    between atoms: C_22  and  C_27
REMARK    9  A    between atoms: C_34  and  C_35
REMARK                            x       y       z     vdW  Elec       q    Type
REMARK                         _______ _______ _______ _____ _____    ______ ____
ROOT
ATOM      5  N   UNL     1      -1.302  -0.332  23.882  0.00  0.00    -0.274 NA
ATOM      7  N   UNL     1       1.935   1.547  23.567  0.00  0.00    -0.356 N 
ATOM      9  C   UNL     1      -0.496   0.914  24.063  0.00  0.00    +0.106 C 
ATOM     10  C   UNL     1      -2.739  -0.112  24.186  0.00  0.00    +0.093 C 
ATOM     11  C   UNL     1      -1.033   2.044  23.170  0.00  0.00    +0.044 C 
ATOM     12  C   UNL     1      -2.500   2.328  23.492  0.00  0.00    +0.057 C 
ATOM     13  C   UNL     1      -3.317   1.047  23.337  0.00  0.00    +0.042 C 
ATOM     14  C   UNL     1      -0.698  -1.516  24.550  0.00  0.00    +0.172 C 
ATOM     15  C   UNL     1       0.948   0.625  23.781  0.00  0.00    +0.038 A 
ATOM     16  C   UNL     1       0.711  -1.855  23.998  0.00  0.00    +0.068 C 
ATOM     17  C   UNL     1       1.521  -0.628  23.765  0.00  0.00    -0.016 A 
ATOM     19  C   UNL     1       2.907  -0.468  23.495  0.00  0.00    +0.003 A 
ATOM     20  C   UNL     1       3.140   0.905  23.373  0.00  0.00    +0.047 A 
ATOM     25  C   UNL     1       3.992  -1.356  23.346  0.00  0.00    +0.010 A 
ATOM     26  C   UNL     1       4.408   1.434  23.108  0.00  0.00    +0.026 A 
ATOM     28  C   UNL     1       5.265  -0.839  23.078  0.00  0.00    +0.001 A 
ATOM     31  C   UNL     1       5.468   0.534  22.961  0.00  0.00    +0.002 A 
ATOM     37  H   UNL     1       1.808   2.550  23.547  0.00  0.00    +0.166 HD
ENDROOT
BRANCH  10  18
ATOM      1  F   UNL     1      -5.581  -0.008  24.108  0.00  0.00    -0.205 F 
ATOM     18  C   UNL     1      -3.620  -1.337  23.954  0.00  0.00    +0.005 A 
ATOM     23  C   UNL     1      -5.009  -1.207  23.930  0.00  0.00    +0.128 A 
ATOM     24  C   UNL     1      -3.034  -2.588  23.766  0.00  0.00    +0.008 A 
ATOM     29  C   UNL     1      -5.811  -2.328  23.718  0.00  0.00    +0.038 A 
ATOM     30  C   UNL     1      -3.836  -3.710  23.554  0.00  0.00    +0.000 A 
ATOM     32  C   UNL     1      -5.225  -3.580  23.530  0.00  0.00    +0.003 A 
ENDBRANCH  10  18
BRANCH  14  21
ATOM      3  O   UNL     1       0.252  -1.709  26.759  0.00  0.00    -0.249 OA
ATOM     21  C   UNL     1      -0.656  -1.315  26.039  0.00  0.00    +0.325 C 
BRANCH  21   2
ATOM      2  O   UNL     1      -1.770  -0.638  26.438  0.00  0.00    -0.467 OA
ATOM     33  C   UNL     1      -2.757  -1.425  27.114  0.00  0.00    +0.280 C 
ENDBRANCH  21   2
ENDBRANCH  14  21
BRANCH  12   6
ATOM      6  N   UNL     1      -3.011   3.381  22.616  0.00  0.00    -0.312 NA
ATOM     36  H   UNL     1      -2.234   3.871  22.172  0.00  0.00    +0.122 HD
BRANCH   6  22
ATOM     22  C   UNL     1      -3.800   4.343  23.371  0.00  0.00    +0.100 C 
BRANCH  22  27
ATOM     27  C   UNL     1      -3.492   4.229  24.856  0.00  0.00    +0.119 C 
BRANCH  27   8
ATOM      4  O   UNL     1      -6.275   4.338  25.676  0.00  0.00    -0.276 OA
ATOM      8  N   UNL     1      -4.264   3.182  25.469  0.00  0.00    -0.314 N 
ATOM     34  C   UNL     1      -5.597   3.325  25.830  0.00  0.00    +0.210 C 
ATOM     35  C   UNL     1      -6.171   2.069  26.428  0.00  0.00    +0.109 C 
ATOM     38  H   UNL     1      -3.804   2.290  25.628  0.00  0.00    +0.149 HD
ENDBRANCH  27   8
ENDBRANCH  22  27
ENDBRANCH   6  22
ENDBRANCH  12   6
TORSDOF 7
ENDMDL
MODEL 8
REMARK VINA RESULT:      11.7      2.591      5.689
REMARK  Name = 25389733
REMARK  9 active torsions:
REMARK  status: ('A' for Active; 'I' for Inactive)
REMARK    1  A    between atoms: O_2  and  C_21
REMARK    2  A    between atoms: O_2  and  C_33
REMARK    3  A    between atoms: N_6  and  C_12
REMARK    4  A    between atoms: N_6  and  C_22
REMARK    5  A    between atoms: N_8  and  C_27
REMARK    6  A    between atoms: C_10  and  C_18
REMARK    7  A    between atoms: C_14  and  C_21
REMARK    8  A    between atoms: C_22  and  C_27
REMARK    9  A    between atoms: C_34  and  C_35
REMARK                            x       y       z     vdW  Elec       q    Type
REMARK                         _______ _______ _______ _____ _____    ______ ____
ROOT
ATOM      5  N   UNL     1      -1.891   1.193  24.738  0.00  0.00    -0.274 NA
ATOM      7  N   UNL     1       1.773   1.877  24.280  0.00  0.00    -0.356 N 
ATOM      9  C   UNL     1      -0.600   1.762  25.233  0.00  0.00    +0.106 C 
ATOM     10  C   UNL     1      -3.030   1.548  25.623  0.00  0.00    +0.093 C 
ATOM     11  C   UNL     1      -0.690   3.291  25.351  0.00  0.00    +0.044 C 
ATOM     12  C   UNL     1      -1.823   3.689  26.296  0.00  0.00    +0.057 C 
ATOM     13  C   UNL     1      -3.137   3.081  25.806  0.00  0.00    +0.042 C 
ATOM     14  C   UNL     1      -1.795  -0.252  24.394  0.00  0.00    +0.172 C 
ATOM     15  C   UNL     1       0.516   1.342  24.325  0.00  0.00    +0.038 A 
ATOM     16  C   UNL     1      -0.766  -0.527  23.267  0.00  0.00    +0.068 C 
ATOM     17  C   UNL     1       0.467   0.290  23.436  0.00  0.00    -0.016 A 
ATOM     19  C   UNL     1       1.732   0.203  22.796  0.00  0.00    +0.003 A 
ATOM     20  C   UNL     1       2.533   1.210  23.343  0.00  0.00    +0.047 A 
ATOM     25  C   UNL     1       2.283  -0.638  21.807  0.00  0.00    +0.010 A 
ATOM     26  C   UNL     1       3.858   1.418  22.946  0.00  0.00    +0.026 A 
ATOM     28  C   UNL     1       3.606  -0.439  21.400  0.00  0.00    +0.001 A 
ATOM     31  C   UNL     1       4.381   0.574  21.962  0.00  0.00    +0.002 A 
ATOM     37  H   UNL     1       2.103   2.649  24.844  0.00  0.00    +0.166 HD
ENDROOT
BRANCH  10  18
ATOM      1  F   UNL     1      -5.429   3.062  25.821  0.00  0.00    -0.205 F 
ATOM     18  C   UNL     1      -4.384   1.047  25.128  0.00  0.00    +0.005 A 
ATOM     23  C   UNL     1      -5.519   1.848  25.260  0.00  0.00    +0.128 A 
ATOM     24  C   UNL     1      -4.486  -0.215  24.542  0.00  0.00    +0.008 A 
ATOM     29  C   UNL     1      -6.754   1.388  24.806  0.00  0.00    +0.038 A 
ATOM     30  C   UNL     1      -5.723  -0.676  24.088  0.00  0.00    +0.000 A 
ATOM     32  C   UNL     1      -6.857   0.126  24.221  0.00  0.00    +0.003 A 
ENDBRANCH  10  18
BRANCH  14  21
ATOM      3  O   UNL     1      -1.302  -0.586  26.731  0.00  0.00    -0.249 OA
ATOM     21  C   UNL     1      -1.479  -1.064  25.618  0.00  0.00    +0.325 C 
BRANCH  21   2
ATOM      2  O   UNL     1      -1.424  -2.385  25.286  0.00  0.00    -0.467 OA
ATOM     33  C   UNL     1      -2.627  -2.928  24.731  0.00  0.00    +0.280 C 
ENDBRANCH  21   2
ENDBRANCH  14  21
BRANCH  12   6
ATOM      6  N   UNL     1      -1.922   5.146  26.377  0.00  0.00    -0.312 NA
ATOM     36  H   UNL     1      -2.807   5.410  26.811  0.00  0.00    +0.122 HD
BRANCH   6  22
ATOM     22  C   UNL     1      -1.856   5.741  25.051  0.00  0.00    +0.100 C 
BRANCH  22  27
ATOM     27  C   UNL     1      -2.971   5.198  24.171  0.00  0.00    +0.119 C 
BRANCH  27   8
ATOM      4  O   UNL     1      -4.558   3.383  22.553  0.00  0.00    -0.276 OA
ATOM      8  N   UNL     1      -2.493   4.149  23.312  0.00  0.00    -0.314 N 
ATOM     34  C   UNL     1      -3.331   3.325  22.571  0.00  0.00    +0.210 C 
ATOM     35  C   UNL     1      -2.570   2.330  21.738  0.00  0.00    +0.109 C 
ATOM     38  H   UNL     1      -1.488   4.023  23.238  0.00  0.00    +0.149 HD
ENDBRANCH  27   8
ENDBRANCH  22  27
ENDBRANCH   6  22
ENDBRANCH  12   6
TORSDOF 7
ENDMDL
MODEL 9
REMARK VINA RESULT:      11.9      2.317      7.051
REMARK  Name = 25389733
REMARK  9 active torsions:
REMARK  status: ('A' for Active; 'I' for Inactive)
REMARK    1  A    between atoms: O_2  and  C_21
REMARK    2  A    between atoms: O_2  and  C_33
REMARK    3  A    between atoms: N_6  and  C_12
REMARK    4  A    between atoms: N_6  and  C_22
REMARK    5  A    between atoms: N_8  and  C_27
REMARK    6  A    between atoms: C_10  and  C_18
REMARK    7  A    between atoms: C_14  and  C_21
REMARK    8  A    between atoms: C_22  and  C_27
REMARK    9  A    between atoms: C_34  and  C_35
REMARK                            x       y       z     vdW  Elec       q    Type
REMARK                         _______ _______ _______ _____ _____    ______ ____
ROOT
ATOM      5  N   UNL     1      -1.916   2.250  25.396  0.00  0.00    -0.274 NA
ATOM      7  N   UNL     1       1.622   2.391  26.647  0.00  0.00    -0.356 N 
ATOM      9  C   UNL     1      -0.455   2.456  25.153  0.00  0.00    +0.106 C 
ATOM     10  C   UNL     1      -2.693   2.236  24.130  0.00  0.00    +0.093 C 
ATOM     11  C   UNL     1       0.102   1.360  24.231  0.00  0.00    +0.044 C 
ATOM     12  C   UNL     1      -0.645   1.352  22.898  0.00  0.00    +0.057 C 
ATOM     13  C   UNL     1      -2.141   1.172  23.149  0.00  0.00    +0.042 C 
ATOM     14  C   UNL     1      -2.460   3.147  26.452  0.00  0.00    +0.172 C 
ATOM     15  C   UNL     1       0.272   2.500  26.463  0.00  0.00    +0.038 A 
ATOM     16  C   UNL     1      -1.780   2.925  27.827  0.00  0.00    +0.068 C 
ATOM     17  C   UNL     1      -0.311   2.731  27.690  0.00  0.00    -0.016 A 
ATOM     19  C   UNL     1       0.720   2.727  28.668  0.00  0.00    +0.003 A 
ATOM     20  C   UNL     1       1.922   2.511  27.988  0.00  0.00    +0.047 A 
ATOM     25  C   UNL     1       0.753   2.891  30.068  0.00  0.00    +0.010 A 
ATOM     26  C   UNL     1       3.158   2.449  28.642  0.00  0.00    +0.026 A 
ATOM     28  C   UNL     1       1.983   2.830  30.734  0.00  0.00    +0.001 A 
ATOM     31  C   UNL     1       3.165   2.612  30.030  0.00  0.00    +0.002 A 
ATOM     37  H   UNL     1       2.305   2.242  25.917  0.00  0.00    +0.166 HD
ENDROOT
BRANCH  10  18
ATOM      1  F   UNL     1      -4.665   4.284  24.185  0.00  0.00    -0.205 F 
ATOM     18  C   UNL     1      -4.183   1.964  24.316  0.00  0.00    +0.005 A 
ATOM     23  C   UNL     1      -5.092   3.022  24.333  0.00  0.00    +0.128 A 
ATOM     24  C   UNL     1      -4.636   0.654  24.470  0.00  0.00    +0.008 A 
ATOM     29  C   UNL     1      -6.453   2.771  24.503  0.00  0.00    +0.038 A 
ATOM     30  C   UNL     1      -5.998   0.402  24.640  0.00  0.00    +0.000 A 
ATOM     32  C   UNL     1      -6.907   1.460  24.657  0.00  0.00    +0.003 A 
ENDBRANCH  10  18
BRANCH  14  21
ATOM      3  O   UNL     1      -3.165   5.450  26.330  0.00  0.00    -0.249 OA
ATOM     21  C   UNL     1      -2.355   4.584  26.027  0.00  0.00    +0.325 C 
BRANCH  21   2
ATOM      2  O   UNL     1      -1.234   4.754  25.268  0.00  0.00    -0.467 OA
ATOM     33  C   UNL     1      -1.143   6.005  24.580  0.00  0.00    +0.280 C 
ENDBRANCH  21   2
ENDBRANCH  14  21
BRANCH  12   6
ATOM      6  N   UNL     1      -0.130   0.285  22.040  0.00  0.00    -0.312 NA
ATOM     36  H   UNL     1      -0.895  -0.321  21.743  0.00  0.00    +0.122 HD
BRANCH   6  22
ATOM     22  C   UNL     1       0.854  -0.518  22.750  0.00  0.00    +0.100 C 
BRANCH  22  27
ATOM     27  C   UNL     1       0.293  -0.982  24.085  0.00  0.00    +0.119 C 
BRANCH  27   8
ATOM      4  O   UNL     1      -2.021  -1.152  25.830  0.00  0.00    -0.276 OA
ATOM      8  N   UNL     1      -0.880  -1.794  23.903  0.00  0.00    -0.314 N 
ATOM     34  C   UNL     1      -1.944  -1.811  24.796  0.00  0.00    +0.210 C 
ATOM     35  C   UNL     1      -3.053  -2.726  24.354  0.00  0.00    +0.109 C 
ATOM     38  H   UNL     1      -0.930  -2.368  23.068  0.00  0.00    +0.149 HD
ENDBRANCH  27   8
ENDBRANCH  22  27
ENDBRANCH   6  22
ENDBRANCH  12   6
TORSDOF 7
ENDMDL
