MODEL 1
REMARK VINA RESULT:       1.8      0.000      0.000
REMARK  Name = 45784060
REMARK  3 active torsions:
REMARK  status: ('A' for Active; 'I' for Inactive)
REMARK    1  A    between atoms: C_8  and  C_15
REMARK    2  A    between atoms: C_9  and  C_19
REMARK    3  A    between atoms: C_24  and  C_26
REMARK                            x       y       z     vdW  Elec       q    Type
REMARK                         _______ _______ _______ _____ _____    ______ ____
ROOT
ATOM      6  N   UNL     1       1.484  -1.831  24.438  0.00  0.00    -0.342 N 
ATOM      7  N   UNL     1       0.436  -0.223  23.318  0.00  0.00    -0.232 NA
ATOM     19  C   UNL     1       0.284  -1.301  24.054  0.00  0.00    +0.113 A 
ATOM     20  C   UNL     1       2.477  -1.043  23.915  0.00  0.00    +0.067 A 
ATOM     21  C   UNL     1       1.798  -0.047  23.220  0.00  0.00    +0.089 A 
ATOM     22  C   UNL     1       3.868  -1.115  23.988  0.00  0.00    +0.040 A 
ATOM     23  C   UNL     1       2.534   0.946  22.552  0.00  0.00    +0.030 A 
ATOM     24  C   UNL     1       4.585  -0.119  23.316  0.00  0.00    +0.057 A 
ATOM     25  C   UNL     1       3.932   0.894  22.611  0.00  0.00    +0.014 A 
ATOM     27  H   UNL     1       1.618  -2.657  25.008  0.00  0.00    +0.167 HD
ENDROOT
BRANCH  19   9
ATOM      4  O   UNL     1      -4.291   0.453  23.001  0.00  0.00    -0.275 OA
ATOM      5  N   UNL     1      -2.803  -0.358  24.571  0.00  0.00    -0.301 N 
ATOM      9  C   UNL     1      -1.030  -1.939  24.469  0.00  0.00    +0.074 C 
ATOM     10  C   UNL     1      -2.291  -1.446  23.748  0.00  0.00    +0.119 C 
ATOM     11  C   UNL     1      -1.367  -1.639  25.938  0.00  0.00    +0.032 C 
ATOM     12  C   UNL     1      -2.154  -0.336  25.877  0.00  0.00    +0.108 C 
ATOM     15  C   UNL     1      -3.773   0.517  24.117  0.00  0.00    +0.219 C 
BRANCH  15   8
ATOM      8  C   UNL     1      -4.185   1.582  25.086  0.00  0.00    +0.075 C 
ATOM     13  C   UNL     1      -5.706   1.743  25.041  0.00  0.00    +0.013 C 
ATOM     14  C   UNL     1      -3.472   2.894  24.751  0.00  0.00    +0.013 C 
ATOM     16  C   UNL     1      -6.175   2.886  25.938  0.00  0.00    +0.001 C 
ATOM     17  C   UNL     1      -3.944   4.033  25.652  0.00  0.00    +0.001 C 
ATOM     18  C   UNL     1      -5.461   4.193  25.606  0.00  0.00    +0.000 C 
ENDBRANCH  15   8
ENDBRANCH  19   9
BRANCH  24  26
ATOM      1  F   UNL     1       6.563  -1.012  24.288  0.00  0.00    -0.166 F 
ATOM      2  F   UNL     1       6.651  -0.510  22.174  0.00  0.00    -0.166 F 
ATOM      3  F   UNL     1       6.633   1.069  23.662  0.00  0.00    -0.166 F 
ATOM     26  C   UNL     1       6.079  -0.141  23.357  0.00  0.00    +0.417 C 
ENDBRANCH  24  26
TORSDOF 3
ENDMDL
MODEL 2
REMARK VINA RESULT:       2.7      1.164      1.683
REMARK  Name = 45784060
REMARK  3 active torsions:
REMARK  status: ('A' for Active; 'I' for Inactive)
REMARK    1  A    between atoms: C_8  and  C_15
REMARK    2  A    between atoms: C_9  and  C_19
REMARK    3  A    between atoms: C_24  and  C_26
REMARK                            x       y       z     vdW  Elec       q    Type
REMARK                         _______ _______ _______ _____ _____    ______ ____
ROOT
ATOM      6  N   UNL     1       1.190  -1.246  23.889  0.00  0.00    -0.342 N 
ATOM      7  N   UNL     1       0.681   0.754  23.064  0.00  0.00    -0.232 NA
ATOM     19  C   UNL     1       0.199  -0.367  23.552  0.00  0.00    +0.113 A 
ATOM     20  C   UNL     1       2.392  -0.654  23.600  0.00  0.00    +0.067 A 
ATOM     21  C   UNL     1       2.048   0.593  23.085  0.00  0.00    +0.089 A 
ATOM     22  C   UNL     1       3.710  -1.089  23.739  0.00  0.00    +0.040 A 
ATOM     23  C   UNL     1       3.067   1.472  22.682  0.00  0.00    +0.030 A 
ATOM     24  C   UNL     1       4.712  -0.201  23.331  0.00  0.00    +0.057 A 
ATOM     25  C   UNL     1       4.398   1.057  22.812  0.00  0.00    +0.014 A 
ATOM     27  H   UNL     1       1.061  -2.169  24.284  0.00  0.00    +0.167 HD
ENDROOT
BRANCH  19   9
ATOM      4  O   UNL     1      -3.701   2.392  22.037  0.00  0.00    -0.275 OA
ATOM      5  N   UNL     1      -2.658   1.212  23.727  0.00  0.00    -0.301 N 
ATOM      9  C   UNL     1      -1.266  -0.715  23.747  0.00  0.00    +0.074 C 
ATOM     10  C   UNL     1      -2.278   0.071  22.904  0.00  0.00    +0.119 C 
ATOM     11  C   UNL     1      -1.737  -0.406  25.177  0.00  0.00    +0.032 C 
ATOM     12  C   UNL     1      -2.211   1.040  25.105  0.00  0.00    +0.108 C 
ATOM     15  C   UNL     1      -3.345   2.297  23.213  0.00  0.00    +0.219 C 
BRANCH  15   8
ATOM      8  C   UNL     1      -3.654   3.388  24.191  0.00  0.00    +0.075 C 
ATOM     13  C   UNL     1      -2.362   3.827  24.881  0.00  0.00    +0.013 C 
ATOM     14  C   UNL     1      -4.693   2.901  25.202  0.00  0.00    +0.013 C 
ATOM     16  C   UNL     1      -2.631   4.872  25.961  0.00  0.00    +0.001 C 
ATOM     17  C   UNL     1      -4.960   3.949  26.280  0.00  0.00    +0.001 C 
ATOM     18  C   UNL     1      -3.670   4.387  26.968  0.00  0.00    +0.000 C 
ENDBRANCH  15   8
ENDBRANCH  19   9
BRANCH  24  26
ATOM      1  F   UNL     1       6.289  -1.836  24.033  0.00  0.00    -0.166 F 
ATOM      2  F   UNL     1       6.795  -0.686  22.259  0.00  0.00    -0.166 F 
ATOM      3  F   UNL     1       6.889   0.246  24.216  0.00  0.00    -0.166 F 
ATOM     26  C   UNL     1       6.144  -0.609  23.456  0.00  0.00    +0.417 C 
ENDBRANCH  24  26
TORSDOF 3
ENDMDL
MODEL 3
REMARK VINA RESULT:       5.3      1.326      2.395
REMARK  Name = 45784060
REMARK  3 active torsions:
REMARK  status: ('A' for Active; 'I' for Inactive)
REMARK    1  A    between atoms: C_8  and  C_15
REMARK    2  A    between atoms: C_9  and  C_19
REMARK    3  A    between atoms: C_24  and  C_26
REMARK                            x       y       z     vdW  Elec       q    Type
REMARK                         _______ _______ _______ _____ _____    ______ ____
ROOT
ATOM      6  N   UNL     1      -0.132   0.081  23.380  0.00  0.00    -0.342 N 
ATOM      7  N   UNL     1      -0.019  -1.897  24.390  0.00  0.00    -0.232 NA
ATOM     19  C   UNL     1      -0.822  -0.954  23.949  0.00  0.00    +0.113 A 
ATOM     20  C   UNL     1       1.204  -0.214  23.458  0.00  0.00    +0.067 A 
ATOM     21  C   UNL     1       1.249  -1.452  24.093  0.00  0.00    +0.089 A 
ATOM     22  C   UNL     1       2.343   0.476  23.042  0.00  0.00    +0.040 A 
ATOM     23  C   UNL     1       2.496  -2.054  24.333  0.00  0.00    +0.030 A 
ATOM     24  C   UNL     1       3.576  -0.137  23.291  0.00  0.00    +0.057 A 
ATOM     25  C   UNL     1       3.654  -1.379  23.924  0.00  0.00    +0.014 A 
ATOM     27  H   UNL     1      -0.535   0.914  22.973  0.00  0.00    +0.167 HD
ENDROOT
BRANCH  19   9
ATOM      4  O   UNL     1      -3.836   2.572  22.051  0.00  0.00    -0.275 OA
ATOM      5  N   UNL     1      -3.233   1.251  23.849  0.00  0.00    -0.301 N 
ATOM      9  C   UNL     1      -2.338  -0.944  24.027  0.00  0.00    +0.074 C 
ATOM     10  C   UNL     1      -3.069   0.020  23.085  0.00  0.00    +0.119 C 
ATOM     11  C   UNL     1      -2.832  -0.477  25.405  0.00  0.00    +0.032 C 
ATOM     12  C   UNL     1      -2.948   1.036  25.263  0.00  0.00    +0.108 C 
ATOM     15  C   UNL     1      -3.605   2.444  23.255  0.00  0.00    +0.219 C 
BRANCH  15   8
ATOM      8  C   UNL     1      -3.724   3.616  24.180  0.00  0.00    +0.075 C 
ATOM     13  C   UNL     1      -2.358   3.905  24.805  0.00  0.00    +0.013 C 
ATOM     14  C   UNL     1      -4.781   3.330  25.248  0.00  0.00    +0.013 C 
ATOM     16  C   UNL     1      -2.440   5.031  25.833  0.00  0.00    +0.001 C 
ATOM     17  C   UNL     1      -4.860   4.459  26.273  0.00  0.00    +0.001 C 
ATOM     18  C   UNL     1      -3.498   4.747  26.897  0.00  0.00    +0.000 C 
ENDBRANCH  15   8
ENDBRANCH  19   9
BRANCH  24  26
ATOM      1  F   UNL     1       4.627   1.435  21.848  0.00  0.00    -0.166 F 
ATOM      2  F   UNL     1       5.421   1.273  23.866  0.00  0.00    -0.166 F 
ATOM      3  F   UNL     1       5.800  -0.304  22.424  0.00  0.00    -0.166 F 
ATOM     26  C   UNL     1       4.832   0.552  22.868  0.00  0.00    +0.417 C 
ENDBRANCH  24  26
TORSDOF 3
ENDMDL
