MODEL 1
REMARK VINA RESULT:       3.2      0.000      0.000
REMARK  Name = 26742478
REMARK  9 active torsions:
REMARK  status: ('A' for Active; 'I' for Inactive)
REMARK    1  A    between atoms: N_3  and  C_14
REMARK    2  A    between atoms: N_6  and  C_30
REMARK    3  A    between atoms: N_6  and  C_31
REMARK    4  A    between atoms: N_6  and  C_32
REMARK    5  A    between atoms: C_8  and  C_15
REMARK    6  A    between atoms: C_9  and  C_14
REMARK    7  A    between atoms: C_16  and  C_18
REMARK    8  A    between atoms: C_22  and  C_24
REMARK    9  A    between atoms: C_23  and  C_25
REMARK                            x       y       z     vdW  Elec       q    Type
REMARK                         _______ _______ _______ _____ _____    ______ ____
ROOT
ATOM      2  N   UNL     1      -4.524   3.446  25.626  0.00  0.00    -0.297 NA
ATOM      7  C   UNL     1      -5.705   1.408  24.515  0.00  0.00    +0.002 C 
ATOM      8  C   UNL     1      -4.571   0.929  25.462  0.00  0.00    +0.055 C 
ATOM      9  C   UNL     1      -4.610   3.648  24.155  0.00  0.00    +0.074 C 
ATOM     10  C   UNL     1      -5.118   2.367  23.458  0.00  0.00    +0.024 C 
ATOM     11  C   UNL     1      -6.687   2.230  25.377  0.00  0.00    +0.019 C 
ATOM     12  C   UNL     1      -3.789   2.191  25.924  0.00  0.00    +0.094 C 
ATOM     13  C   UNL     1      -5.905   3.308  26.147  0.00  0.00    +0.085 C 
ENDROOT
BRANCH   8  15
ATOM      4  N   UNL     1      -4.190  -1.401  24.822  0.00  0.00    -0.237 NA
ATOM      5  N   UNL     1      -2.034  -2.199  24.100  0.00  0.00    -0.232 NA
ATOM     15  C   UNL     1      -3.646  -0.176  24.972  0.00  0.00    +0.050 A 
ATOM     17  C   UNL     1      -2.321   0.112  24.710  0.00  0.00    +0.052 A 
ATOM     22  C   UNL     1      -1.556  -0.950  24.272  0.00  0.00    +0.075 A 
ATOM     23  C   UNL     1      -3.340  -2.352  24.389  0.00  0.00    +0.127 A 
ATOM     25  C   UNL     1      -3.906  -3.721  24.212  0.00  0.00    +0.088 C 
BRANCH  22  24
ATOM     24  C   UNL     1      -0.155  -0.780  23.965  0.00  0.00    +0.001 A 
ATOM     26  C   UNL     1       0.799  -1.578  24.596  0.00  0.00    +0.012 A 
ATOM     27  C   UNL     1       0.243   0.183  23.038  0.00  0.00    +0.012 A 
ATOM     28  C   UNL     1       2.152  -1.414  24.299  0.00  0.00    +0.024 A 
ATOM     29  C   UNL     1       1.597   0.347  22.741  0.00  0.00    +0.024 A 
ATOM     30  C   UNL     1       2.551  -0.451  23.372  0.00  0.00    +0.029 A 
BRANCH  30   6
ATOM      6  N   UNL     1       3.919  -0.284  23.072  0.00  0.00    -0.336 N 
ATOM     31  C   UNL     1       4.342   0.722  22.117  0.00  0.00    +0.129 C 
ATOM     32  C   UNL     1       4.920  -1.107  23.720  0.00  0.00    +0.129 C 
ENDBRANCH  30   6
ENDBRANCH  22  24
ENDBRANCH   8  15
BRANCH   9  14
ATOM     14  C   UNL     1      -3.291   4.139  23.556  0.00  0.00    +0.123 C 
BRANCH  14   3
ATOM      1  O   UNL     1      -1.428   5.751  25.030  0.00  0.00    -0.276 OA
ATOM      3  N   UNL     1      -2.177   3.677  24.325  0.00  0.00    -0.314 N 
ATOM     18  C   UNL     1      -1.310   4.521  25.019  0.00  0.00    +0.216 C 
ATOM     33  H   UNL     1      -2.009   2.675  24.362  0.00  0.00    +0.149 HD
BRANCH  18  16
ATOM     16  C   UNL     1      -0.183   3.781  25.763  0.00  0.00    +0.075 C 
ATOM     19  C   UNL     1      -0.592   2.845  26.919  0.00  0.00    +0.013 C 
ATOM     20  C   UNL     1       0.427   2.542  25.076  0.00  0.00    +0.013 C 
ATOM     21  C   UNL     1       0.570   1.927  26.484  0.00  0.00    +0.001 C 
ENDBRANCH  18  16
ENDBRANCH  14   3
ENDBRANCH   9  14
TORSDOF 6
ENDMDL
MODEL 2
REMARK VINA RESULT:       6.4      2.079      4.294
REMARK  Name = 26742478
REMARK  9 active torsions:
REMARK  status: ('A' for Active; 'I' for Inactive)
REMARK    1  A    between atoms: N_3  and  C_14
REMARK    2  A    between atoms: N_6  and  C_30
REMARK    3  A    between atoms: N_6  and  C_31
REMARK    4  A    between atoms: N_6  and  C_32
REMARK    5  A    between atoms: C_8  and  C_15
REMARK    6  A    between atoms: C_9  and  C_14
REMARK    7  A    between atoms: C_16  and  C_18
REMARK    8  A    between atoms: C_22  and  C_24
REMARK    9  A    between atoms: C_23  and  C_25
REMARK                            x       y       z     vdW  Elec       q    Type
REMARK                         _______ _______ _______ _____ _____    ______ ____
ROOT
ATOM      2  N   UNL     1      -3.400   3.933  24.199  0.00  0.00    -0.297 NA
ATOM      7  C   UNL     1      -0.968   3.949  25.133  0.00  0.00    +0.002 C 
ATOM      8  C   UNL     1      -1.067   3.027  23.886  0.00  0.00    +0.055 C 
ATOM      9  C   UNL     1      -3.416   3.677  25.664  0.00  0.00    +0.074 C 
ATOM     10  C   UNL     1      -1.981   3.478  26.198  0.00  0.00    +0.024 C 
ATOM     11  C   UNL     1      -1.410   5.357  24.679  0.00  0.00    +0.019 C 
ATOM     12  C   UNL     1      -2.572   2.909  23.513  0.00  0.00    +0.094 C 
ATOM     13  C   UNL     1      -2.775   5.259  23.977  0.00  0.00    +0.085 C 
ENDROOT
BRANCH   8  15
ATOM      4  N   UNL     1      -1.157   0.605  24.227  0.00  0.00    -0.237 NA
ATOM      5  N   UNL     1       0.801  -0.789  24.056  0.00  0.00    -0.232 NA
ATOM     15  C   UNL     1      -0.379   1.670  23.941  0.00  0.00    +0.050 A 
ATOM     17  C   UNL     1       0.979   1.585  23.705  0.00  0.00    +0.052 A 
ATOM     22  C   UNL     1       1.519   0.317  23.776  0.00  0.00    +0.075 A 
ATOM     23  C   UNL     1      -0.512  -0.576  24.268  0.00  0.00    +0.127 A 
ATOM     25  C   UNL     1      -1.340  -1.776  24.582  0.00  0.00    +0.088 C 
BRANCH  22  24
ATOM     24  C   UNL     1       2.927   0.095  23.550  0.00  0.00    +0.001 A 
ATOM     26  C   UNL     1       3.509  -1.119  23.913  0.00  0.00    +0.012 A 
ATOM     27  C   UNL     1       3.707   1.096  22.970  0.00  0.00    +0.012 A 
ATOM     28  C   UNL     1       4.870  -1.334  23.695  0.00  0.00    +0.024 A 
ATOM     29  C   UNL     1       5.068   0.881  22.752  0.00  0.00    +0.024 A 
ATOM     30  C   UNL     1       5.649  -0.334  23.115  0.00  0.00    +0.029 A 
BRANCH  30   6
ATOM      6  N   UNL     1       7.026  -0.549  22.895  0.00  0.00    -0.336 N 
ATOM     31  C   UNL     1       8.010   0.326  23.500  0.00  0.00    +0.129 C 
ATOM     32  C   UNL     1       7.474  -1.652  22.069  0.00  0.00    +0.129 C 
ENDBRANCH  30   6
ENDBRANCH  22  24
ENDBRANCH   8  15
BRANCH   9  14
ATOM     14  C   UNL     1      -4.332   2.512  26.042  0.00  0.00    +0.123 C 
BRANCH  14   3
ATOM      1  O   UNL     1      -5.934   0.544  24.698  0.00  0.00    -0.276 OA
ATOM      3  N   UNL     1      -3.876   1.292  25.452  0.00  0.00    -0.314 N 
ATOM     18  C   UNL     1      -4.715   0.378  24.812  0.00  0.00    +0.216 C 
ATOM     33  H   UNL     1      -2.883   1.079  25.509  0.00  0.00    +0.149 HD
BRANCH  18  16
ATOM     16  C   UNL     1      -3.983  -0.864  24.269  0.00  0.00    +0.075 C 
ATOM     19  C   UNL     1      -3.685  -2.004  25.264  0.00  0.00    +0.013 C 
ATOM     20  C   UNL     1      -4.818  -1.885  23.467  0.00  0.00    +0.013 C 
ATOM     21  C   UNL     1      -3.938  -2.984  24.100  0.00  0.00    +0.001 C 
ENDBRANCH  18  16
ENDBRANCH  14   3
ENDBRANCH   9  14
TORSDOF 6
ENDMDL
MODEL 3
REMARK VINA RESULT:       7.1      1.866      4.152
REMARK  Name = 26742478
REMARK  9 active torsions:
REMARK  status: ('A' for Active; 'I' for Inactive)
REMARK    1  A    between atoms: N_3  and  C_14
REMARK    2  A    between atoms: N_6  and  C_30
REMARK    3  A    between atoms: N_6  and  C_31
REMARK    4  A    between atoms: N_6  and  C_32
REMARK    5  A    between atoms: C_8  and  C_15
REMARK    6  A    between atoms: C_9  and  C_14
REMARK    7  A    between atoms: C_16  and  C_18
REMARK    8  A    between atoms: C_22  and  C_24
REMARK    9  A    between atoms: C_23  and  C_25
REMARK                            x       y       z     vdW  Elec       q    Type
REMARK                         _______ _______ _______ _____ _____    ______ ____
ROOT
ATOM      2  N   UNL     1      -3.740  -1.458  26.113  0.00  0.00    -0.297 NA
ATOM      7  C   UNL     1      -2.783  -2.000  23.752  0.00  0.00    +0.002 C 
ATOM      8  C   UNL     1      -1.663  -1.456  24.681  0.00  0.00    +0.055 C 
ATOM      9  C   UNL     1      -4.590  -0.834  25.065  0.00  0.00    +0.074 C 
ATOM     10  C   UNL     1      -3.929  -0.968  23.676  0.00  0.00    +0.024 C 
ATOM     11  C   UNL     1      -3.354  -3.262  24.435  0.00  0.00    +0.019 C 
ATOM     12  C   UNL     1      -2.343  -0.969  25.991  0.00  0.00    +0.094 C 
ATOM     13  C   UNL     1      -3.739  -2.923  25.885  0.00  0.00    +0.085 C 
ENDROOT
BRANCH   8  15
ATOM      4  N   UNL     1      -1.232   0.743  23.698  0.00  0.00    -0.237 NA
ATOM      5  N   UNL     1       0.984   1.462  23.084  0.00  0.00    -0.232 NA
ATOM     15  C   UNL     1      -0.698  -0.425  24.113  0.00  0.00    +0.050 A 
ATOM     17  C   UNL     1       0.649  -0.719  24.047  0.00  0.00    +0.052 A 
ATOM     22  C   UNL     1       1.450   0.273  23.518  0.00  0.00    +0.075 A 
ATOM     23  C   UNL     1      -0.347   1.628  23.202  0.00  0.00    +0.127 A 
ATOM     25  C   UNL     1      -0.900   2.930  22.731  0.00  0.00    +0.088 C 
BRANCH  22  24
ATOM     24  C   UNL     1       2.877   0.089  23.392  0.00  0.00    +0.001 A 
ATOM     26  C   UNL     1       3.663   1.096  22.832  0.00  0.00    +0.012 A 
ATOM     27  C   UNL     1       3.468  -1.096  23.829  0.00  0.00    +0.012 A 
ATOM     28  C   UNL     1       5.042   0.917  22.711  0.00  0.00    +0.024 A 
ATOM     29  C   UNL     1       4.846  -1.275  23.707  0.00  0.00    +0.024 A 
ATOM     30  C   UNL     1       5.633  -0.267  23.148  0.00  0.00    +0.029 A 
BRANCH  30   6
ATOM      6  N   UNL     1       7.026  -0.449  23.024  0.00  0.00    -0.336 N 
ATOM     31  C   UNL     1       7.556  -1.497  22.174  0.00  0.00    +0.129 C 
ATOM     32  C   UNL     1       7.946   0.413  23.738  0.00  0.00    +0.129 C 
ENDBRANCH  30   6
ENDBRANCH  22  24
ENDBRANCH   8  15
BRANCH   9  14
ATOM     14  C   UNL     1      -4.945   0.618  25.390  0.00  0.00    +0.123 C 
BRANCH  14   3
ATOM      1  O   UNL     1      -4.863   3.465  25.750  0.00  0.00    -0.276 OA
ATOM      3  N   UNL     1      -3.856   1.491  25.079  0.00  0.00    -0.314 N 
ATOM     18  C   UNL     1      -3.886   2.872  25.281  0.00  0.00    +0.216 C 
ATOM     33  H   UNL     1      -3.015   1.079  24.683  0.00  0.00    +0.149 HD
BRANCH  18  16
ATOM     16  C   UNL     1      -2.593   3.592  24.856  0.00  0.00    +0.075 C 
ATOM     19  C   UNL     1      -2.569   5.130  24.963  0.00  0.00    +0.013 C 
ATOM     20  C   UNL     1      -1.414   3.580  25.852  0.00  0.00    +0.013 C 
ATOM     21  C   UNL     1      -1.083   5.004  25.357  0.00  0.00    +0.001 C 
ENDBRANCH  18  16
ENDBRANCH  14   3
ENDBRANCH   9  14
TORSDOF 6
ENDMDL
