MODEL 1
REMARK VINA RESULT:      -2.0      0.000      0.000
REMARK  Name = 45783939
REMARK  10 active torsions:
REMARK  status: ('A' for Active; 'I' for Inactive)
REMARK    1  A    between atoms: N_4  and  C_15
REMARK    2  A    between atoms: C_8  and  C_12
REMARK    3  A    between atoms: C_9  and  C_15
REMARK    4  A    between atoms: C_11  and  C_16
REMARK    5  A    between atoms: C_12  and  C_17
REMARK    6  A    between atoms: C_12  and  C_18
REMARK    7  A    between atoms: C_13  and  C_19
REMARK    8  A    between atoms: C_16  and  C_20
REMARK    9  A    between atoms: C_21  and  C_23
REMARK   10  A    between atoms: C_22  and  C_24
REMARK                            x       y       z     vdW  Elec       q    Type
REMARK                         _______ _______ _______ _____ _____    ______ ____
ROOT
ATOM      8  C   UNL     1      -2.503   2.445  23.367  0.00  0.00    +0.000 C 
ATOM      9  C   UNL     1      -0.980   2.180  23.276  0.00  0.00    +0.032 C 
ATOM     10  C   UNL     1      -2.773   3.928  23.663  0.00  0.00    +0.012 C 
ATOM     11  C   UNL     1      -2.117   4.388  24.979  0.00  0.00    +0.024 C 
ATOM     13  C   UNL     1      -0.677   3.928  25.081  0.00  0.00    -0.073 C 
ATOM     14  C   UNL     1      -0.183   2.950  24.303  0.00  0.00    -0.022 C 
ATOM     19  C   UNL     1       0.195   4.652  26.069  0.00  0.00    +0.039 C 
ENDROOT
BRANCH   8  12
ATOM     12  C   UNL     1      -3.230   2.032  22.083  0.00  0.00    -0.013 C 
ATOM     17  C   UNL     1      -4.119   3.168  21.586  0.00  0.00    +0.007 C 
ATOM     18  C   UNL     1      -2.226   1.621  21.011  0.00  0.00    +0.007 C 
ENDBRANCH   8  12
BRANCH   9  15
ATOM     15  C   UNL     1      -0.669   0.685  23.405  0.00  0.00    +0.112 C 
BRANCH  15   4
ATOM      3  O   UNL     1       1.272  -0.235  21.501  0.00  0.00    -0.270 OA
ATOM      4  N   UNL     1       0.724   0.474  23.641  0.00  0.00    -0.311 N 
ATOM     21  C   UNL     1       1.601   0.022  22.655  0.00  0.00    +0.244 C 
ATOM     34  H   UNL     1       1.067   0.661  24.577  0.00  0.00    +0.149 HD
BRANCH  21  23
ATOM      7  N   UNL     1       5.674  -0.539  23.849  0.00  0.00    -0.263 NA
ATOM     23  C   UNL     1       3.015  -0.173  23.068  0.00  0.00    +0.040 A 
ATOM     25  C   UNL     1       3.427  -1.392  23.595  0.00  0.00    +0.033 A 
ATOM     26  C   UNL     1       3.932   0.864  22.930  0.00  0.00    +0.033 A 
ATOM     29  C   UNL     1       4.754  -1.522  23.967  0.00  0.00    +0.111 A 
ATOM     30  C   UNL     1       5.237   0.632  23.332  0.00  0.00    +0.111 A 
ENDBRANCH  21  23
ENDBRANCH  15   4
ENDBRANCH   9  15
BRANCH  11  16
ATOM     16  C   UNL     1      -2.930   3.923  26.192  0.00  0.00    +0.105 C 
BRANCH  16  20
ATOM      2  O   UNL     1      -3.248   1.581  25.583  0.00  0.00    -0.420 OA
ATOM      5  N   UNL     1      -5.147   2.755  25.735  0.00  0.00    -0.112 NA
ATOM      6  N   UNL     1      -5.474   1.457  25.386  0.00  0.00    -0.107 NA
ATOM     20  C   UNL     1      -3.839   2.781  25.839  0.00  0.00    +0.218 A 
ATOM     22  C   UNL     1      -4.335   0.809  25.308  0.00  0.00    +0.251 A 
BRANCH  22  24
ATOM      1  F   UNL     1      -2.737  -0.814  26.942  0.00  0.00    -0.205 F 
ATOM     24  C   UNL     1      -4.065  -0.562  24.985  0.00  0.00    +0.074 A 
ATOM     27  C   UNL     1      -3.264  -1.336  25.824  0.00  0.00    +0.136 A 
ATOM     28  C   UNL     1      -4.605  -1.120  23.826  0.00  0.00    +0.016 A 
ATOM     31  C   UNL     1      -3.003  -2.668  25.505  0.00  0.00    +0.039 A 
ATOM     32  C   UNL     1      -4.344  -2.452  23.507  0.00  0.00    +0.001 A 
ATOM     33  C   UNL     1      -3.543  -3.228  24.346  0.00  0.00    +0.003 A 
ENDBRANCH  22  24
ENDBRANCH  16  20
ENDBRANCH  11  16
TORSDOF 7
ENDMDL
MODEL 2
REMARK VINA RESULT:      -1.9      1.599      4.734
REMARK  Name = 45783939
REMARK  10 active torsions:
REMARK  status: ('A' for Active; 'I' for Inactive)
REMARK    1  A    between atoms: N_4  and  C_15
REMARK    2  A    between atoms: C_8  and  C_12
REMARK    3  A    between atoms: C_9  and  C_15
REMARK    4  A    between atoms: C_11  and  C_16
REMARK    5  A    between atoms: C_12  and  C_17
REMARK    6  A    between atoms: C_12  and  C_18
REMARK    7  A    between atoms: C_13  and  C_19
REMARK    8  A    between atoms: C_16  and  C_20
REMARK    9  A    between atoms: C_21  and  C_23
REMARK   10  A    between atoms: C_22  and  C_24
REMARK                            x       y       z     vdW  Elec       q    Type
REMARK                         _______ _______ _______ _____ _____    ______ ____
ROOT
ATOM      8  C   UNL     1      -1.912  -0.106  25.155  0.00  0.00    +0.000 C 
ATOM      9  C   UNL     1      -1.101  -1.216  24.442  0.00  0.00    +0.032 C 
ATOM     10  C   UNL     1      -3.015  -0.724  26.027  0.00  0.00    +0.012 C 
ATOM     11  C   UNL     1      -3.990  -1.591  25.206  0.00  0.00    +0.024 C 
ATOM     13  C   UNL     1      -3.257  -2.532  24.273  0.00  0.00    -0.073 C 
ATOM     14  C   UNL     1      -1.962  -2.357  23.953  0.00  0.00    -0.022 C 
ATOM     19  C   UNL     1      -4.034  -3.709  23.751  0.00  0.00    +0.039 C 
ENDROOT
BRANCH   8  12
ATOM     12  C   UNL     1      -1.015   0.792  26.014  0.00  0.00    -0.013 C 
ATOM     17  C   UNL     1      -0.391  -0.012  27.151  0.00  0.00    +0.007 C 
ATOM     18  C   UNL     1       0.064   1.443  25.156  0.00  0.00    +0.007 C 
ENDBRANCH   8  12
BRANCH   9  15
ATOM     15  C   UNL     1      -0.297  -0.645  23.269  0.00  0.00    +0.112 C 
BRANCH  15   4
ATOM      3  O   UNL     1       1.867  -0.153  21.447  0.00  0.00    -0.270 OA
ATOM      4  N   UNL     1       1.093  -0.568  23.595  0.00  0.00    -0.311 N 
ATOM     21  C   UNL     1       2.083  -0.325  22.644  0.00  0.00    +0.244 C 
ATOM     34  H   UNL     1       1.347  -0.706  24.567  0.00  0.00    +0.149 HD
BRANCH  21  23
ATOM      7  N   UNL     1       6.117  -0.256  24.075  0.00  0.00    -0.263 NA
ATOM     23  C   UNL     1       3.483  -0.302  23.139  0.00  0.00    +0.040 A 
ATOM     25  C   UNL     1       4.027  -1.426  23.749  0.00  0.00    +0.033 A 
ATOM     26  C   UNL     1       4.255   0.847  22.996  0.00  0.00    +0.033 A 
ATOM     29  C   UNL     1       5.336  -1.353  24.196  0.00  0.00    +0.111 A 
ATOM     30  C   UNL     1       5.555   0.817  23.477  0.00  0.00    +0.111 A 
ENDBRANCH  21  23
ENDBRANCH  15   4
ENDBRANCH   9  15
BRANCH  11  16
ATOM     16  C   UNL     1      -4.987  -0.719  24.435  0.00  0.00    +0.105 C 
BRANCH  16  20
ATOM      2  O   UNL     1      -3.704   1.356  24.511  0.00  0.00    -0.420 OA
ATOM      5  N   UNL     1      -5.736   1.499  25.438  0.00  0.00    -0.112 NA
ATOM      6  N   UNL     1      -5.127   2.736  25.551  0.00  0.00    -0.107 NA
ATOM     20  C   UNL     1      -4.870   0.726  24.826  0.00  0.00    +0.218 A 
ATOM     22  C   UNL     1      -3.943   2.605  24.998  0.00  0.00    +0.251 A 
BRANCH  22  24
ATOM      1  F   UNL     1      -2.067   2.386  22.927  0.00  0.00    -0.205 F 
ATOM     24  C   UNL     1      -2.885   3.557  24.829  0.00  0.00    +0.074 A 
ATOM     27  C   UNL     1      -1.970   3.412  23.786  0.00  0.00    +0.136 A 
ATOM     28  C   UNL     1      -2.771   4.630  25.712  0.00  0.00    +0.016 A 
ATOM     31  C   UNL     1      -0.941   4.340  23.626  0.00  0.00    +0.039 A 
ATOM     32  C   UNL     1      -1.741   5.558  25.553  0.00  0.00    +0.001 A 
ATOM     33  C   UNL     1      -0.826   5.414  24.510  0.00  0.00    +0.003 A 
ENDBRANCH  22  24
ENDBRANCH  16  20
ENDBRANCH  11  16
TORSDOF 7
ENDMDL
MODEL 3
REMARK VINA RESULT:       0.7      1.656      2.254
REMARK  Name = 45783939
REMARK  10 active torsions:
REMARK  status: ('A' for Active; 'I' for Inactive)
REMARK    1  A    between atoms: N_4  and  C_15
REMARK    2  A    between atoms: C_8  and  C_12
REMARK    3  A    between atoms: C_9  and  C_15
REMARK    4  A    between atoms: C_11  and  C_16
REMARK    5  A    between atoms: C_12  and  C_17
REMARK    6  A    between atoms: C_12  and  C_18
REMARK    7  A    between atoms: C_13  and  C_19
REMARK    8  A    between atoms: C_16  and  C_20
REMARK    9  A    between atoms: C_21  and  C_23
REMARK   10  A    between atoms: C_22  and  C_24
REMARK                            x       y       z     vdW  Elec       q    Type
REMARK                         _______ _______ _______ _____ _____    ______ ____
ROOT
ATOM      8  C   UNL     1      -2.923   2.517  23.957  0.00  0.00    +0.000 C 
ATOM      9  C   UNL     1      -1.665   2.974  24.737  0.00  0.00    +0.032 C 
ATOM     10  C   UNL     1      -3.918   3.678  23.817  0.00  0.00    +0.012 C 
ATOM     11  C   UNL     1      -4.366   4.231  25.184  0.00  0.00    +0.024 C 
ATOM     13  C   UNL     1      -3.190   4.456  26.112  0.00  0.00    -0.073 C 
ATOM     14  C   UNL     1      -1.987   3.897  25.889  0.00  0.00    -0.022 C 
ATOM     19  C   UNL     1      -3.415   5.376  27.279  0.00  0.00    +0.039 C 
ENDROOT
BRANCH   8  12
ATOM     12  C   UNL     1      -2.565   1.971  22.571  0.00  0.00    -0.013 C 
ATOM     17  C   UNL     1      -3.034   0.526  22.431  0.00  0.00    +0.007 C 
ATOM     18  C   UNL     1      -3.174   2.845  21.480  0.00  0.00    +0.007 C 
ENDBRANCH   8  12
BRANCH   9  15
ATOM     15  C   UNL     1      -0.868   1.772  25.254  0.00  0.00    +0.112 C 
BRANCH  15   4
ATOM      3  O   UNL     1      -0.129  -0.454  23.598  0.00  0.00    -0.270 OA
ATOM      4  N   UNL     1       0.351   1.619  24.523  0.00  0.00    -0.311 N 
ATOM     21  C   UNL     1       0.631   0.500  23.740  0.00  0.00    +0.244 C 
ATOM     34  H   UNL     1       1.031   2.368  24.597  0.00  0.00    +0.149 HD
BRANCH  21  23
ATOM      7  N   UNL     1       4.446   0.438  21.798  0.00  0.00    -0.263 NA
ATOM     23  C   UNL     1       1.954   0.480  23.065  0.00  0.00    +0.040 A 
ATOM     25  C   UNL     1       2.091  -0.111  21.814  0.00  0.00    +0.033 A 
ATOM     26  C   UNL     1       3.062   1.050  23.684  0.00  0.00    +0.033 A 
ATOM     29  C   UNL     1       3.346  -0.106  21.229  0.00  0.00    +0.111 A 
ATOM     30  C   UNL     1       4.274   1.002  23.014  0.00  0.00    +0.111 A 
ENDBRANCH  21  23
ENDBRANCH  15   4
ENDBRANCH   9  15
BRANCH  11  16
ATOM     16  C   UNL     1      -5.411   3.317  25.833  0.00  0.00    +0.105 C 
BRANCH  16  20
ATOM      2  O   UNL     1      -4.260   1.181  25.569  0.00  0.00    -0.420 OA
ATOM      5  N   UNL     1      -6.219   1.305  24.495  0.00  0.00    -0.112 NA
ATOM      6  N   UNL     1      -5.683   0.052  24.261  0.00  0.00    -0.107 NA
ATOM     20  C   UNL     1      -5.356   1.928  25.262  0.00  0.00    +0.218 A 
ATOM     22  C   UNL     1      -4.540   0.025  24.907  0.00  0.00    +0.251 A 
BRANCH  22  24
ATOM      1  F   UNL     1      -4.784  -2.400  23.522  0.00  0.00    -0.205 F 
ATOM     24  C   UNL     1      -3.560  -1.016  25.020  0.00  0.00    +0.074 A 
ATOM     27  C   UNL     1      -3.718  -2.209  24.315  0.00  0.00    +0.136 A 
ATOM     28  C   UNL     1      -2.447  -0.832  25.839  0.00  0.00    +0.016 A 
ATOM     31  C   UNL     1      -2.763  -3.218  24.429  0.00  0.00    +0.039 A 
ATOM     32  C   UNL     1      -1.491  -1.842  25.954  0.00  0.00    +0.001 A 
ATOM     33  C   UNL     1      -1.649  -3.036  25.248  0.00  0.00    +0.003 A 
ENDBRANCH  22  24
ENDBRANCH  16  20
ENDBRANCH  11  16
TORSDOF 7
ENDMDL
MODEL 4
REMARK VINA RESULT:       1.1      2.056      3.183
REMARK  Name = 45783939
REMARK  10 active torsions:
REMARK  status: ('A' for Active; 'I' for Inactive)
REMARK    1  A    between atoms: N_4  and  C_15
REMARK    2  A    between atoms: C_8  and  C_12
REMARK    3  A    between atoms: C_9  and  C_15
REMARK    4  A    between atoms: C_11  and  C_16
REMARK    5  A    between atoms: C_12  and  C_17
REMARK    6  A    between atoms: C_12  and  C_18
REMARK    7  A    between atoms: C_13  and  C_19
REMARK    8  A    between atoms: C_16  and  C_20
REMARK    9  A    between atoms: C_21  and  C_23
REMARK   10  A    between atoms: C_22  and  C_24
REMARK                            x       y       z     vdW  Elec       q    Type
REMARK                         _______ _______ _______ _____ _____    ______ ____
ROOT
ATOM      8  C   UNL     1      -1.599   3.889  24.660  0.00  0.00    +0.000 C 
ATOM      9  C   UNL     1      -1.829   3.287  26.069  0.00  0.00    +0.032 C 
ATOM     10  C   UNL     1      -2.620   5.002  24.380  0.00  0.00    +0.012 C 
ATOM     11  C   UNL     1      -4.073   4.495  24.463  0.00  0.00    +0.024 C 
ATOM     13  C   UNL     1      -4.306   3.659  25.705  0.00  0.00    -0.073 C 
ATOM     14  C   UNL     1      -3.291   3.139  26.417  0.00  0.00    -0.022 C 
ATOM     19  C   UNL     1      -5.735   3.472  26.137  0.00  0.00    +0.039 C 
ENDROOT
BRANCH   8  12
ATOM     12  C   UNL     1      -0.178   4.438  24.500  0.00  0.00    -0.013 C 
ATOM     17  C   UNL     1       0.325   4.206  23.079  0.00  0.00    +0.007 C 
ATOM     18  C   UNL     1      -0.136   5.921  24.854  0.00  0.00    +0.007 C 
ENDBRANCH   8  12
BRANCH   9  15
ATOM     15  C   UNL     1      -1.130   1.931  26.211  0.00  0.00    +0.112 C 
BRANCH  15   4
ATOM      3  O   UNL     1      -0.287  -0.588  25.122  0.00  0.00    -0.270 OA
ATOM      4  N   UNL     1      -0.190   1.730  25.153  0.00  0.00    -0.311 N 
ATOM     21  C   UNL     1       0.164   0.466  24.683  0.00  0.00    +0.244 C 
ATOM     34  H   UNL     1       0.229   2.558  24.744  0.00  0.00    +0.149 HD
BRANCH  21  23
ATOM      7  N   UNL     1       3.076   0.350  21.547  0.00  0.00    -0.263 NA
ATOM     23  C   UNL     1       1.176   0.424  23.596  0.00  0.00    +0.040 A 
ATOM     25  C   UNL     1       2.338   1.180  23.694  0.00  0.00    +0.033 A 
ATOM     26  C   UNL     1       0.962  -0.369  22.474  0.00  0.00    +0.033 A 
ATOM     29  C   UNL     1       3.248   1.110  22.653  0.00  0.00    +0.111 A 
ATOM     30  C   UNL     1       1.935  -0.371  21.487  0.00  0.00    +0.111 A 
ENDBRANCH  21  23
ENDBRANCH  15   4
ENDBRANCH   9  15
BRANCH  11  16
ATOM     16  C   UNL     1      -4.461   3.720  23.199  0.00  0.00    +0.105 C 
BRANCH  16  20
ATOM      2  O   UNL     1      -4.143   1.375  23.797  0.00  0.00    -0.420 OA
ATOM      5  N   UNL     1      -2.609   2.175  22.379  0.00  0.00    -0.112 NA
ATOM      6  N   UNL     1      -2.309   0.848  22.628  0.00  0.00    -0.107 NA
ATOM     20  C   UNL     1      -3.685   2.439  23.081  0.00  0.00    +0.218 A 
ATOM     22  C   UNL     1      -3.230   0.423  23.461  0.00  0.00    +0.251 A 
BRANCH  22  24
ATOM      1  F   UNL     1      -2.783  -0.026  26.191  0.00  0.00    -0.205 F 
ATOM     24  C   UNL     1      -3.419  -0.867  24.060  0.00  0.00    +0.074 A 
ATOM     27  C   UNL     1      -3.185  -1.049  25.422  0.00  0.00    +0.136 A 
ATOM     28  C   UNL     1      -3.838  -1.940  23.274  0.00  0.00    +0.016 A 
ATOM     31  C   UNL     1      -3.369  -2.305  26.000  0.00  0.00    +0.039 A 
ATOM     32  C   UNL     1      -4.021  -3.197  23.851  0.00  0.00    +0.001 A 
ATOM     33  C   UNL     1      -3.788  -3.380  25.214  0.00  0.00    +0.003 A 
ENDBRANCH  22  24
ENDBRANCH  16  20
ENDBRANCH  11  16
TORSDOF 7
ENDMDL
MODEL 5
REMARK VINA RESULT:       1.6      2.191      3.531
REMARK  Name = 45783939
REMARK  10 active torsions:
REMARK  status: ('A' for Active; 'I' for Inactive)
REMARK    1  A    between atoms: N_4  and  C_15
REMARK    2  A    between atoms: C_8  and  C_12
REMARK    3  A    between atoms: C_9  and  C_15
REMARK    4  A    between atoms: C_11  and  C_16
REMARK    5  A    between atoms: C_12  and  C_17
REMARK    6  A    between atoms: C_12  and  C_18
REMARK    7  A    between atoms: C_13  and  C_19
REMARK    8  A    between atoms: C_16  and  C_20
REMARK    9  A    between atoms: C_21  and  C_23
REMARK   10  A    between atoms: C_22  and  C_24
REMARK                            x       y       z     vdW  Elec       q    Type
REMARK                         _______ _______ _______ _____ _____    ______ ____
ROOT
ATOM      8  C   UNL     1      -1.968   4.207  24.760  0.00  0.00    +0.000 C 
ATOM      9  C   UNL     1      -2.234   3.938  26.262  0.00  0.00    +0.032 C 
ATOM     10  C   UNL     1      -3.065   5.108  24.174  0.00  0.00    +0.012 C 
ATOM     11  C   UNL     1      -4.468   4.488  24.318  0.00  0.00    +0.024 C 
ATOM     13  C   UNL     1      -4.706   3.953  25.715  0.00  0.00    -0.073 C 
ATOM     14  C   UNL     1      -3.697   3.727  26.574  0.00  0.00    -0.022 C 
ATOM     19  C   UNL     1      -6.137   3.728  26.119  0.00  0.00    +0.039 C 
ENDROOT
BRANCH   8  12
ATOM     12  C   UNL     1      -0.595   4.846  24.531  0.00  0.00    -0.013 C 
ATOM     17  C   UNL     1      -0.119   4.588  23.104  0.00  0.00    +0.007 C 
ATOM     18  C   UNL     1      -0.648   6.342  24.821  0.00  0.00    +0.007 C 
ENDBRANCH   8  12
BRANCH   9  15
ATOM     15  C   UNL     1      -1.426   2.735  26.760  0.00  0.00    +0.112 C 
BRANCH  15   4
ATOM      3  O   UNL     1       1.321   2.564  25.943  0.00  0.00    -0.270 OA
ATOM      4  N   UNL     1      -0.908   1.981  25.662  0.00  0.00    -0.311 N 
ATOM     21  C   UNL     1       0.447   1.954  25.333  0.00  0.00    +0.244 C 
ATOM     34  H   UNL     1      -1.574   1.455  25.108  0.00  0.00    +0.149 HD
BRANCH  21  23
ATOM      7  N   UNL     1       1.530  -0.386  21.916  0.00  0.00    -0.263 NA
ATOM     23  C   UNL     1       0.822   1.143  24.146  0.00  0.00    +0.040 A 
ATOM     25  C   UNL     1      -0.139   0.392  23.481  0.00  0.00    +0.033 A 
ATOM     26  C   UNL     1       2.139   1.131  23.697  0.00  0.00    +0.033 A 
ATOM     29  C   UNL     1       0.262  -0.350  22.382  0.00  0.00    +0.111 A 
ATOM     30  C   UNL     1       2.438   0.357  22.587  0.00  0.00    +0.111 A 
ENDBRANCH  21  23
ENDBRANCH  15   4
ENDBRANCH   9  15
BRANCH  11  16
ATOM     16  C   UNL     1      -4.700   3.397  23.266  0.00  0.00    +0.105 C 
BRANCH  16  20
ATOM      2  O   UNL     1      -3.695   1.277  23.937  0.00  0.00    -0.420 OA
ATOM      5  N   UNL     1      -5.868   1.460  24.435  0.00  0.00    -0.112 NA
ATOM      6  N   UNL     1      -5.434   0.221  24.868  0.00  0.00    -0.107 NA
ATOM     20  C   UNL     1      -4.821   2.041  23.899  0.00  0.00    +0.218 A 
ATOM     22  C   UNL     1      -4.160   0.158  24.556  0.00  0.00    +0.251 A 
BRANCH  22  24
ATOM      1  F   UNL     1      -4.400  -2.343  23.314  0.00  0.00    -0.205 F 
ATOM     24  C   UNL     1      -3.202  -0.889  24.765  0.00  0.00    +0.074 A 
ATOM     27  C   UNL     1      -3.357  -2.120  24.128  0.00  0.00    +0.136 A 
ATOM     28  C   UNL     1      -2.112  -0.672  25.608  0.00  0.00    +0.016 A 
ATOM     31  C   UNL     1      -2.423  -3.134  24.335  0.00  0.00    +0.039 A 
ATOM     32  C   UNL     1      -1.178  -1.687  25.815  0.00  0.00    +0.001 A 
ATOM     33  C   UNL     1      -1.333  -2.919  25.178  0.00  0.00    +0.003 A 
ENDBRANCH  22  24
ENDBRANCH  16  20
ENDBRANCH  11  16
TORSDOF 7
ENDMDL
MODEL 6
REMARK VINA RESULT:       1.7      1.918      2.426
REMARK  Name = 45783939
REMARK  10 active torsions:
REMARK  status: ('A' for Active; 'I' for Inactive)
REMARK    1  A    between atoms: N_4  and  C_15
REMARK    2  A    between atoms: C_8  and  C_12
REMARK    3  A    between atoms: C_9  and  C_15
REMARK    4  A    between atoms: C_11  and  C_16
REMARK    5  A    between atoms: C_12  and  C_17
REMARK    6  A    between atoms: C_12  and  C_18
REMARK    7  A    between atoms: C_13  and  C_19
REMARK    8  A    between atoms: C_16  and  C_20
REMARK    9  A    between atoms: C_21  and  C_23
REMARK   10  A    between atoms: C_22  and  C_24
REMARK                            x       y       z     vdW  Elec       q    Type
REMARK                         _______ _______ _______ _____ _____    ______ ____
ROOT
ATOM      8  C   UNL     1      -2.925   2.354  23.959  0.00  0.00    +0.000 C 
ATOM      9  C   UNL     1      -1.807   2.303  22.888  0.00  0.00    +0.032 C 
ATOM     10  C   UNL     1      -3.183   3.804  24.395  0.00  0.00    +0.012 C 
ATOM     11  C   UNL     1      -1.921   4.473  24.973  0.00  0.00    +0.024 C 
ATOM     13  C   UNL     1      -0.707   4.235  24.098  0.00  0.00    -0.073 C 
ATOM     14  C   UNL     1      -0.680   3.269  23.163  0.00  0.00    -0.022 C 
ATOM     19  C   UNL     1       0.459   5.163  24.292  0.00  0.00    +0.039 C 
ENDROOT
BRANCH   8  12
ATOM     12  C   UNL     1      -4.227   1.725  23.454  0.00  0.00    -0.013 C 
ATOM     17  C   UNL     1      -4.038   0.230  23.215  0.00  0.00    +0.007 C 
ATOM     18  C   UNL     1      -5.359   1.975  24.444  0.00  0.00    +0.007 C 
ENDBRANCH   8  12
BRANCH   9  15
ATOM     15  C   UNL     1      -1.242   0.885  22.746  0.00  0.00    +0.112 C 
BRANCH  15   4
ATOM      3  O   UNL     1       0.743  -0.738  21.455  0.00  0.00    -0.270 OA
ATOM      4  N   UNL     1       0.160   0.867  23.026  0.00  0.00    -0.311 N 
ATOM     21  C   UNL     1       1.058   0.043  22.349  0.00  0.00    +0.244 C 
ATOM     34  H   UNL     1       0.492   1.484  23.759  0.00  0.00    +0.149 HD
BRANCH  21  23
ATOM      7  N   UNL     1       5.153   0.268  23.576  0.00  0.00    -0.263 NA
ATOM     23  C   UNL     1       2.479   0.122  22.776  0.00  0.00    +0.040 A 
ATOM     25  C   UNL     1       3.190   1.306  22.620  0.00  0.00    +0.033 A 
ATOM     26  C   UNL     1       3.103  -0.990  23.333  0.00  0.00    +0.033 A 
ATOM     29  C   UNL     1       4.513   1.327  23.031  0.00  0.00    +0.111 A 
ATOM     30  C   UNL     1       4.429  -0.865  23.713  0.00  0.00    +0.111 A 
ENDBRANCH  21  23
ENDBRANCH  15   4
ENDBRANCH   9  15
BRANCH  11  16
ATOM     16  C   UNL     1      -1.661   4.009  26.411  0.00  0.00    +0.105 C 
BRANCH  16  20
ATOM      2  O   UNL     1      -1.978   1.632  25.962  0.00  0.00    -0.420 OA
ATOM      5  N   UNL     1      -0.004   2.134  26.888  0.00  0.00    -0.112 NA
ATOM      6  N   UNL     1      -0.046   0.766  26.691  0.00  0.00    -0.107 NA
ATOM     20  C   UNL     1      -1.151   2.597  26.449  0.00  0.00    +0.218 A 
ATOM     22  C   UNL     1      -1.217   0.518  26.149  0.00  0.00    +0.251 A 
BRANCH  22  24
ATOM      1  F   UNL     1       0.284  -1.485  24.887  0.00  0.00    -0.205 F 
ATOM     24  C   UNL     1      -1.805  -0.721  25.730  0.00  0.00    +0.074 A 
ATOM     27  C   UNL     1      -1.024  -1.692  25.105  0.00  0.00    +0.136 A 
ATOM     28  C   UNL     1      -3.162  -0.952  25.950  0.00  0.00    +0.016 A 
ATOM     31  C   UNL     1      -1.600  -2.895  24.699  0.00  0.00    +0.039 A 
ATOM     32  C   UNL     1      -3.739  -2.155  25.543  0.00  0.00    +0.001 A 
ATOM     33  C   UNL     1      -2.958  -3.128  24.918  0.00  0.00    +0.003 A 
ENDBRANCH  22  24
ENDBRANCH  16  20
ENDBRANCH  11  16
TORSDOF 7
ENDMDL
