MODEL 1
REMARK VINA RESULT:      -4.5      0.000      0.000
REMARK  Name = 75537041
REMARK  4 active torsions:
REMARK  status: ('A' for Active; 'I' for Inactive)
REMARK    1  A    between atoms: O_2  and  C_18
REMARK    2  A    between atoms: O_2  and  C_19
REMARK    3  A    between atoms: N_4  and  C_13
REMARK    4  A    between atoms: C_13  and  C_14
REMARK                            x       y       z     vdW  Elec       q    Type
REMARK                         _______ _______ _______ _____ _____    ______ ____
ROOT
ATOM      1  O   UNL     1      -5.203  -8.284  10.065  0.00  0.00    -0.253 OA
ATOM      3  N   UNL     1      -4.664  -9.750  11.825  0.00  0.00    -0.279 N 
ATOM      4  N   UNL     1      -4.405 -10.727  14.449  0.00  0.00    -0.295 NA
ATOM      5  N   UNL     1      -3.158  -9.429  10.189  0.00  0.00    -0.297 N 
ATOM      7  C   UNL     1      -3.593 -10.678  12.126  0.00  0.00    +0.109 C 
ATOM      8  C   UNL     1      -3.205 -10.579  13.601  0.00  0.00    +0.109 C 
ATOM      9  C   UNL     1      -5.828  -9.707  12.683  0.00  0.00    +0.125 C 
ATOM     10  C   UNL     1      -2.493 -10.287  11.143  0.00  0.00    +0.129 C 
ATOM     11  C   UNL     1      -5.394  -9.671  14.152  0.00  0.00    +0.104 C 
ATOM     12  C   UNL     1      -4.445  -9.061  10.627  0.00  0.00    +0.303 C 
ATOM     20  H   UNL     1      -2.724  -9.065   9.347  0.00  0.00    +0.150 HD
ENDROOT
BRANCH   4  13
ATOM     13  C   UNL     1      -4.036 -10.694  15.865  0.00  0.00    +0.121 C 
BRANCH  13  14
ATOM      6  N   UNL     1      -7.654 -10.780  16.977  0.00  0.00    -0.221 NA
ATOM     14  C   UNL     1      -5.248 -10.684  16.758  0.00  0.00    -0.015 A 
ATOM     15  C   UNL     1      -5.119 -10.579  18.139  0.00  0.00    +0.011 A 
ATOM     16  C   UNL     1      -6.525 -10.781  16.232  0.00  0.00    +0.119 A 
ATOM     17  C   UNL     1      -6.256 -10.575  18.939  0.00  0.00    +0.067 A 
ATOM     18  C   UNL     1      -7.489 -10.676  18.315  0.00  0.00    +0.214 A 
BRANCH  18   2
ATOM      2  O   UNL     1      -8.624 -10.674  19.082  0.00  0.00    -0.480 OA
ATOM     19  C   UNL     1      -9.834 -10.300  18.433  0.00  0.00    +0.279 C 
ENDBRANCH  18   2
ENDBRANCH  13  14
ENDBRANCH   4  13
TORSDOF 3
ENDMDL
MODEL 2
REMARK VINA RESULT:      -4.2     14.622     16.682
REMARK  Name = 75537041
REMARK  4 active torsions:
REMARK  status: ('A' for Active; 'I' for Inactive)
REMARK    1  A    between atoms: O_2  and  C_18
REMARK    2  A    between atoms: O_2  and  C_19
REMARK    3  A    between atoms: N_4  and  C_13
REMARK    4  A    between atoms: C_13  and  C_14
REMARK                            x       y       z     vdW  Elec       q    Type
REMARK                         _______ _______ _______ _____ _____    ______ ____
ROOT
ATOM      1  O   UNL     1      -6.379   3.090  26.249  0.00  0.00    -0.253 OA
ATOM      3  N   UNL     1      -4.691   1.999  25.025  0.00  0.00    -0.279 N 
ATOM      4  N   UNL     1      -2.770   0.063  24.344  0.00  0.00    -0.295 NA
ATOM      5  N   UNL     1      -4.540   4.220  25.328  0.00  0.00    -0.297 N 
ATOM      7  C   UNL     1      -3.541   2.397  24.240  0.00  0.00    +0.109 C 
ATOM      8  C   UNL     1      -2.359   1.469  24.523  0.00  0.00    +0.109 C 
ATOM      9  C   UNL     1      -5.094   0.609  25.039  0.00  0.00    +0.125 C 
ATOM     10  C   UNL     1      -3.324   3.855  24.638  0.00  0.00    +0.129 C 
ATOM     11  C   UNL     1      -3.872  -0.287  25.262  0.00  0.00    +0.104 C 
ATOM     12  C   UNL     1      -5.337   3.093  25.609  0.00  0.00    +0.303 C 
ATOM     20  H   UNL     1      -4.757   5.158  25.646  0.00  0.00    +0.150 HD
ENDROOT
BRANCH   4  13
ATOM     13  C   UNL     1      -1.630  -0.832  24.553  0.00  0.00    +0.121 C 
BRANCH  13  14
ATOM      6  N   UNL     1       1.262   1.595  24.273  0.00  0.00    -0.221 NA
ATOM     14  C   UNL     1      -0.339  -0.208  24.095  0.00  0.00    -0.015 A 
ATOM     15  C   UNL     1       0.440  -0.812  23.113  0.00  0.00    +0.011 A 
ATOM     16  C   UNL     1       0.112   0.984  24.638  0.00  0.00    +0.119 A 
ATOM     17  C   UNL     1       1.628  -0.213  22.712  0.00  0.00    +0.067 A 
ATOM     18  C   UNL     1       1.992   0.979  23.317  0.00  0.00    +0.214 A 
BRANCH  18   2
ATOM      2  O   UNL     1       3.159   1.588  22.938  0.00  0.00    -0.480 OA
ATOM     19  C   UNL     1       4.307   0.754  22.820  0.00  0.00    +0.279 C 
ENDBRANCH  18   2
ENDBRANCH  13  14
ENDBRANCH   4  13
TORSDOF 3
ENDMDL
MODEL 3
REMARK VINA RESULT:      -3.8     14.318     16.249
REMARK  Name = 75537041
REMARK  4 active torsions:
REMARK  status: ('A' for Active; 'I' for Inactive)
REMARK    1  A    between atoms: O_2  and  C_18
REMARK    2  A    between atoms: O_2  and  C_19
REMARK    3  A    between atoms: N_4  and  C_13
REMARK    4  A    between atoms: C_13  and  C_14
REMARK                            x       y       z     vdW  Elec       q    Type
REMARK                         _______ _______ _______ _____ _____    ______ ____
ROOT
ATOM      1  O   UNL     1      -1.352  -3.396  23.433  0.00  0.00    -0.253 OA
ATOM      3  N   UNL     1      -2.701  -1.902  24.653  0.00  0.00    -0.279 N 
ATOM      4  N   UNL     1      -4.613   0.093  25.168  0.00  0.00    -0.295 NA
ATOM      5  N   UNL     1      -0.523  -2.065  25.178  0.00  0.00    -0.297 N 
ATOM      7  C   UNL     1      -2.545  -1.068  25.826  0.00  0.00    +0.109 C 
ATOM      8  C   UNL     1      -3.216   0.288  25.604  0.00  0.00    +0.109 C 
ATOM      9  C   UNL     1      -4.010  -2.044  24.051  0.00  0.00    +0.125 C 
ATOM     10  C   UNL     1      -1.033  -1.012  26.028  0.00  0.00    +0.129 C 
ATOM     11  C   UNL     1      -4.670  -0.670  23.905  0.00  0.00    +0.104 C 
ATOM     12  C   UNL     1      -1.515  -2.561  24.311  0.00  0.00    +0.303 C 
ATOM     20  H   UNL     1       0.449  -2.354  25.148  0.00  0.00    +0.150 HD
ENDROOT
BRANCH   4  13
ATOM     13  C   UNL     1      -5.283   1.386  25.012  0.00  0.00    +0.121 C 
BRANCH  13  14
ATOM      6  N   UNL     1      -2.580   3.831  23.987  0.00  0.00    -0.221 NA
ATOM     14  C   UNL     1      -4.308   2.531  25.070  0.00  0.00    -0.015 A 
ATOM     15  C   UNL     1      -4.216   3.337  26.200  0.00  0.00    +0.011 A 
ATOM     16  C   UNL     1      -3.476   2.818  24.000  0.00  0.00    +0.119 A 
ATOM     17  C   UNL     1      -3.307   4.389  26.224  0.00  0.00    +0.067 A 
ATOM     18  C   UNL     1      -2.519   4.592  25.102  0.00  0.00    +0.214 A 
BRANCH  18   2
ATOM      2  O   UNL     1      -1.617   5.623  25.102  0.00  0.00    -0.480 OA
ATOM     19  C   UNL     1      -0.297   5.318  24.665  0.00  0.00    +0.279 C 
ENDBRANCH  18   2
ENDBRANCH  13  14
ENDBRANCH   4  13
TORSDOF 3
ENDMDL
MODEL 4
REMARK VINA RESULT:      -3.6      1.616      2.113
REMARK  Name = 75537041
REMARK  4 active torsions:
REMARK  status: ('A' for Active; 'I' for Inactive)
REMARK    1  A    between atoms: O_2  and  C_18
REMARK    2  A    between atoms: O_2  and  C_19
REMARK    3  A    between atoms: N_4  and  C_13
REMARK    4  A    between atoms: C_13  and  C_14
REMARK                            x       y       z     vdW  Elec       q    Type
REMARK                         _______ _______ _______ _____ _____    ______ ____
ROOT
ATOM      1  O   UNL     1      -6.944  -7.720   9.019  0.00  0.00    -0.253 OA
ATOM      3  N   UNL     1      -5.925  -9.315  10.418  0.00  0.00    -0.279 N 
ATOM      4  N   UNL     1      -4.784 -10.440  12.727  0.00  0.00    -0.295 NA
ATOM      5  N   UNL     1      -5.136  -9.048   8.332  0.00  0.00    -0.297 N 
ATOM      7  C   UNL     1      -4.921 -10.348  10.272  0.00  0.00    +0.109 C 
ATOM      8  C   UNL     1      -3.990 -10.358  11.485  0.00  0.00    +0.109 C 
ATOM      9  C   UNL     1      -6.662  -9.211  11.659  0.00  0.00    +0.125 C 
ATOM     10  C   UNL     1      -4.247 -10.008   8.946  0.00  0.00    +0.129 C 
ATOM     11  C   UNL     1      -5.698  -9.287  12.847  0.00  0.00    +0.104 C 
ATOM     12  C   UNL     1      -6.112  -8.589   9.237  0.00  0.00    +0.303 C 
ATOM     20  H   UNL     1      -5.022  -8.683   7.392  0.00  0.00    +0.150 HD
ENDROOT
BRANCH   4  13
ATOM     13  C   UNL     1      -3.900 -10.511  13.892  0.00  0.00    +0.121 C 
BRANCH  13  14
ATOM      6  N   UNL     1      -6.804 -10.781  16.306  0.00  0.00    -0.221 NA
ATOM     14  C   UNL     1      -4.676 -10.550  15.182  0.00  0.00    -0.015 A 
ATOM     15  C   UNL     1      -4.036 -10.402  16.408  0.00  0.00    +0.011 A 
ATOM     16  C   UNL     1      -6.049 -10.735  15.185  0.00  0.00    +0.119 A 
ATOM     17  C   UNL     1      -4.779 -10.443  17.582  0.00  0.00    +0.067 A 
ATOM     18  C   UNL     1      -6.148 -10.633  17.478  0.00  0.00    +0.214 A 
BRANCH  18   2
ATOM      2  O   UNL     1      -6.901 -10.678  18.621  0.00  0.00    -0.480 OA
ATOM     19  C   UNL     1      -6.192 -10.680  19.855  0.00  0.00    +0.279 C 
ENDBRANCH  18   2
ENDBRANCH  13  14
ENDBRANCH   4  13
TORSDOF 3
ENDMDL
MODEL 5
REMARK VINA RESULT:      -2.9     14.467     15.930
REMARK  Name = 75537041
REMARK  4 active torsions:
REMARK  status: ('A' for Active; 'I' for Inactive)
REMARK    1  A    between atoms: O_2  and  C_18
REMARK    2  A    between atoms: O_2  and  C_19
REMARK    3  A    between atoms: N_4  and  C_13
REMARK    4  A    between atoms: C_13  and  C_14
REMARK                            x       y       z     vdW  Elec       q    Type
REMARK                         _______ _______ _______ _____ _____    ______ ____
ROOT
ATOM      1  O   UNL     1       1.958  -0.407  22.741  0.00  0.00    -0.253 OA
ATOM      3  N   UNL     1       0.028  -0.215  24.073  0.00  0.00    -0.279 N 
ATOM      4  N   UNL     1      -2.650  -0.503  24.880  0.00  0.00    -0.295 NA
ATOM      5  N   UNL     1       1.316   1.601  23.771  0.00  0.00    -0.297 N 
ATOM      7  C   UNL     1      -0.561   0.797  24.926  0.00  0.00    +0.109 C 
ATOM      8  C   UNL     1      -2.075   0.847  24.721  0.00  0.00    +0.109 C 
ATOM      9  C   UNL     1      -0.552  -1.540  24.039  0.00  0.00    +0.125 C 
ATOM     10  C   UNL     1       0.184   2.071  24.537  0.00  0.00    +0.129 C 
ATOM     11  C   UNL     1      -2.074  -1.441  23.896  0.00  0.00    +0.104 C 
ATOM     12  C   UNL     1       1.193   0.237  23.445  0.00  0.00    +0.303 C 
ATOM     20  H   UNL     1       2.066   2.196  23.436  0.00  0.00    +0.150 HD
ENDROOT
BRANCH   4  13
ATOM     13  C   UNL     1      -4.106  -0.456  24.746  0.00  0.00    +0.121 C 
BRANCH  13  14
ATOM      6  N   UNL     1      -6.116   2.285  26.414  0.00  0.00    -0.221 NA
ATOM     14  C   UNL     1      -4.654   0.909  25.066  0.00  0.00    -0.015 A 
ATOM     15  C   UNL     1      -4.238   2.032  24.358  0.00  0.00    +0.011 A 
ATOM     16  C   UNL     1      -5.586   1.087  26.075  0.00  0.00    +0.119 A 
ATOM     17  C   UNL     1      -4.760   3.280  24.677  0.00  0.00    +0.067 A 
ATOM     18  C   UNL     1      -5.688   3.352  25.704  0.00  0.00    +0.214 A 
BRANCH  18   2
ATOM      2  O   UNL     1      -6.217   4.572  26.037  0.00  0.00    -0.480 OA
ATOM     19  C   UNL     1      -6.246   5.558  25.012  0.00  0.00    +0.279 C 
ENDBRANCH  18   2
ENDBRANCH  13  14
ENDBRANCH   4  13
TORSDOF 3
ENDMDL
MODEL 6
REMARK VINA RESULT:      -2.7     14.440     16.174
REMARK  Name = 75537041
REMARK  4 active torsions:
REMARK  status: ('A' for Active; 'I' for Inactive)
REMARK    1  A    between atoms: O_2  and  C_18
REMARK    2  A    between atoms: O_2  and  C_19
REMARK    3  A    between atoms: N_4  and  C_13
REMARK    4  A    between atoms: C_13  and  C_14
REMARK                            x       y       z     vdW  Elec       q    Type
REMARK                         _______ _______ _______ _____ _____    ______ ____
ROOT
ATOM      1  O   UNL     1      -1.910   6.010  25.731  0.00  0.00    -0.253 OA
ATOM      3  N   UNL     1      -2.886   4.135  24.695  0.00  0.00    -0.279 N 
ATOM      4  N   UNL     1      -4.474   1.838  24.375  0.00  0.00    -0.295 NA
ATOM      5  N   UNL     1      -0.681   4.481  24.443  0.00  0.00    -0.297 N 
ATOM      7  C   UNL     1      -2.460   3.112  23.763  0.00  0.00    +0.109 C 
ATOM      8  C   UNL     1      -3.013   1.750  24.182  0.00  0.00    +0.109 C 
ATOM      9  C   UNL     1      -4.282   4.217  25.071  0.00  0.00    +0.125 C 
ATOM     10  C   UNL     1      -0.938   3.221  23.782  0.00  0.00    +0.129 C 
ATOM     11  C   UNL     1      -4.810   2.823  25.422  0.00  0.00    +0.104 C 
ATOM     12  C   UNL     1      -1.844   5.002  25.041  0.00  0.00    +0.303 C 
ATOM     20  H   UNL     1       0.239   4.899  24.540  0.00  0.00    +0.150 HD
ENDROOT
BRANCH   4  13
ATOM     13  C   UNL     1      -5.023   0.525  24.717  0.00  0.00    +0.121 C 
BRANCH  13  14
ATOM      6  N   UNL     1      -1.812  -1.217  25.711  0.00  0.00    -0.221 NA
ATOM     14  C   UNL     1      -3.947  -0.524  24.812  0.00  0.00    -0.015 A 
ATOM     15  C   UNL     1      -4.061  -1.731  24.131  0.00  0.00    +0.011 A 
ATOM     16  C   UNL     1      -2.813  -0.317  25.581  0.00  0.00    +0.119 A 
ATOM     17  C   UNL     1      -3.051  -2.681  24.240  0.00  0.00    +0.067 A 
ATOM     18  C   UNL     1      -1.957  -2.378  25.035  0.00  0.00    +0.214 A 
BRANCH  18   2
ATOM      2  O   UNL     1      -0.950  -3.298  25.157  0.00  0.00    -0.480 OA
ATOM     19  C   UNL     1       0.336  -2.797  25.507  0.00  0.00    +0.279 C 
ENDBRANCH  18   2
ENDBRANCH  13  14
ENDBRANCH   4  13
TORSDOF 3
ENDMDL
MODEL 7
REMARK VINA RESULT:      -2.3     14.915     16.945
REMARK  Name = 75537041
REMARK  4 active torsions:
REMARK  status: ('A' for Active; 'I' for Inactive)
REMARK    1  A    between atoms: O_2  and  C_18
REMARK    2  A    between atoms: O_2  and  C_19
REMARK    3  A    between atoms: N_4  and  C_13
REMARK    4  A    between atoms: C_13  and  C_14
REMARK                            x       y       z     vdW  Elec       q    Type
REMARK                         _______ _______ _______ _____ _____    ______ ____
ROOT
ATOM      1  O   UNL     1      -3.935   4.675  25.927  0.00  0.00    -0.253 OA
ATOM      3  N   UNL     1      -3.070   2.562  25.359  0.00  0.00    -0.279 N 
ATOM      4  N   UNL     1      -1.504   0.626  24.054  0.00  0.00    -0.295 NA
ATOM      5  N   UNL     1      -5.294   2.794  25.577  0.00  0.00    -0.297 N 
ATOM      7  C   UNL     1      -3.594   1.220  25.209  0.00  0.00    +0.109 C 
ATOM      8  C   UNL     1      -2.977   0.543  23.985  0.00  0.00    +0.109 C 
ATOM      9  C   UNL     1      -1.640   2.777  25.292  0.00  0.00    +0.125 C 
ATOM     10  C   UNL     1      -5.104   1.431  25.134  0.00  0.00    +0.129 C 
ATOM     11  C   UNL     1      -1.055   2.032  24.089  0.00  0.00    +0.104 C 
ATOM     12  C   UNL     1      -4.072   3.491  25.657  0.00  0.00    +0.303 C 
ATOM     20  H   UNL     1      -6.199   3.225  25.729  0.00  0.00    +0.150 HD
ENDROOT
BRANCH   4  13
ATOM     13  C   UNL     1      -0.902  -0.073  22.917  0.00  0.00    +0.121 C 
BRANCH  13  14
ATOM      6  N   UNL     1       2.540   1.301  23.691  0.00  0.00    -0.221 NA
ATOM     14  C   UNL     1       0.580   0.181  22.826  0.00  0.00    -0.015 A 
ATOM     15  C   UNL     1       1.353  -0.432  21.847  0.00  0.00    +0.011 A 
ATOM     16  C   UNL     1       1.215   1.031  23.716  0.00  0.00    +0.119 A 
ATOM     17  C   UNL     1       2.719  -0.180  21.789  0.00  0.00    +0.067 A 
ATOM     18  C   UNL     1       3.259   0.687  22.725  0.00  0.00    +0.214 A 
BRANCH  18   2
ATOM      2  O   UNL     1       4.603   0.951  22.688  0.00  0.00    -0.480 OA
ATOM     19  C   UNL     1       5.436   0.146  23.514  0.00  0.00    +0.279 C 
ENDBRANCH  18   2
ENDBRANCH  13  14
ENDBRANCH   4  13
TORSDOF 3
ENDMDL
MODEL 8
REMARK VINA RESULT:      -2.2     14.726     15.908
REMARK  Name = 75537041
REMARK  4 active torsions:
REMARK  status: ('A' for Active; 'I' for Inactive)
REMARK    1  A    between atoms: O_2  and  C_18
REMARK    2  A    between atoms: O_2  and  C_19
REMARK    3  A    between atoms: N_4  and  C_13
REMARK    4  A    between atoms: C_13  and  C_14
REMARK                            x       y       z     vdW  Elec       q    Type
REMARK                         _______ _______ _______ _____ _____    ______ ____
ROOT
ATOM      1  O   UNL     1       3.834   1.289  23.464  0.00  0.00    -0.253 OA
ATOM      3  N   UNL     1       1.505   0.991  23.306  0.00  0.00    -0.279 N 
ATOM      4  N   UNL     1      -1.161   0.626  24.122  0.00  0.00    -0.295 NA
ATOM      5  N   UNL     1       2.840  -0.215  21.962  0.00  0.00    -0.297 N 
ATOM      7  C   UNL     1       0.596   0.276  22.435  0.00  0.00    +0.109 C 
ATOM      8  C   UNL     1      -0.518  -0.379  23.252  0.00  0.00    +0.109 C 
ATOM      9  C   UNL     1       0.970   1.895  24.303  0.00  0.00    +0.125 C 
ATOM     10  C   UNL     1       1.505  -0.698  21.691  0.00  0.00    +0.129 C 
ATOM     11  C   UNL     1      -0.182   1.222  25.054  0.00  0.00    +0.104 C 
ATOM     12  C   UNL     1       2.844   0.763  22.975  0.00  0.00    +0.303 C 
ATOM     20  H   UNL     1       3.682  -0.591  21.538  0.00  0.00    +0.150 HD
ENDROOT
BRANCH   4  13
ATOM     13  C   UNL     1      -2.269   0.023  24.865  0.00  0.00    +0.121 C 
BRANCH  13  14
ATOM      6  N   UNL     1      -4.046   3.298  25.534  0.00  0.00    -0.221 NA
ATOM     14  C   UNL     1      -3.374   1.013  25.122  0.00  0.00    -0.015 A 
ATOM     15  C   UNL     1      -4.702   0.603  25.184  0.00  0.00    +0.011 A 
ATOM     16  C   UNL     1      -3.101   2.359  25.302  0.00  0.00    +0.119 A 
ATOM     17  C   UNL     1      -5.701   1.540  25.421  0.00  0.00    +0.067 A 
ATOM     18  C   UNL     1      -5.325   2.863  25.588  0.00  0.00    +0.214 A 
BRANCH  18   2
ATOM      2  O   UNL     1      -6.292   3.805  25.823  0.00  0.00    -0.480 OA
ATOM     19  C   UNL     1      -5.994   5.140  25.430  0.00  0.00    +0.279 C 
ENDBRANCH  18   2
ENDBRANCH  13  14
ENDBRANCH   4  13
TORSDOF 3
ENDMDL
MODEL 9
REMARK VINA RESULT:      -2.0     14.504     16.552
REMARK  Name = 75537041
REMARK  4 active torsions:
REMARK  status: ('A' for Active; 'I' for Inactive)
REMARK    1  A    between atoms: O_2  and  C_18
REMARK    2  A    between atoms: O_2  and  C_19
REMARK    3  A    between atoms: N_4  and  C_13
REMARK    4  A    between atoms: C_13  and  C_14
REMARK                            x       y       z     vdW  Elec       q    Type
REMARK                         _______ _______ _______ _____ _____    ______ ____
ROOT
ATOM      1  O   UNL     1      -4.421   1.452  25.365  0.00  0.00    -0.253 OA
ATOM      3  N   UNL     1      -2.277   0.589  24.925  0.00  0.00    -0.279 N 
ATOM      4  N   UNL     1       0.174   0.180  23.610  0.00  0.00    -0.295 NA
ATOM      5  N   UNL     1      -3.907  -0.832  25.534  0.00  0.00    -0.297 N 
ATOM      7  C   UNL     1      -1.614  -0.693  25.057  0.00  0.00    +0.109 C 
ATOM      8  C   UNL     1      -0.733  -0.962  23.837  0.00  0.00    +0.109 C 
ATOM      9  C   UNL     1      -1.501   1.754  24.557  0.00  0.00    +0.125 C 
ATOM     10  C   UNL     1      -2.768  -1.674  25.247  0.00  0.00    +0.129 C 
ATOM     11  C   UNL     1      -0.589   1.421  23.372  0.00  0.00    +0.104 C 
ATOM     12  C   UNL     1      -3.627   0.526  25.286  0.00  0.00    +0.303 C 
ATOM     20  H   UNL     1      -4.822  -1.179  25.800  0.00  0.00    +0.150 HD
ENDROOT
BRANCH   4  13
ATOM     13  C   UNL     1       1.065  -0.094  22.481  0.00  0.00    +0.121 C 
BRANCH  13  14
ATOM      6  N   UNL     1       4.628   1.011  23.126  0.00  0.00    -0.221 NA
ATOM     14  C   UNL     1       2.509  -0.133  22.904  0.00  0.00    -0.015 A 
ATOM     15  C   UNL     1       3.065  -1.285  23.448  0.00  0.00    +0.011 A 
ATOM     16  C   UNL     1       3.325   0.978  22.766  0.00  0.00    +0.119 A 
ATOM     17  C   UNL     1       4.402  -1.290  23.831  0.00  0.00    +0.067 A 
ATOM     18  C   UNL     1       5.134  -0.128  23.651  0.00  0.00    +0.214 A 
BRANCH  18   2
ATOM      2  O   UNL     1       6.453  -0.108  24.021  0.00  0.00    -0.480 OA
ATOM     19  C   UNL     1       7.406  -0.399  23.006  0.00  0.00    +0.279 C 
ENDBRANCH  18   2
ENDBRANCH  13  14
ENDBRANCH   4  13
TORSDOF 3
ENDMDL
MODEL 10
REMARK VINA RESULT:      -1.9     14.162     15.829
REMARK  Name = 75537041
REMARK  4 active torsions:
REMARK  status: ('A' for Active; 'I' for Inactive)
REMARK    1  A    between atoms: O_2  and  C_18
REMARK    2  A    between atoms: O_2  and  C_19
REMARK    3  A    between atoms: N_4  and  C_13
REMARK    4  A    between atoms: C_13  and  C_14
REMARK                            x       y       z     vdW  Elec       q    Type
REMARK                         _______ _______ _______ _____ _____    ______ ____
ROOT
ATOM      1  O   UNL     1       0.569  -2.633  25.742  0.00  0.00    -0.253 OA
ATOM      3  N   UNL     1      -0.479  -1.067  24.333  0.00  0.00    -0.279 N 
ATOM      4  N   UNL     1      -1.250   1.426  23.286  0.00  0.00    -0.295 NA
ATOM      5  N   UNL     1      -1.676  -2.814  25.082  0.00  0.00    -0.297 N 
ATOM      7  C   UNL     1      -1.754  -0.954  23.654  0.00  0.00    +0.109 C 
ATOM      8  C   UNL     1      -2.282   0.477  23.751  0.00  0.00    +0.109 C 
ATOM      9  C   UNL     1       0.558  -0.094  24.062  0.00  0.00    +0.125 C 
ATOM     10  C   UNL     1      -2.619  -2.007  24.342  0.00  0.00    +0.129 C 
ATOM     11  C   UNL     1      -0.028   1.320  24.107  0.00  0.00    +0.104 C 
ATOM     12  C   UNL     1      -0.401  -2.218  25.124  0.00  0.00    +0.303 C 
ATOM     20  H   UNL     1      -1.919  -3.662  25.584  0.00  0.00    +0.150 HD
ENDROOT
BRANCH   4  13
ATOM     13  C   UNL     1      -1.767   2.795  23.317  0.00  0.00    +0.121 C 
BRANCH  13  14
ATOM      6  N   UNL     1      -5.277   2.278  24.641  0.00  0.00    -0.221 NA
ATOM     14  C   UNL     1      -2.987   2.913  24.192  0.00  0.00    -0.015 A 
ATOM     15  C   UNL     1      -2.982   3.722  25.323  0.00  0.00    +0.011 A 
ATOM     16  C   UNL     1      -4.149   2.218  23.897  0.00  0.00    +0.119 A 
ATOM     17  C   UNL     1      -4.122   3.809  26.113  0.00  0.00    +0.067 A 
ATOM     18  C   UNL     1      -5.234   3.075  25.732  0.00  0.00    +0.214 A 
BRANCH  18   2
ATOM      2  O   UNL     1      -6.370   3.145  26.495  0.00  0.00    -0.480 OA
ATOM     19  C   UNL     1      -6.859   1.919  27.028  0.00  0.00    +0.279 C 
ENDBRANCH  18   2
ENDBRANCH  13  14
ENDBRANCH   4  13
TORSDOF 3
ENDMDL
