MODEL 1
REMARK VINA RESULT:      -3.7      0.000      0.000
REMARK  Name = 75536945
REMARK  4 active torsions:
REMARK  status: ('A' for Active; 'I' for Inactive)
REMARK    1  A    between atoms: O_5  and  C_11
REMARK    2  A    between atoms: O_5  and  C_17
REMARK    3  A    between atoms: C_16  and  C_18
REMARK    4  A    between atoms: C_23  and  C_25
REMARK                            x       y       z     vdW  Elec       q    Type
REMARK                         _______ _______ _______ _____ _____    ______ ____
ROOT
ATOM      4  O   UNL     1      -4.243   3.979  26.606  0.00  0.00    -0.375 OA
ATOM      6  O   UNL     1      -6.206   1.093  24.385  0.00  0.00    -0.270 OA
ATOM      7  N   UNL     1      -4.136   2.180  24.416  0.00  0.00    -0.292 N 
ATOM     11  C   UNL     1      -2.271   2.715  25.998  0.00  0.00    +0.218 C 
ATOM     12  C   UNL     1      -2.686   2.164  24.630  0.00  0.00    +0.155 C 
ATOM     13  C   UNL     1      -4.722   3.500  24.202  0.00  0.00    +0.136 C 
ATOM     14  C   UNL     1      -2.857   4.092  26.313  0.00  0.00    +0.206 C 
ATOM     15  C   UNL     1      -5.131   4.170  25.510  0.00  0.00    +0.179 C 
ATOM     16  C   UNL     1      -4.980   1.069  24.488  0.00  0.00    +0.250 C 
ENDROOT
BRANCH  16  18
ATOM      9  N   UNL     1      -3.774  -2.433  23.904  0.00  0.00    -0.243 NA
ATOM     10  N   UNL     1      -3.231  -1.793  26.163  0.00  0.00    -0.243 NA
ATOM     18  C   UNL     1      -4.369  -0.245  24.713  0.00  0.00    +0.073 A 
ATOM     20  C   UNL     1      -4.327  -1.214  23.731  0.00  0.00    +0.127 A 
ATOM     21  C   UNL     1      -3.801  -0.593  25.921  0.00  0.00    +0.127 A 
ATOM     26  C   UNL     1      -3.253  -2.651  25.127  0.00  0.00    +0.221 A 
ENDBRANCH  16  18
BRANCH  11   5
ATOM      5  O   UNL     1      -0.850   2.822  26.031  0.00  0.00    -0.469 OA
BRANCH   5  17
ATOM      8  N   UNL     1       0.787   2.683  24.395  0.00  0.00    -0.221 NA
ATOM     17  C   UNL     1      -0.159   2.058  25.131  0.00  0.00    +0.215 A 
ATOM     19  C   UNL     1      -0.461   0.710  25.024  0.00  0.00    +0.068 A 
ATOM     22  C   UNL     1       0.255  -0.046  24.101  0.00  0.00    +0.019 A 
ATOM     23  C   UNL     1       1.236   0.561  23.325  0.00  0.00    +0.073 A 
ATOM     24  C   UNL     1       1.462   1.915  23.509  0.00  0.00    +0.127 A 
BRANCH  23  25
ATOM      1  F   UNL     1       1.255  -0.791  21.352  0.00  0.00    -0.166 F 
ATOM      2  F   UNL     1       2.954   0.521  21.661  0.00  0.00    -0.166 F 
ATOM      3  F   UNL     1       2.713  -1.252  22.898  0.00  0.00    -0.166 F 
ATOM     25  C   UNL     1       2.019  -0.219  22.331  0.00  0.00    +0.419 C 
ENDBRANCH  23  25
ENDBRANCH   5  17
ENDBRANCH  11   5
TORSDOF 4
ENDMDL
MODEL 2
REMARK VINA RESULT:      -3.0      2.115      3.024
REMARK  Name = 75536945
REMARK  4 active torsions:
REMARK  status: ('A' for Active; 'I' for Inactive)
REMARK    1  A    between atoms: O_5  and  C_11
REMARK    2  A    between atoms: O_5  and  C_17
REMARK    3  A    between atoms: C_16  and  C_18
REMARK    4  A    between atoms: C_23  and  C_25
REMARK                            x       y       z     vdW  Elec       q    Type
REMARK                         _______ _______ _______ _____ _____    ______ ____
ROOT
ATOM      4  O   UNL     1      -0.805   3.010  25.464  0.00  0.00    -0.375 OA
ATOM      6  O   UNL     1      -4.606   1.458  25.963  0.00  0.00    -0.270 OA
ATOM      7  N   UNL     1      -3.065   1.813  24.240  0.00  0.00    -0.292 N 
ATOM     11  C   UNL     1      -0.664   1.370  23.690  0.00  0.00    +0.218 C 
ATOM     12  C   UNL     1      -2.126   1.299  23.238  0.00  0.00    +0.155 C 
ATOM     13  C   UNL     1      -3.059   3.261  24.419  0.00  0.00    +0.136 C 
ATOM     14  C   UNL     1      -0.236   2.751  24.187  0.00  0.00    +0.206 C 
ATOM     15  C   UNL     1      -2.044   3.710  25.466  0.00  0.00    +0.179 C 
ATOM     16  C   UNL     1      -3.875   1.032  25.069  0.00  0.00    +0.250 C 
ENDROOT
BRANCH  16  18
ATOM      9  N   UNL     1      -3.257  -2.620  25.655  0.00  0.00    -0.243 NA
ATOM     10  N   UNL     1      -4.406  -2.355  23.553  0.00  0.00    -0.243 NA
ATOM     18  C   UNL     1      -3.857  -0.422  24.877  0.00  0.00    +0.073 A 
ATOM     20  C   UNL     1      -3.291  -1.278  25.800  0.00  0.00    +0.127 A 
ATOM     21  C   UNL     1      -4.405  -1.022  23.762  0.00  0.00    +0.127 A 
ATOM     26  C   UNL     1      -3.824  -3.083  24.524  0.00  0.00    +0.221 A 
ENDBRANCH  16  18
BRANCH  11   5
ATOM      5  O   UNL     1       0.168   1.020  22.586  0.00  0.00    -0.469 OA
BRANCH   5  17
ATOM      8  N   UNL     1       1.590  -0.688  23.247  0.00  0.00    -0.221 NA
ATOM     17  C   UNL     1       1.437   0.605  22.886  0.00  0.00    +0.215 A 
ATOM     19  C   UNL     1       2.477   1.517  22.805  0.00  0.00    +0.068 A 
ATOM     22  C   UNL     1       3.758   1.072  23.114  0.00  0.00    +0.019 A 
ATOM     23  C   UNL     1       3.956  -0.252  23.490  0.00  0.00    +0.073 A 
ATOM     24  C   UNL     1       2.849  -1.084  23.541  0.00  0.00    +0.127 A 
BRANCH  23  25
ATOM      1  F   UNL     1       5.413  -2.123  23.806  0.00  0.00    -0.166 F 
ATOM      2  F   UNL     1       6.292  -0.321  22.979  0.00  0.00    -0.166 F 
ATOM      3  F   UNL     1       5.721  -0.385  25.077  0.00  0.00    -0.166 F 
ATOM     25  C   UNL     1       5.312  -0.759  23.827  0.00  0.00    +0.419 C 
ENDBRANCH  23  25
ENDBRANCH   5  17
ENDBRANCH  11   5
TORSDOF 4
ENDMDL
MODEL 3
REMARK VINA RESULT:      -2.1      3.208      4.603
REMARK  Name = 75536945
REMARK  4 active torsions:
REMARK  status: ('A' for Active; 'I' for Inactive)
REMARK    1  A    between atoms: O_5  and  C_11
REMARK    2  A    between atoms: O_5  and  C_17
REMARK    3  A    between atoms: C_16  and  C_18
REMARK    4  A    between atoms: C_23  and  C_25
REMARK                            x       y       z     vdW  Elec       q    Type
REMARK                         _______ _______ _______ _____ _____    ______ ____
ROOT
ATOM      4  O   UNL     1      -0.175   4.313  25.834  0.00  0.00    -0.375 OA
ATOM      6  O   UNL     1      -3.785   5.091  23.972  0.00  0.00    -0.270 OA
ATOM      7  N   UNL     1      -2.219   3.361  24.116  0.00  0.00    -0.292 N 
ATOM     11  C   UNL     1      -0.980   2.031  25.836  0.00  0.00    +0.218 C 
ATOM     12  C   UNL     1      -1.834   2.019  24.564  0.00  0.00    +0.155 C 
ATOM     13  C   UNL     1      -1.144   4.161  23.538  0.00  0.00    +0.136 C 
ATOM     14  C   UNL     1       0.236   2.955  25.757  0.00  0.00    +0.206 C 
ATOM     15  C   UNL     1      -0.396   4.971  24.592  0.00  0.00    +0.179 C 
ATOM     16  C   UNL     1      -3.481   3.939  24.277  0.00  0.00    +0.250 C 
ENDROOT
BRANCH  16  18
ATOM      9  N   UNL     1      -6.002   1.206  24.764  0.00  0.00    -0.243 NA
ATOM     10  N   UNL     1      -6.103   2.700  26.653  0.00  0.00    -0.243 NA
ATOM     18  C   UNL     1      -4.543   3.118  24.869  0.00  0.00    +0.073 A 
ATOM     20  C   UNL     1      -5.026   1.983  24.249  0.00  0.00    +0.127 A 
ATOM     21  C   UNL     1      -5.124   3.431  26.080  0.00  0.00    +0.127 A 
ATOM     26  C   UNL     1      -6.488   1.618  25.951  0.00  0.00    +0.221 A 
ENDBRANCH  16  18
BRANCH  11   5
ATOM      5  O   UNL     1      -0.513   0.706  26.080  0.00  0.00    -0.469 OA
BRANCH   5  17
ATOM      8  N   UNL     1      -0.690  -1.203  24.775  0.00  0.00    -0.221 NA
ATOM     17  C   UNL     1      -1.288  -0.313  25.599  0.00  0.00    +0.215 A 
ATOM     19  C   UNL     1      -2.620  -0.377  25.974  0.00  0.00    +0.068 A 
ATOM     22  C   UNL     1      -3.389  -1.422  25.472  0.00  0.00    +0.019 A 
ATOM     23  C   UNL     1      -2.809  -2.357  24.621  0.00  0.00    +0.073 A 
ATOM     24  C   UNL     1      -1.469  -2.204  24.306  0.00  0.00    +0.127 A 
BRANCH  23  25
ATOM      1  F   UNL     1      -2.898  -4.291  23.216  0.00  0.00    -0.166 F 
ATOM      2  F   UNL     1      -4.100  -4.331  25.021  0.00  0.00    -0.166 F 
ATOM      3  F   UNL     1      -4.691  -3.066  23.353  0.00  0.00    -0.166 F 
ATOM     25  C   UNL     1      -3.603  -3.486  24.068  0.00  0.00    +0.419 C 
ENDBRANCH  23  25
ENDBRANCH   5  17
ENDBRANCH  11   5
TORSDOF 4
ENDMDL
MODEL 4
REMARK VINA RESULT:      -0.8      1.961      4.112
REMARK  Name = 75536945
REMARK  4 active torsions:
REMARK  status: ('A' for Active; 'I' for Inactive)
REMARK    1  A    between atoms: O_5  and  C_11
REMARK    2  A    between atoms: O_5  and  C_17
REMARK    3  A    between atoms: C_16  and  C_18
REMARK    4  A    between atoms: C_23  and  C_25
REMARK                            x       y       z     vdW  Elec       q    Type
REMARK                         _______ _______ _______ _____ _____    ______ ____
ROOT
ATOM      4  O   UNL     1      -5.926   0.848  23.998  0.00  0.00    -0.375 OA
ATOM      6  O   UNL     1      -5.051   4.636  25.407  0.00  0.00    -0.270 OA
ATOM      7  N   UNL     1      -4.438   2.420  25.828  0.00  0.00    -0.292 N 
ATOM     11  C   UNL     1      -3.632   0.386  24.612  0.00  0.00    +0.218 C 
ATOM     12  C   UNL     1      -3.448   1.339  25.798  0.00  0.00    +0.155 C 
ATOM     13  C   UNL     1      -5.791   2.018  26.200  0.00  0.00    +0.136 C 
ATOM     14  C   UNL     1      -5.052  -0.165  24.476  0.00  0.00    +0.206 C 
ATOM     15  C   UNL     1      -6.620   1.595  24.991  0.00  0.00    +0.179 C 
ATOM     16  C   UNL     1      -4.203   3.746  25.455  0.00  0.00    +0.250 C 
ENDROOT
BRANCH  16  18
ATOM      9  N   UNL     1      -1.042   5.727  25.080  0.00  0.00    -0.243 NA
ATOM     10  N   UNL     1      -0.751   3.592  24.001  0.00  0.00    -0.243 NA
ATOM     18  C   UNL     1      -2.838   4.123  25.078  0.00  0.00    +0.073 A 
ATOM     20  C   UNL     1      -2.295   5.348  25.411  0.00  0.00    +0.127 A 
ATOM     21  C   UNL     1      -2.012   3.278  24.366  0.00  0.00    +0.127 A 
ATOM     26  C   UNL     1      -0.337   4.814  24.385  0.00  0.00    +0.221 A 
ENDBRANCH  16  18
BRANCH  11   5
ATOM      5  O   UNL     1      -2.744  -0.717  24.776  0.00  0.00    -0.469 OA
BRANCH   5  17
ATOM      8  N   UNL     1      -1.306   0.350  23.303  0.00  0.00    -0.221 NA
ATOM     17  C   UNL     1      -1.475  -0.556  24.291  0.00  0.00    +0.215 A 
ATOM     19  C   UNL     1      -0.450  -1.317  24.830  0.00  0.00    +0.068 A 
ATOM     22  C   UNL     1       0.832  -1.136  24.321  0.00  0.00    +0.019 A 
ATOM     23  C   UNL     1       1.045  -0.213  23.303  0.00  0.00    +0.073 A 
ATOM     24  C   UNL     1      -0.047   0.498  22.833  0.00  0.00    +0.127 A 
BRANCH  23  25
ATOM      1  F   UNL     1       2.951   1.213  23.065  0.00  0.00    -0.166 F 
ATOM      2  F   UNL     1       3.325  -0.922  23.142  0.00  0.00    -0.166 F 
ATOM      3  F   UNL     1       2.420  -0.042  21.370  0.00  0.00    -0.166 F 
ATOM     25  C   UNL     1       2.403   0.004  22.737  0.00  0.00    +0.419 C 
ENDBRANCH  23  25
ENDBRANCH   5  17
ENDBRANCH  11   5
TORSDOF 4
ENDMDL
MODEL 5
REMARK VINA RESULT:      -0.4      2.143      4.253
REMARK  Name = 75536945
REMARK  4 active torsions:
REMARK  status: ('A' for Active; 'I' for Inactive)
REMARK    1  A    between atoms: O_5  and  C_11
REMARK    2  A    between atoms: O_5  and  C_17
REMARK    3  A    between atoms: C_16  and  C_18
REMARK    4  A    between atoms: C_23  and  C_25
REMARK                            x       y       z     vdW  Elec       q    Type
REMARK                         _______ _______ _______ _____ _____    ______ ____
ROOT
ATOM      4  O   UNL     1      -3.970  -1.049  23.368  0.00  0.00    -0.375 OA
ATOM      6  O   UNL     1      -5.067   2.679  24.785  0.00  0.00    -0.270 OA
ATOM      7  N   UNL     1      -3.656   0.915  25.388  0.00  0.00    -0.292 N 
ATOM     11  C   UNL     1      -1.852  -0.522  24.414  0.00  0.00    +0.218 C 
ATOM     12  C   UNL     1      -2.312   0.360  25.579  0.00  0.00    +0.155 C 
ATOM     13  C   UNL     1      -4.751  -0.041  25.515  0.00  0.00    +0.136 C 
ATOM     14  C   UNL     1      -2.851  -1.616  24.035  0.00  0.00    +0.206 C 
ATOM     15  C   UNL     1      -5.084  -0.716  24.188  0.00  0.00    +0.179 C 
ATOM     16  C   UNL     1      -3.945   2.232  25.020  0.00  0.00    +0.250 C 
ENDROOT
BRANCH  16  18
ATOM      9  N   UNL     1      -0.749   3.809  23.854  0.00  0.00    -0.243 NA
ATOM     10  N   UNL     1      -1.725   5.204  25.560  0.00  0.00    -0.243 NA
ATOM     18  C   UNL     1      -2.827   3.171  24.891  0.00  0.00    +0.073 A 
ATOM     20  C   UNL     1      -1.793   2.965  23.999  0.00  0.00    +0.127 A 
ATOM     21  C   UNL     1      -2.739   4.318  25.653  0.00  0.00    +0.127 A 
ATOM     26  C   UNL     1      -0.779   4.891  24.655  0.00  0.00    +0.221 A 
ENDBRANCH  16  18
BRANCH  11   5
ATOM      5  O   UNL     1      -0.626  -1.150  24.777  0.00  0.00    -0.469 OA
BRANCH   5  17
ATOM      8  N   UNL     1       1.523  -1.517  23.986  0.00  0.00    -0.221 NA
ATOM     17  C   UNL     1       0.510  -0.648  24.203  0.00  0.00    +0.215 A 
ATOM     19  C   UNL     1       0.561   0.698  23.880  0.00  0.00    +0.068 A 
ATOM     22  C   UNL     1       1.727   1.184  23.298  0.00  0.00    +0.019 A 
ATOM     23  C   UNL     1       2.791   0.321  23.060  0.00  0.00    +0.073 A 
ATOM     24  C   UNL     1       2.640  -1.008  23.419  0.00  0.00    +0.127 A 
BRANCH  23  25
ATOM      1  F   UNL     1       4.288   2.140  22.644  0.00  0.00    -0.166 F 
ATOM      2  F   UNL     1       5.173   0.175  22.894  0.00  0.00    -0.166 F 
ATOM      3  F   UNL     1       4.067   0.644  21.081  0.00  0.00    -0.166 F 
ATOM     25  C   UNL     1       4.050   0.809  22.438  0.00  0.00    +0.419 C 
ENDBRANCH  23  25
ENDBRANCH   5  17
ENDBRANCH  11   5
TORSDOF 4
ENDMDL
