MODEL 1
REMARK VINA RESULT:      -2.9      0.000      0.000
REMARK  Name = 45360996
REMARK  8 active torsions:
REMARK  status: ('A' for Active; 'I' for Inactive)
REMARK    1  A    between atoms: N_4  and  C_16
REMARK    2  A    between atoms: N_5  and  C_18
REMARK    3  A    between atoms: N_7  and  C_27
REMARK    4  A    between atoms: C_13  and  C_17
REMARK    5  A    between atoms: C_16  and  C_20
REMARK    6  A    between atoms: C_17  and  C_19
REMARK    7  A    between atoms: C_19  and  C_21
REMARK    8  A    between atoms: C_27  and  C_28
REMARK                            x       y       z     vdW  Elec       q    Type
REMARK                         _______ _______ _______ _____ _____    ______ ____
ROOT
ATOM      2  O   UNL     1      -0.835   1.985  23.622  0.00  0.00    -0.274 OA
ATOM      4  N   UNL     1       0.305  -0.452  23.858  0.00  0.00    -0.286 NA
ATOM      5  N   UNL     1      -2.980  -0.664  25.456  0.00  0.00    -0.296 NA
ATOM      6  N   UNL     1      -2.945   1.185  23.242  0.00  0.00    -0.312 N 
ATOM      9  C   UNL     1      -1.802  -1.240  24.770  0.00  0.00    +0.084 C 
ATOM     10  C   UNL     1      -1.149  -0.428  23.613  0.00  0.00    +0.161 C 
ATOM     11  C   UNL     1      -0.601  -1.496  25.699  0.00  0.00    +0.036 C 
ATOM     12  C   UNL     1       0.571  -1.579  24.744  0.00  0.00    +0.087 C 
ATOM     13  C   UNL     1      -4.177  -0.492  24.586  0.00  0.00    +0.074 C 
ATOM     14  C   UNL     1      -1.598   1.027  23.510  0.00  0.00    +0.232 C 
ATOM     15  C   UNL     1      -3.884   0.083  23.186  0.00  0.00    +0.123 C 
ATOM     18  C   UNL     1      -3.328  -1.454  26.650  0.00  0.00    +0.105 C 
ATOM     33  H   UNL     1      -3.304   2.129  23.139  0.00  0.00    +0.149 HD
ENDROOT
BRANCH   4  16
ATOM     16  C   UNL     1       1.096  -0.516  22.637  0.00  0.00    +0.120 C 
BRANCH  16  20
ATOM      1  F   UNL     1       6.593   0.185  23.655  0.00  0.00    -0.205 F 
ATOM     20  C   UNL     1       2.564  -0.329  22.909  0.00  0.00    -0.033 A 
ATOM     22  C   UNL     1       3.302  -1.356  23.496  0.00  0.00    +0.008 A 
ATOM     23  C   UNL     1       3.188   0.873  22.574  0.00  0.00    +0.008 A 
ATOM     24  C   UNL     1       4.663  -1.184  23.749  0.00  0.00    +0.038 A 
ATOM     25  C   UNL     1       4.549   1.047  22.827  0.00  0.00    +0.038 A 
ATOM     26  C   UNL     1       5.286   0.019  23.414  0.00  0.00    +0.123 A 
ENDBRANCH  16  20
ENDBRANCH   4  16
BRANCH  13  17
ATOM     17  C   UNL     1      -5.206   0.438  25.262  0.00  0.00    +0.029 C 
BRANCH  17  19
ATOM     19  C   UNL     1      -5.636   1.543  24.313  0.00  0.00    +0.097 C 
BRANCH  19  21
ATOM      3  O   UNL     1      -4.444   3.537  23.636  0.00  0.00    -0.276 OA
ATOM      7  N   UNL     1      -4.643   3.053  25.897  0.00  0.00    -0.311 N 
ATOM     21  C   UNL     1      -4.845   2.818  24.545  0.00  0.00    +0.213 C 
ATOM     34  H   UNL     1      -4.997   2.391  26.581  0.00  0.00    +0.149 HD
BRANCH   7  27
ATOM     27  C   UNL     1      -3.915   4.205  26.378  0.00  0.00    +0.141 C 
BRANCH  27  28
ATOM      8  N   UNL     1      -0.324   3.025  26.184  0.00  0.00    -0.263 NA
ATOM     28  C   UNL     1      -2.459   4.145  26.003  0.00  0.00    -0.012 A 
ATOM     29  C   UNL     1      -1.894   5.102  25.167  0.00  0.00    +0.008 A 
ATOM     30  C   UNL     1      -1.639   3.136  26.481  0.00  0.00    +0.115 A 
ATOM     31  C   UNL     1      -0.545   5.021  24.838  0.00  0.00    +0.020 A 
ATOM     32  C   UNL     1       0.190   3.973  25.369  0.00  0.00    +0.111 A 
ENDBRANCH  27  28
ENDBRANCH   7  27
ENDBRANCH  19  21
ENDBRANCH  17  19
ENDBRANCH  13  17
TORSDOF 7
ENDMDL
MODEL 2
REMARK VINA RESULT:      -0.2      2.449      6.786
REMARK  Name = 45360996
REMARK  8 active torsions:
REMARK  status: ('A' for Active; 'I' for Inactive)
REMARK    1  A    between atoms: N_4  and  C_16
REMARK    2  A    between atoms: N_5  and  C_18
REMARK    3  A    between atoms: N_7  and  C_27
REMARK    4  A    between atoms: C_13  and  C_17
REMARK    5  A    between atoms: C_16  and  C_20
REMARK    6  A    between atoms: C_17  and  C_19
REMARK    7  A    between atoms: C_19  and  C_21
REMARK    8  A    between atoms: C_27  and  C_28
REMARK                            x       y       z     vdW  Elec       q    Type
REMARK                         _______ _______ _______ _____ _____    ______ ____
ROOT
ATOM      2  O   UNL     1      -2.922   2.188  22.779  0.00  0.00    -0.274 OA
ATOM      4  N   UNL     1      -4.907   1.569  24.503  0.00  0.00    -0.286 NA
ATOM      5  N   UNL     1      -2.514  -1.199  24.611  0.00  0.00    -0.296 NA
ATOM      6  N   UNL     1      -1.246   1.340  24.086  0.00  0.00    -0.312 N 
ATOM      9  C   UNL     1      -3.584  -0.350  25.182  0.00  0.00    +0.084 C 
ATOM     10  C   UNL     1      -3.542   1.181  24.907  0.00  0.00    +0.161 C 
ATOM     11  C   UNL     1      -4.999  -0.723  24.703  0.00  0.00    +0.036 C 
ATOM     12  C   UNL     1      -5.807   0.527  24.984  0.00  0.00    +0.087 C 
ATOM     13  C   UNL     1      -1.150  -0.904  25.132  0.00  0.00    +0.074 C 
ATOM     14  C   UNL     1      -2.573   1.614  23.810  0.00  0.00    +0.232 C 
ATOM     15  C   UNL     1      -0.810   0.595  25.251  0.00  0.00    +0.123 C 
ATOM     18  C   UNL     1      -2.829  -2.627  24.786  0.00  0.00    +0.105 C 
ATOM     33  H   UNL     1      -0.548   1.623  23.407  0.00  0.00    +0.149 HD
ENDROOT
BRANCH   4  16
ATOM     16  C   UNL     1      -5.296   2.891  24.976  0.00  0.00    +0.120 C 
BRANCH  16  20
ATOM      1  F   UNL     1      -0.908   6.418  25.195  0.00  0.00    -0.205 F 
ATOM     20  C   UNL     1      -4.123   3.833  25.034  0.00  0.00    -0.033 A 
ATOM     22  C   UNL     1      -3.894   4.728  23.989  0.00  0.00    +0.008 A 
ATOM     23  C   UNL     1      -3.265   3.811  26.134  0.00  0.00    +0.008 A 
ATOM     24  C   UNL     1      -2.808   5.601  24.042  0.00  0.00    +0.038 A 
ATOM     25  C   UNL     1      -2.178   4.684  26.188  0.00  0.00    +0.038 A 
ATOM     26  C   UNL     1      -1.950   5.579  25.143  0.00  0.00    +0.123 A 
ENDBRANCH  16  20
ENDBRANCH   4  16
BRANCH  13  17
ATOM     17  C   UNL     1      -0.077  -1.552  24.233  0.00  0.00    +0.029 C 
BRANCH  17  19
ATOM     19  C   UNL     1      -0.303  -1.183  22.777  0.00  0.00    +0.097 C 
BRANCH  19  21
ATOM      3  O   UNL     1       1.254  -0.687  20.991  0.00  0.00    -0.276 OA
ATOM      7  N   UNL     1       1.624   0.217  23.096  0.00  0.00    -0.311 N 
ATOM     21  C   UNL     1       0.929  -0.541  22.166  0.00  0.00    +0.213 C 
ATOM     34  H   UNL     1       1.290   0.266  24.055  0.00  0.00    +0.149 HD
BRANCH   7  27
ATOM     27  C   UNL     1       2.836   0.929  22.761  0.00  0.00    +0.141 C 
BRANCH  27  28
ATOM      8  N   UNL     1       5.100  -1.815  24.053  0.00  0.00    -0.263 NA
ATOM     28  C   UNL     1       4.061   0.227  23.281  0.00  0.00    -0.012 A 
ATOM     29  C   UNL     1       5.253   0.916  23.478  0.00  0.00    +0.008 A 
ATOM     30  C   UNL     1       4.037  -1.125  23.581  0.00  0.00    +0.115 A 
ATOM     31  C   UNL     1       6.369   0.241  23.960  0.00  0.00    +0.020 A 
ATOM     32  C   UNL     1       6.241  -1.113  24.231  0.00  0.00    +0.111 A 
ENDBRANCH  27  28
ENDBRANCH   7  27
ENDBRANCH  19  21
ENDBRANCH  17  19
ENDBRANCH  13  17
TORSDOF 7
ENDMDL
MODEL 3
REMARK VINA RESULT:      -0.2      1.399      2.106
REMARK  Name = 45360996
REMARK  8 active torsions:
REMARK  status: ('A' for Active; 'I' for Inactive)
REMARK    1  A    between atoms: N_4  and  C_16
REMARK    2  A    between atoms: N_5  and  C_18
REMARK    3  A    between atoms: N_7  and  C_27
REMARK    4  A    between atoms: C_13  and  C_17
REMARK    5  A    between atoms: C_16  and  C_20
REMARK    6  A    between atoms: C_17  and  C_19
REMARK    7  A    between atoms: C_19  and  C_21
REMARK    8  A    between atoms: C_27  and  C_28
REMARK                            x       y       z     vdW  Elec       q    Type
REMARK                         _______ _______ _______ _____ _____    ______ ____
ROOT
ATOM      2  O   UNL     1      -1.779  -2.700  23.581  0.00  0.00    -0.274 OA
ATOM      4  N   UNL     1       0.073  -0.735  23.620  0.00  0.00    -0.286 NA
ATOM      5  N   UNL     1      -3.200   0.899  23.718  0.00  0.00    -0.296 NA
ATOM      6  N   UNL     1      -3.204  -1.664  25.043  0.00  0.00    -0.312 N 
ATOM      9  C   UNL     1      -1.743   0.835  23.974  0.00  0.00    +0.084 C 
ATOM     10  C   UNL     1      -1.132  -0.517  24.442  0.00  0.00    +0.161 C 
ATOM     11  C   UNL     1      -0.878   1.170  22.745  0.00  0.00    +0.036 C 
ATOM     12  C   UNL     1       0.467   0.564  23.086  0.00  0.00    +0.087 C 
ATOM     13  C   UNL     1      -4.048   0.662  24.920  0.00  0.00    +0.074 C 
ATOM     14  C   UNL     1      -2.048  -1.729  24.287  0.00  0.00    +0.232 C 
ATOM     15  C   UNL     1      -3.587  -0.502  25.820  0.00  0.00    +0.123 C 
ATOM     18  C   UNL     1      -3.564   2.177  23.082  0.00  0.00    +0.105 C 
ATOM     33  H   UNL     1      -3.846  -2.449  25.003  0.00  0.00    +0.149 HD
ENDROOT
BRANCH   4  16
ATOM     16  C   UNL     1       1.158  -1.381  24.346  0.00  0.00    +0.120 C 
BRANCH  16  20
ATOM      1  F   UNL     1       6.210   0.374  22.572  0.00  0.00    -0.205 F 
ATOM     20  C   UNL     1       2.508  -0.912  23.872  0.00  0.00    -0.033 A 
ATOM     22  C   UNL     1       3.645  -1.672  24.144  0.00  0.00    +0.008 A 
ATOM     23  C   UNL     1       2.621   0.283  23.162  0.00  0.00    +0.008 A 
ATOM     24  C   UNL     1       4.896  -1.237  23.706  0.00  0.00    +0.038 A 
ATOM     25  C   UNL     1       3.872   0.718  22.723  0.00  0.00    +0.038 A 
ATOM     26  C   UNL     1       5.009  -0.043  22.994  0.00  0.00    +0.123 A 
ENDBRANCH  16  20
ENDBRANCH   4  16
BRANCH  13  17
ATOM     17  C   UNL     1      -5.506   0.376  24.503  0.00  0.00    +0.029 C 
BRANCH  17  19
ATOM     19  C   UNL     1      -6.413   1.528  24.898  0.00  0.00    +0.097 C 
BRANCH  19  21
ATOM      3  O   UNL     1      -6.039   2.422  27.117  0.00  0.00    -0.276 OA
ATOM      7  N   UNL     1      -4.800   3.256  25.339  0.00  0.00    -0.311 N 
ATOM     21  C   UNL     1      -5.752   2.433  25.923  0.00  0.00    +0.213 C 
ATOM     34  H   UNL     1      -4.643   3.208  24.337  0.00  0.00    +0.149 HD
BRANCH   7  27
ATOM     27  C   UNL     1      -4.033   4.210  26.105  0.00  0.00    +0.141 C 
BRANCH  27  28
ATOM      8  N   UNL     1      -0.479   2.909  26.134  0.00  0.00    -0.263 NA
ATOM     28  C   UNL     1      -2.559   4.101  25.822  0.00  0.00    -0.012 A 
ATOM     29  C   UNL     1      -1.910   5.039  25.025  0.00  0.00    +0.008 A 
ATOM     30  C   UNL     1      -1.805   3.064  26.347  0.00  0.00    +0.115 A 
ATOM     31  C   UNL     1      -0.547   4.912  24.781  0.00  0.00    +0.020 A 
ATOM     32  C   UNL     1       0.118   3.839  25.355  0.00  0.00    +0.111 A 
ENDBRANCH  27  28
ENDBRANCH   7  27
ENDBRANCH  19  21
ENDBRANCH  17  19
ENDBRANCH  13  17
TORSDOF 7
ENDMDL
MODEL 4
REMARK VINA RESULT:       0.1      1.639      3.881
REMARK  Name = 45360996
REMARK  8 active torsions:
REMARK  status: ('A' for Active; 'I' for Inactive)
REMARK    1  A    between atoms: N_4  and  C_16
REMARK    2  A    between atoms: N_5  and  C_18
REMARK    3  A    between atoms: N_7  and  C_27
REMARK    4  A    between atoms: C_13  and  C_17
REMARK    5  A    between atoms: C_16  and  C_20
REMARK    6  A    between atoms: C_17  and  C_19
REMARK    7  A    between atoms: C_19  and  C_21
REMARK    8  A    between atoms: C_27  and  C_28
REMARK                            x       y       z     vdW  Elec       q    Type
REMARK                         _______ _______ _______ _____ _____    ______ ____
ROOT
ATOM      2  O   UNL     1       0.571   2.112  26.129  0.00  0.00    -0.274 OA
ATOM      4  N   UNL     1       0.750   1.464  23.513  0.00  0.00    -0.286 NA
ATOM      5  N   UNL     1      -2.734   2.398  24.133  0.00  0.00    -0.296 NA
ATOM      6  N   UNL     1      -0.886   3.848  25.808  0.00  0.00    -0.312 N 
ATOM      9  C   UNL     1      -1.544   2.220  23.271  0.00  0.00    +0.084 C 
ATOM     10  C   UNL     1      -0.147   2.585  23.852  0.00  0.00    +0.161 C 
ATOM     11  C   UNL     1      -1.326   0.771  22.799  0.00  0.00    +0.036 C 
ATOM     12  C   UNL     1       0.135   0.746  22.403  0.00  0.00    +0.087 C 
ATOM     13  C   UNL     1      -3.005   3.810  24.526  0.00  0.00    +0.074 C 
ATOM     14  C   UNL     1      -0.110   2.794  25.364  0.00  0.00    +0.232 C 
ATOM     15  C   UNL     1      -1.760   4.617  24.945  0.00  0.00    +0.123 C 
ATOM     18  C   UNL     1      -3.928   1.806  23.506  0.00  0.00    +0.105 C 
ATOM     33  H   UNL     1      -0.887   4.055  26.802  0.00  0.00    +0.149 HD
ENDROOT
BRANCH   4  16
ATOM     16  C   UNL     1       2.111   1.885  23.208  0.00  0.00    +0.120 C 
BRANCH  16  20
ATOM      1  F   UNL     1       5.798  -2.331  23.823  0.00  0.00    -0.205 F 
ATOM     20  C   UNL     1       3.096   0.759  23.373  0.00  0.00    -0.033 A 
ATOM     22  C   UNL     1       2.640  -0.550  23.529  0.00  0.00    +0.008 A 
ATOM     23  C   UNL     1       4.465   1.024  23.369  0.00  0.00    +0.008 A 
ATOM     24  C   UNL     1       3.552  -1.594  23.682  0.00  0.00    +0.038 A 
ATOM     25  C   UNL     1       5.378  -0.020  23.521  0.00  0.00    +0.038 A 
ATOM     26  C   UNL     1       4.921  -1.328  23.677  0.00  0.00    +0.123 A 
ENDBRANCH  16  20
ENDBRANCH   4  16
BRANCH  13  17
ATOM     17  C   UNL     1      -4.007   3.861  25.698  0.00  0.00    +0.029 C 
BRANCH  17  19
ATOM     19  C   UNL     1      -5.352   3.294  25.279  0.00  0.00    +0.097 C 
BRANCH  19  21
ATOM      3  O   UNL     1      -6.537   1.660  26.615  0.00  0.00    -0.276 OA
ATOM      7  N   UNL     1      -4.613   1.016  25.487  0.00  0.00    -0.311 N 
ATOM     21  C   UNL     1      -5.591   1.920  25.878  0.00  0.00    +0.213 C 
ATOM     34  H   UNL     1      -3.854   1.327  24.887  0.00  0.00    +0.149 HD
BRANCH   7  27
ATOM     27  C   UNL     1      -4.616  -0.360  25.925  0.00  0.00    +0.141 C 
BRANCH  27  28
ATOM      8  N   UNL     1      -0.948  -1.225  25.574  0.00  0.00    -0.263 NA
ATOM     28  C   UNL     1      -3.361  -1.082  25.516  0.00  0.00    -0.012 A 
ATOM     29  C   UNL     1      -3.417  -2.228  24.729  0.00  0.00    +0.008 A 
ATOM     30  C   UNL     1      -2.113  -0.626  25.909  0.00  0.00    +0.115 A 
ATOM     31  C   UNL     1      -2.240  -2.873  24.365  0.00  0.00    +0.020 A 
ATOM     32  C   UNL     1      -1.042  -2.336  24.809  0.00  0.00    +0.111 A 
ENDBRANCH  27  28
ENDBRANCH   7  27
ENDBRANCH  19  21
ENDBRANCH  17  19
ENDBRANCH  13  17
TORSDOF 7
ENDMDL
MODEL 5
REMARK VINA RESULT:       0.3      1.474      4.092
REMARK  Name = 45360996
REMARK  8 active torsions:
REMARK  status: ('A' for Active; 'I' for Inactive)
REMARK    1  A    between atoms: N_4  and  C_16
REMARK    2  A    between atoms: N_5  and  C_18
REMARK    3  A    between atoms: N_7  and  C_27
REMARK    4  A    between atoms: C_13  and  C_17
REMARK    5  A    between atoms: C_16  and  C_20
REMARK    6  A    between atoms: C_17  and  C_19
REMARK    7  A    between atoms: C_19  and  C_21
REMARK    8  A    between atoms: C_27  and  C_28
REMARK                            x       y       z     vdW  Elec       q    Type
REMARK                         _______ _______ _______ _____ _____    ______ ____
ROOT
ATOM      2  O   UNL     1      -1.093  -0.005  26.474  0.00  0.00    -0.274 OA
ATOM      4  N   UNL     1      -0.279  -0.606  23.970  0.00  0.00    -0.286 NA
ATOM      5  N   UNL     1      -1.635   2.791  23.852  0.00  0.00    -0.296 NA
ATOM      6  N   UNL     1      -0.410   2.177  26.391  0.00  0.00    -0.312 N 
ATOM      9  C   UNL     1      -0.770   1.693  23.365  0.00  0.00    +0.084 C 
ATOM     10  C   UNL     1      -0.065   0.784  24.414  0.00  0.00    +0.161 C 
ATOM     11  C   UNL     1      -1.505   0.661  22.490  0.00  0.00    +0.036 C 
ATOM     12  C   UNL     1      -0.605  -0.556  22.550  0.00  0.00    +0.087 C 
ATOM     13  C   UNL     1      -0.918   3.842  24.628  0.00  0.00    +0.074 C 
ATOM     14  C   UNL     1      -0.587   0.921  25.842  0.00  0.00    +0.232 C 
ATOM     15  C   UNL     1       0.108   3.309  25.648  0.00  0.00    +0.123 C 
ATOM     18  C   UNL     1      -2.383   3.401  22.739  0.00  0.00    +0.105 C 
ATOM     33  H   UNL     1      -0.715   2.328  27.347  0.00  0.00    +0.149 HD
ENDROOT
BRANCH   4  16
ATOM     16  C   UNL     1       0.855  -1.479  24.242  0.00  0.00    +0.120 C 
BRANCH  16  20
ATOM      1  F   UNL     1       5.715   0.786  22.510  0.00  0.00    -0.205 F 
ATOM     20  C   UNL     1       2.153  -0.874  23.779  0.00  0.00    -0.033 A 
ATOM     22  C   UNL     1       3.361  -1.513  24.060  0.00  0.00    +0.008 A 
ATOM     23  C   UNL     1       2.149   0.327  23.070  0.00  0.00    +0.008 A 
ATOM     24  C   UNL     1       4.564  -0.953  23.632  0.00  0.00    +0.038 A 
ATOM     25  C   UNL     1       3.352   0.888  22.641  0.00  0.00    +0.038 A 
ATOM     26  C   UNL     1       4.559   0.248  22.922  0.00  0.00    +0.123 A 
ENDBRANCH  16  20
ENDBRANCH   4  16
BRANCH  13  17
ATOM     17  C   UNL     1      -1.923   4.722  25.400  0.00  0.00    +0.029 C 
BRANCH  17  19
ATOM     19  C   UNL     1      -2.731   3.886  26.376  0.00  0.00    +0.097 C 
BRANCH  19  21
ATOM      3  O   UNL     1      -4.923   3.879  25.348  0.00  0.00    -0.276 OA
ATOM      7  N   UNL     1      -3.762   1.878  25.547  0.00  0.00    -0.311 N 
ATOM     21  C   UNL     1      -3.933   3.246  25.703  0.00  0.00    +0.213 C 
ATOM     34  H   UNL     1      -2.914   1.436  25.890  0.00  0.00    +0.149 HD
BRANCH   7  27
ATOM     27  C   UNL     1      -4.767   1.041  24.934  0.00  0.00    +0.141 C 
BRANCH  27  28
ATOM      8  N   UNL     1      -3.277  -2.314  25.856  0.00  0.00    -0.263 NA
ATOM     28  C   UNL     1      -4.314  -0.389  24.823  0.00  0.00    -0.012 A 
ATOM     29  C   UNL     1      -4.488  -1.107  23.644  0.00  0.00    +0.008 A 
ATOM     30  C   UNL     1      -3.709  -1.033  25.890  0.00  0.00    +0.115 A 
ATOM     31  C   UNL     1      -4.059  -2.428  23.571  0.00  0.00    +0.020 A 
ATOM     32  C   UNL     1      -3.464  -2.980  24.695  0.00  0.00    +0.111 A 
ENDBRANCH  27  28
ENDBRANCH   7  27
ENDBRANCH  19  21
ENDBRANCH  17  19
ENDBRANCH  13  17
TORSDOF 7
ENDMDL
