MODEL 1
REMARK VINA RESULT:       5.8      0.000      0.000
REMARK  Name = 75536087
REMARK  7 active torsions:
REMARK  status: ('A' for Active; 'I' for Inactive)
REMARK    1  A    between atoms: O_1  and  C_10
REMARK    2  A    between atoms: O_2  and  C_12
REMARK    3  A    between atoms: N_5  and  C_9
REMARK    4  A    between atoms: N_7  and  C_18
REMARK    5  A    between atoms: C_8  and  C_13
REMARK    6  A    between atoms: C_16  and  C_19
REMARK    7  A    between atoms: C_24  and  C_27
REMARK                            x       y       z     vdW  Elec       q    Type
REMARK                         _______ _______ _______ _____ _____    ______ ____
ROOT
ATOM      8  C   UNL     1      -2.171  -1.101  23.957  0.00  0.00    +0.046 C 
ATOM      9  C   UNL     1      -2.727  -0.627  25.319  0.00  0.00    +0.112 C 
ATOM     10  C   UNL     1      -3.898  -1.574  25.573  0.00  0.00    +0.164 C 
ATOM     11  C   UNL     1      -2.624  -2.576  23.807  0.00  0.00    +0.044 C 
ATOM     12  C   UNL     1      -3.365  -2.919  25.097  0.00  0.00    +0.145 C 
ENDROOT
BRANCH   8  13
ATOM      6  N   UNL     1       1.562  -1.476  24.516  0.00  0.00    -0.240 NA
ATOM     13  C   UNL     1      -0.678  -0.889  23.821  0.00  0.00    -0.024 A 
ATOM     14  C   UNL     1      -0.164   0.043  22.926  0.00  0.00    +0.009 A 
ATOM     15  C   UNL     1       0.220  -1.617  24.586  0.00  0.00    +0.116 A 
ATOM     17  C   UNL     1       1.212   0.215  22.825  0.00  0.00    +0.044 A 
ATOM     18  C   UNL     1       2.024  -0.561  23.635  0.00  0.00    +0.121 A 
BRANCH  18   7
ATOM      4  O   UNL     1       6.161  -0.097  23.038  0.00  0.00    -0.377 OA
ATOM      7  N   UNL     1       3.406  -0.375  23.523  0.00  0.00    -0.311 N 
ATOM     20  C   UNL     1       3.896   0.642  22.582  0.00  0.00    +0.134 C 
ATOM     21  C   UNL     1       4.317  -1.502  23.754  0.00  0.00    +0.134 C 
ATOM     22  C   UNL     1       5.315   1.051  22.959  0.00  0.00    +0.178 C 
ATOM     23  C   UNL     1       5.714  -0.978  24.068  0.00  0.00    +0.178 C 
ENDBRANCH  18   7
ENDBRANCH   8  13
BRANCH   9   5
ATOM      3  O   UNL     1      -5.309   0.355  24.533  0.00  0.00    -0.270 OA
ATOM      5  N   UNL     1      -3.149   0.751  25.280  0.00  0.00    -0.305 N 
ATOM     16  C   UNL     1      -4.424   1.132  24.884  0.00  0.00    +0.245 C 
ATOM     30  H   UNL     1      -2.498   1.464  25.597  0.00  0.00    +0.149 HD
BRANCH  16  19
ATOM     19  C   UNL     1      -4.694   2.593  24.873  0.00  0.00    +0.040 A 
ATOM     24  C   UNL     1      -3.964   3.455  24.054  0.00  0.00    -0.038 A 
ATOM     25  C   UNL     1      -5.696   3.099  25.700  0.00  0.00    +0.013 A 
ATOM     26  C   UNL     1      -4.236   4.822  24.061  0.00  0.00    +0.004 A 
ATOM     27  C   UNL     1      -2.885   2.938  23.157  0.00  0.00    +0.044 C 
ATOM     28  C   UNL     1      -5.969   4.467  25.708  0.00  0.00    +0.001 A 
ATOM     29  C   UNL     1      -5.239   5.329  24.888  0.00  0.00    +0.000 A 
ENDBRANCH  16  19
ENDBRANCH   9   5
BRANCH  10   1
ATOM      1  O   UNL     1      -4.261  -1.623  26.941  0.00  0.00    -0.387 OA
ATOM     31  H   UNL     1      -4.638  -0.758  27.174  0.00  0.00    +0.210 HD
ENDBRANCH  10   1
BRANCH  12   2
ATOM      2  O   UNL     1      -2.433  -3.458  26.030  0.00  0.00    -0.389 OA
ATOM     32  H   UNL     1      -1.728  -3.893  25.520  0.00  0.00    +0.210 HD
ENDBRANCH  12   2
TORSDOF 6
ENDMDL
MODEL 2
REMARK VINA RESULT:       5.8      1.577      2.092
REMARK  Name = 75536087
REMARK  7 active torsions:
REMARK  status: ('A' for Active; 'I' for Inactive)
REMARK    1  A    between atoms: O_1  and  C_10
REMARK    2  A    between atoms: O_2  and  C_12
REMARK    3  A    between atoms: N_5  and  C_9
REMARK    4  A    between atoms: N_7  and  C_18
REMARK    5  A    between atoms: C_8  and  C_13
REMARK    6  A    between atoms: C_16  and  C_19
REMARK    7  A    between atoms: C_24  and  C_27
REMARK                            x       y       z     vdW  Elec       q    Type
REMARK                         _______ _______ _______ _____ _____    ______ ____
ROOT
ATOM      8  C   UNL     1      -1.944  -0.865  23.805  0.00  0.00    +0.046 C 
ATOM      9  C   UNL     1      -2.527  -0.322  25.130  0.00  0.00    +0.112 C 
ATOM     10  C   UNL     1      -3.811  -1.129  25.310  0.00  0.00    +0.164 C 
ATOM     11  C   UNL     1      -2.550  -2.280  23.626  0.00  0.00    +0.044 C 
ATOM     12  C   UNL     1      -3.404  -2.529  24.867  0.00  0.00    +0.145 C 
ENDROOT
BRANCH   8  13
ATOM      6  N   UNL     1       1.583   0.141  22.836  0.00  0.00    -0.240 NA
ATOM     13  C   UNL     1      -0.431  -0.824  23.763  0.00  0.00    -0.024 A 
ATOM     14  C   UNL     1       0.332  -1.666  24.564  0.00  0.00    +0.009 A 
ATOM     15  C   UNL     1       0.237   0.054  22.924  0.00  0.00    +0.116 A 
ATOM     17  C   UNL     1       1.720  -1.606  24.502  0.00  0.00    +0.044 A 
ATOM     18  C   UNL     1       2.291  -0.694  23.630  0.00  0.00    +0.121 A 
BRANCH  18   7
ATOM      4  O   UNL     1       6.474  -0.610  23.203  0.00  0.00    -0.377 OA
ATOM      7  N   UNL     1       3.689  -0.646  23.578  0.00  0.00    -0.311 N 
ATOM     20  C   UNL     1       4.316   0.413  22.774  0.00  0.00    +0.134 C 
ATOM     21  C   UNL     1       4.469  -1.882  23.703  0.00  0.00    +0.134 C 
ATOM     22  C   UNL     1       5.755   0.623  23.233  0.00  0.00    +0.178 C 
ATOM     23  C   UNL     1       5.899  -1.549  24.112  0.00  0.00    +0.178 C 
ENDBRANCH  18   7
ENDBRANCH   8  13
BRANCH   9   5
ATOM      3  O   UNL     1      -0.703   1.789  25.814  0.00  0.00    -0.270 OA
ATOM      5  N   UNL     1      -2.786   1.094  25.065  0.00  0.00    -0.305 N 
ATOM     16  C   UNL     1      -1.838   2.045  25.419  0.00  0.00    +0.245 C 
ATOM     30  H   UNL     1      -3.685   1.404  24.706  0.00  0.00    +0.149 HD
BRANCH  16  19
ATOM     19  C   UNL     1      -2.270   3.463  25.322  0.00  0.00    +0.040 A 
ATOM     24  C   UNL     1      -3.618   3.813  25.400  0.00  0.00    -0.038 A 
ATOM     25  C   UNL     1      -1.302   4.452  25.151  0.00  0.00    +0.013 A 
ATOM     26  C   UNL     1      -3.999   5.152  25.308  0.00  0.00    +0.004 A 
ATOM     27  C   UNL     1      -4.676   2.773  25.584  0.00  0.00    +0.044 C 
ATOM     28  C   UNL     1      -1.681   5.791  25.057  0.00  0.00    +0.001 A 
ATOM     29  C   UNL     1      -3.030   6.141  25.136  0.00  0.00    +0.000 A 
ENDBRANCH  16  19
ENDBRANCH   9   5
BRANCH  10   1
ATOM      1  O   UNL     1      -4.261  -1.128  26.652  0.00  0.00    -0.387 OA
ATOM     31  H   UNL     1      -4.818  -1.916  26.773  0.00  0.00    +0.210 HD
ENDBRANCH  10   1
BRANCH  12   2
ATOM      2  O   UNL     1      -2.599  -3.164  25.856  0.00  0.00    -0.389 OA
ATOM     32  H   UNL     1      -3.186  -3.423  26.587  0.00  0.00    +0.210 HD
ENDBRANCH  12   2
TORSDOF 6
ENDMDL
