MODEL 1
REMARK VINA RESULT:       1.0      0.000      0.000
REMARK  Name = 40724251
REMARK  6 active torsions:
REMARK  status: ('A' for Active; 'I' for Inactive)
REMARK    1  A    between atoms: S_1  and  N_5
REMARK    2  A    between atoms: S_1  and  C_16
REMARK    3  A    between atoms: C_16  and  C_19
REMARK    4  A    between atoms: C_17  and  C_20
REMARK    5  A    between atoms: C_19  and  C_21
REMARK    6  A    between atoms: C_22  and  C_25
REMARK                            x       y       z     vdW  Elec       q    Type
REMARK                         _______ _______ _______ _____ _____    ______ ____
ROOT
ATOM      4  O   UNL     1      -4.338  -7.252  10.931  0.00  0.00    -0.267 OA
ATOM      5  N   UNL     1      -8.865  -9.337  10.887  0.00  0.00    -0.180 NA
ATOM      6  N   UNL     1      -5.987  -8.516   9.872  0.00  0.00    -0.311 N 
ATOM      7  C   UNL     1      -8.274  -7.551   9.245  0.00  0.00    +0.025 C 
ATOM      8  C   UNL     1      -7.757  -9.896   8.731  0.00  0.00    +0.052 C 
ATOM      9  C   UNL     1      -8.245  -8.582   8.125  0.00  0.00    +0.017 C 
ATOM     10  C   UNL     1      -9.235  -7.992  10.362  0.00  0.00    +0.114 C 
ATOM     11  C   UNL     1      -8.751 -10.366   9.809  0.00  0.00    +0.118 C 
ATOM     12  C   UNL     1      -6.846  -7.330   9.754  0.00  0.00    +0.130 C 
ATOM     13  C   UNL     1      -6.369  -9.741   9.322  0.00  0.00    +0.026 A 
ATOM     14  C   UNL     1      -5.520 -10.781   9.339  0.00  0.00    +0.022 A 
ATOM     15  C   UNL     1      -4.724  -8.326  10.467  0.00  0.00    +0.259 A 
ATOM     17  C   UNL     1      -3.808  -9.519  10.503  0.00  0.00    +0.047 A 
ATOM     18  C   UNL     1      -4.223 -10.666   9.944  0.00  0.00    +0.015 A 
ENDROOT
BRANCH  17  20
ATOM     20  C   UNL     1      -2.483  -9.446  11.143  0.00  0.00    -0.010 A 
ATOM     22  C   UNL     1      -2.271  -9.936  12.431  0.00  0.00    -0.043 A 
ATOM     23  C   UNL     1      -1.428  -8.871  10.433  0.00  0.00    +0.009 A 
ATOM     24  C   UNL     1      -1.005  -9.851  13.011  0.00  0.00    +0.004 A 
ATOM     25  C   UNL     1      -3.377 -10.558  13.221  0.00  0.00    +0.044 C 
ATOM     26  C   UNL     1      -0.162  -8.785  11.013  0.00  0.00    +0.001 A 
ATOM     27  C   UNL     1       0.049  -9.276  12.302  0.00  0.00    +0.000 A 
ENDBRANCH  17  20
BRANCH   5   1
ATOM      1  S   UNL     1      -9.690  -9.834  12.300  0.00  0.00    +0.032 S 
ATOM      2  O   UNL     1     -10.720 -10.781  11.930  0.00  0.00    -0.158 OA
ATOM      3  O   UNL     1      -9.984  -8.668  13.103  0.00  0.00    -0.158 OA
BRANCH   1  16
ATOM     16  C   UNL     1      -8.381 -10.731  13.094  0.00  0.00    +0.185 C 
BRANCH  16  19
ATOM     19  C   UNL     1      -7.113  -9.899  13.181  0.00  0.00    +0.021 C 
ATOM     21  C   UNL     1      -6.487  -9.981  14.563  0.00  0.00    +0.005 C 
ENDBRANCH  16  19
ENDBRANCH   1  16
ENDBRANCH   5   1
TORSDOF 4
ENDMDL
MODEL 2
REMARK VINA RESULT:       2.7     16.314     17.893
REMARK  Name = 40724251
REMARK  6 active torsions:
REMARK  status: ('A' for Active; 'I' for Inactive)
REMARK    1  A    between atoms: S_1  and  N_5
REMARK    2  A    between atoms: S_1  and  C_16
REMARK    3  A    between atoms: C_16  and  C_19
REMARK    4  A    between atoms: C_17  and  C_20
REMARK    5  A    between atoms: C_19  and  C_21
REMARK    6  A    between atoms: C_22  and  C_25
REMARK                            x       y       z     vdW  Elec       q    Type
REMARK                         _______ _______ _______ _____ _____    ______ ____
ROOT
ATOM      4  O   UNL     1       0.214   2.088  25.849  0.00  0.00    -0.267 OA
ATOM      5  N   UNL     1      -4.725   2.537  25.341  0.00  0.00    -0.180 NA
ATOM      6  N   UNL     1      -1.649   3.036  24.814  0.00  0.00    -0.311 N 
ATOM      7  C   UNL     1      -3.343   4.481  26.080  0.00  0.00    +0.025 C 
ATOM      8  C   UNL     1      -3.657   4.051  23.683  0.00  0.00    +0.052 C 
ATOM      9  C   UNL     1      -3.563   5.156  24.732  0.00  0.00    +0.017 C 
ATOM     10  C   UNL     1      -4.519   3.549  26.416  0.00  0.00    +0.114 C 
ATOM     11  C   UNL     1      -4.870   3.153  23.988  0.00  0.00    +0.118 C 
ATOM     12  C   UNL     1      -2.000   3.743  26.054  0.00  0.00    +0.130 C 
ATOM     13  C   UNL     1      -2.385   3.226  23.643  0.00  0.00    +0.026 A 
ATOM     14  C   UNL     1      -1.978   2.662  22.494  0.00  0.00    +0.022 A 
ATOM     15  C   UNL     1      -0.481   2.250  24.843  0.00  0.00    +0.259 A 
ATOM     17  C   UNL     1      -0.070   1.602  23.549  0.00  0.00    +0.047 A 
ATOM     18  C   UNL     1      -0.807   1.834  22.451  0.00  0.00    +0.015 A 
ENDROOT
BRANCH  17  20
ATOM     20  C   UNL     1       1.109   0.721  23.476  0.00  0.00    -0.010 A 
ATOM     22  C   UNL     1       1.029  -0.628  23.820  0.00  0.00    -0.043 A 
ATOM     23  C   UNL     1       2.323   1.263  23.052  0.00  0.00    +0.009 A 
ATOM     24  C   UNL     1       2.164  -1.435  23.742  0.00  0.00    +0.004 A 
ATOM     25  C   UNL     1      -0.254  -1.242  24.278  0.00  0.00    +0.044 C 
ATOM     26  C   UNL     1       3.458   0.455  22.974  0.00  0.00    +0.001 A 
ATOM     27  C   UNL     1       3.377  -0.895  23.318  0.00  0.00    +0.000 A 
ENDBRANCH  17  20
BRANCH   5   1
ATOM      1  S   UNL     1      -5.830   1.283  25.706  0.00  0.00    +0.032 S 
ATOM      2  O   UNL     1      -6.743   1.129  24.595  0.00  0.00    -0.158 OA
ATOM      3  O   UNL     1      -6.305   1.460  27.061  0.00  0.00    -0.158 OA
BRANCH   1  16
ATOM     16  C   UNL     1      -4.713  -0.095  25.692  0.00  0.00    +0.185 C 
BRANCH  16  19
ATOM     19  C   UNL     1      -4.082  -0.283  24.322  0.00  0.00    +0.021 C 
ATOM     21  C   UNL     1      -4.147  -1.733  23.874  0.00  0.00    +0.005 C 
ENDBRANCH  16  19
ENDBRANCH   1  16
ENDBRANCH   5   1
TORSDOF 4
ENDMDL
MODEL 3
REMARK VINA RESULT:       3.9     15.877     17.137
REMARK  Name = 40724251
REMARK  6 active torsions:
REMARK  status: ('A' for Active; 'I' for Inactive)
REMARK    1  A    between atoms: S_1  and  N_5
REMARK    2  A    between atoms: S_1  and  C_16
REMARK    3  A    between atoms: C_16  and  C_19
REMARK    4  A    between atoms: C_17  and  C_20
REMARK    5  A    between atoms: C_19  and  C_21
REMARK    6  A    between atoms: C_22  and  C_25
REMARK                            x       y       z     vdW  Elec       q    Type
REMARK                         _______ _______ _______ _____ _____    ______ ____
ROOT
ATOM      4  O   UNL     1       1.608   1.902  24.888  0.00  0.00    -0.267 OA
ATOM      5  N   UNL     1      -3.235   0.751  24.633  0.00  0.00    -0.180 NA
ATOM      6  N   UNL     1      -0.392   1.765  23.697  0.00  0.00    -0.311 N 
ATOM      7  C   UNL     1      -2.474   3.111  24.339  0.00  0.00    +0.025 C 
ATOM      8  C   UNL     1      -2.546   1.604  22.401  0.00  0.00    +0.052 C 
ATOM      9  C   UNL     1      -2.806   3.038  22.854  0.00  0.00    +0.017 C 
ATOM     10  C   UNL     1      -3.365   2.147  25.140  0.00  0.00    +0.114 C 
ATOM     11  C   UNL     1      -3.479   0.645  23.163  0.00  0.00    +0.118 C 
ATOM     12  C   UNL     1      -0.981   2.824  24.529  0.00  0.00    +0.130 C 
ATOM     13  C   UNL     1      -1.096   1.217  22.623  0.00  0.00    +0.026 A 
ATOM     14  C   UNL     1      -0.497   0.336  21.805  0.00  0.00    +0.022 A 
ATOM     15  C   UNL     1       0.944   1.414  23.972  0.00  0.00    +0.259 A 
ATOM     17  C   UNL     1       1.577   0.397  23.060  0.00  0.00    +0.047 A 
ATOM     18  C   UNL     1       0.857  -0.082  22.034  0.00  0.00    +0.015 A 
ENDROOT
BRANCH  17  20
ATOM     20  C   UNL     1       2.954  -0.076  23.283  0.00  0.00    -0.010 A 
ATOM     22  C   UNL     1       4.055   0.726  22.984  0.00  0.00    -0.043 A 
ATOM     23  C   UNL     1       3.145  -1.356  23.806  0.00  0.00    +0.009 A 
ATOM     24  C   UNL     1       5.346   0.248  23.206  0.00  0.00    +0.004 A 
ATOM     25  C   UNL     1       3.889   2.102  22.424  0.00  0.00    +0.044 C 
ATOM     26  C   UNL     1       4.436  -1.834  24.027  0.00  0.00    +0.001 A 
ATOM     27  C   UNL     1       5.537  -1.030  23.727  0.00  0.00    +0.000 A 
ENDBRANCH  17  20
BRANCH   5   1
ATOM      1  S   UNL     1      -3.971  -0.458  25.594  0.00  0.00    +0.032 S 
ATOM      2  O   UNL     1      -5.259   0.025  26.044  0.00  0.00    -0.158 OA
ATOM      3  O   UNL     1      -2.990  -0.980  26.519  0.00  0.00    -0.158 OA
BRANCH   1  16
ATOM     16  C   UNL     1      -4.252  -1.684  24.343  0.00  0.00    +0.185 C 
BRANCH  16  19
ATOM     19  C   UNL     1      -3.364  -2.899  24.549  0.00  0.00    +0.021 C 
ATOM     21  C   UNL     1      -1.912  -2.589  24.225  0.00  0.00    +0.005 C 
ENDBRANCH  16  19
ENDBRANCH   1  16
ENDBRANCH   5   1
TORSDOF 4
ENDMDL
