MODEL 1
REMARK VINA RESULT:      -2.4      0.000      0.000
REMARK  Name = 26743622
REMARK  8 active torsions:
REMARK  status: ('A' for Active; 'I' for Inactive)
REMARK    1  A    between atoms: O_4  and  C_13
REMARK    2  A    between atoms: O_7  and  C_23
REMARK    3  A    between atoms: N_8  and  C_15
REMARK    4  A    between atoms: C_11  and  C_16
REMARK    5  A    between atoms: C_15  and  C_17
REMARK    6  A    between atoms: C_19  and  C_22
REMARK    7  A    between atoms: C_20  and  C_23
REMARK    8  A    between atoms: C_28  and  C_29
REMARK                            x       y       z     vdW  Elec       q    Type
REMARK                         _______ _______ _______ _____ _____    ______ ____
ROOT
ATOM      8  N   UNL     1      -4.732   1.441  25.231  0.00  0.00    -0.282 NA
ATOM     11  C   UNL     1      -4.525   2.191  23.975  0.00  0.00    +0.149 C 
ATOM     12  C   UNL     1      -4.694   3.670  24.368  0.00  0.00    +0.061 C 
ATOM     13  C   UNL     1      -5.040   3.647  25.852  0.00  0.00    +0.130 C 
ATOM     14  C   UNL     1      -5.614   2.258  26.061  0.00  0.00    +0.117 C 
ENDROOT
BRANCH  11  16
ATOM      5  O   UNL     1      -3.118   2.003  21.985  0.00  0.00    -0.336 OA
ATOM      9  N   UNL     1      -2.050   1.568  23.905  0.00  0.00    -0.190 NA
ATOM     10  N   UNL     1      -1.797   1.698  21.636  0.00  0.00    -0.056 NA
ATOM     16  C   UNL     1      -3.181   1.905  23.339  0.00  0.00    +0.245 A 
ATOM     19  C   UNL     1      -1.230   1.453  22.820  0.00  0.00    +0.202 A 
BRANCH  19  22
ATOM     22  C   UNL     1       0.151   1.092  22.955  0.00  0.00    +0.022 A 
ATOM     24  C   UNL     1       1.010   1.887  23.715  0.00  0.00    +0.012 A 
ATOM     25  C   UNL     1       0.636  -0.056  22.328  0.00  0.00    +0.012 A 
ATOM     26  C   UNL     1       2.353   1.535  23.846  0.00  0.00    +0.013 A 
ATOM     27  C   UNL     1       1.979  -0.408  22.459  0.00  0.00    +0.013 A 
ATOM     28  C   UNL     1       2.837   0.388  23.218  0.00  0.00    +0.055 A 
BRANCH  28  29
ATOM      1  F   UNL     1       4.951   0.762  24.277  0.00  0.00    -0.166 F 
ATOM      2  F   UNL     1       4.968   0.147  22.192  0.00  0.00    -0.166 F 
ATOM      3  F   UNL     1       4.463  -1.285  23.748  0.00  0.00    -0.166 F 
ATOM     29  C   UNL     1       4.274   0.011  23.359  0.00  0.00    +0.417 C 
ENDBRANCH  28  29
ENDBRANCH  19  22
ENDBRANCH  11  16
BRANCH  13   4
ATOM      4  O   UNL     1      -5.980   4.656  26.165  0.00  0.00    -0.390 OA
ATOM     30  H   UNL     1      -5.546   5.283  26.770  0.00  0.00    +0.210 HD
ENDBRANCH  13   4
BRANCH   8  15
ATOM     15  C   UNL     1      -5.266   0.102  25.018  0.00  0.00    +0.159 C 
BRANCH  15  17
ATOM      6  O   UNL     1      -2.966  -0.632  25.327  0.00  0.00    -0.461 OA
ATOM     17  C   UNL     1      -4.174  -0.904  24.767  0.00  0.00    +0.119 A 
ATOM     18  C   UNL     1      -4.127  -2.088  24.068  0.00  0.00    +0.046 A 
ATOM     20  C   UNL     1      -2.138  -1.652  24.981  0.00  0.00    +0.131 A 
ATOM     21  C   UNL     1      -2.804  -2.574  24.207  0.00  0.00    +0.047 A 
BRANCH  20  23
ATOM     23  C   UNL     1      -0.759  -1.569  25.482  0.00  0.00    +0.230 C 
BRANCH  23   7
ATOM      7  O   UNL     1      -0.500  -0.263  26.004  0.00  0.00    -0.387 OA
ATOM     31  H   UNL     1       0.423  -0.049  25.786  0.00  0.00    +0.210 HD
ENDBRANCH  23   7
ENDBRANCH  20  23
ENDBRANCH  15  17
ENDBRANCH   8  15
TORSDOF 8
ENDMDL
MODEL 2
REMARK VINA RESULT:      -0.1      1.947      3.354
REMARK  Name = 26743622
REMARK  8 active torsions:
REMARK  status: ('A' for Active; 'I' for Inactive)
REMARK    1  A    between atoms: O_4  and  C_13
REMARK    2  A    between atoms: O_7  and  C_23
REMARK    3  A    between atoms: N_8  and  C_15
REMARK    4  A    between atoms: C_11  and  C_16
REMARK    5  A    between atoms: C_15  and  C_17
REMARK    6  A    between atoms: C_19  and  C_22
REMARK    7  A    between atoms: C_20  and  C_23
REMARK    8  A    between atoms: C_28  and  C_29
REMARK                            x       y       z     vdW  Elec       q    Type
REMARK                         _______ _______ _______ _____ _____    ______ ____
ROOT
ATOM      8  N   UNL     1      -4.488   3.095  25.227  0.00  0.00    -0.282 NA
ATOM     11  C   UNL     1      -4.056   1.683  25.220  0.00  0.00    +0.149 C 
ATOM     12  C   UNL     1      -5.287   0.897  24.731  0.00  0.00    +0.061 C 
ATOM     13  C   UNL     1      -6.373   1.948  24.535  0.00  0.00    +0.130 C 
ATOM     14  C   UNL     1      -5.934   3.085  25.439  0.00  0.00    +0.117 C 
ENDROOT
BRANCH  11  16
ATOM      5  O   UNL     1      -3.027   1.492  23.011  0.00  0.00    -0.336 OA
ATOM      9  N   UNL     1      -1.598   1.210  24.713  0.00  0.00    -0.190 NA
ATOM     10  N   UNL     1      -1.775   1.252  22.433  0.00  0.00    -0.056 NA
ATOM     16  C   UNL     1      -2.834   1.451  24.356  0.00  0.00    +0.245 A 
ATOM     19  C   UNL     1      -0.985   1.096  23.498  0.00  0.00    +0.202 A 
BRANCH  19  22
ATOM     22  C   UNL     1       0.419   0.826  23.387  0.00  0.00    +0.022 A 
ATOM     24  C   UNL     1       0.864  -0.478  23.170  0.00  0.00    +0.012 A 
ATOM     25  C   UNL     1       1.339   1.869  23.493  0.00  0.00    +0.012 A 
ATOM     26  C   UNL     1       2.229  -0.740  23.061  0.00  0.00    +0.013 A 
ATOM     27  C   UNL     1       2.705   1.607  23.384  0.00  0.00    +0.013 A 
ATOM     28  C   UNL     1       3.150   0.302  23.169  0.00  0.00    +0.055 A 
BRANCH  28  29
ATOM      1  F   UNL     1       5.085   0.110  21.773  0.00  0.00    -0.166 F 
ATOM      2  F   UNL     1       4.940  -1.230  23.480  0.00  0.00    -0.166 F 
ATOM      3  F   UNL     1       5.391   0.876  23.780  0.00  0.00    -0.166 F 
ATOM     29  C   UNL     1       4.611   0.023  23.052  0.00  0.00    +0.417 C 
ENDBRANCH  28  29
ENDBRANCH  19  22
ENDBRANCH  11  16
BRANCH  13   4
ATOM      4  O   UNL     1      -7.638   1.439  24.910  0.00  0.00    -0.390 OA
ATOM     30  H   UNL     1      -7.581   1.173  25.845  0.00  0.00    +0.210 HD
ENDBRANCH  13   4
BRANCH   8  15
ATOM     15  C   UNL     1      -3.795   3.903  26.222  0.00  0.00    +0.159 C 
BRANCH  15  17
ATOM      6  O   UNL     1      -1.479   3.237  26.563  0.00  0.00    -0.461 OA
ATOM     17  C   UNL     1      -2.333   4.058  25.898  0.00  0.00    +0.119 A 
ATOM     18  C   UNL     1      -1.642   4.881  25.039  0.00  0.00    +0.046 A 
ATOM     20  C   UNL     1      -0.228   3.540  26.125  0.00  0.00    +0.131 A 
ATOM     21  C   UNL     1      -0.274   4.545  25.187  0.00  0.00    +0.047 A 
BRANCH  20  23
ATOM     23  C   UNL     1       0.873   2.766  26.716  0.00  0.00    +0.230 C 
BRANCH  23   7
ATOM      7  O   UNL     1       0.531   2.354  28.043  0.00  0.00    -0.387 OA
ATOM     31  H   UNL     1       1.223   2.698  28.633  0.00  0.00    +0.210 HD
ENDBRANCH  23   7
ENDBRANCH  20  23
ENDBRANCH  15  17
ENDBRANCH   8  15
TORSDOF 8
ENDMDL
MODEL 3
REMARK VINA RESULT:       0.5      2.126      4.146
REMARK  Name = 26743622
REMARK  8 active torsions:
REMARK  status: ('A' for Active; 'I' for Inactive)
REMARK    1  A    between atoms: O_4  and  C_13
REMARK    2  A    between atoms: O_7  and  C_23
REMARK    3  A    between atoms: N_8  and  C_15
REMARK    4  A    between atoms: C_11  and  C_16
REMARK    5  A    between atoms: C_15  and  C_17
REMARK    6  A    between atoms: C_19  and  C_22
REMARK    7  A    between atoms: C_20  and  C_23
REMARK    8  A    between atoms: C_28  and  C_29
REMARK                            x       y       z     vdW  Elec       q    Type
REMARK                         _______ _______ _______ _____ _____    ______ ____
ROOT
ATOM      8  N   UNL     1      -3.769  -0.304  24.436  0.00  0.00    -0.282 NA
ATOM     11  C   UNL     1      -2.594  -1.151  24.727  0.00  0.00    +0.149 C 
ATOM     12  C   UNL     1      -2.923  -2.514  24.089  0.00  0.00    +0.061 C 
ATOM     13  C   UNL     1      -4.321  -2.348  23.506  0.00  0.00    +0.130 C 
ATOM     14  C   UNL     1      -4.911  -1.208  24.315  0.00  0.00    +0.117 C 
ENDROOT
BRANCH  11  16
ATOM      5  O   UNL     1      -1.416   0.569  23.453  0.00  0.00    -0.336 OA
ATOM      9  N   UNL     1      -0.072  -0.974  24.364  0.00  0.00    -0.190 NA
ATOM     10  N   UNL     1      -0.111   0.924  23.088  0.00  0.00    -0.056 NA
ATOM     16  C   UNL     1      -1.303  -0.558  24.204  0.00  0.00    +0.245 A 
ATOM     19  C   UNL     1       0.624  -0.032  23.662  0.00  0.00    +0.202 A 
BRANCH  19  22
ATOM     22  C   UNL     1       2.053  -0.077  23.556  0.00  0.00    +0.022 A 
ATOM     24  C   UNL     1       2.754   1.035  23.090  0.00  0.00    +0.012 A 
ATOM     25  C   UNL     1       2.743  -1.234  23.920  0.00  0.00    +0.012 A 
ATOM     26  C   UNL     1       4.143   0.992  22.986  0.00  0.00    +0.013 A 
ATOM     27  C   UNL     1       4.134  -1.278  23.817  0.00  0.00    +0.013 A 
ATOM     28  C   UNL     1       4.833  -0.165  23.350  0.00  0.00    +0.055 A 
BRANCH  28  29
ATOM      1  F   UNL     1       6.767  -0.596  22.008  0.00  0.00    -0.166 F 
ATOM      2  F   UNL     1       6.883  -1.088  24.123  0.00  0.00    -0.166 F 
ATOM      3  F   UNL     1       6.925   0.989  23.481  0.00  0.00    -0.166 F 
ATOM     29  C   UNL     1       6.320  -0.212  23.240  0.00  0.00    +0.417 C 
ENDBRANCH  28  29
ENDBRANCH  19  22
ENDBRANCH  11  16
BRANCH  13   4
ATOM      4  O   UNL     1      -5.071  -3.538  23.652  0.00  0.00    -0.390 OA
ATOM     30  H   UNL     1      -5.811  -3.345  24.254  0.00  0.00    +0.210 HD
ENDBRANCH  13   4
BRANCH   8  15
ATOM     15  C   UNL     1      -3.993   0.730  25.438  0.00  0.00    +0.159 C 
BRANCH  15  17
ATOM      6  O   UNL     1      -2.757   2.825  25.493  0.00  0.00    -0.461 OA
ATOM     17  C   UNL     1      -3.738   2.108  24.888  0.00  0.00    +0.119 A 
ATOM     18  C   UNL     1      -4.304   2.830  23.863  0.00  0.00    +0.046 A 
ATOM     20  C   UNL     1      -2.695   4.020  24.849  0.00  0.00    +0.131 A 
ATOM     21  C   UNL     1      -3.626   4.073  23.838  0.00  0.00    +0.047 A 
BRANCH  20  23
ATOM     23  C   UNL     1      -1.689   4.973  25.341  0.00  0.00    +0.230 C 
BRANCH  23   7
ATOM      7  O   UNL     1      -0.472   4.831  24.603  0.00  0.00    -0.387 OA
ATOM     31  H   UNL     1       0.031   5.654  24.727  0.00  0.00    +0.210 HD
ENDBRANCH  23   7
ENDBRANCH  20  23
ENDBRANCH  15  17
ENDBRANCH   8  15
TORSDOF 8
ENDMDL
