MODEL 1
REMARK VINA RESULT:       4.0      0.000      0.000
REMARK  Name = 9423973
REMARK  5 active torsions:
REMARK  status: ('A' for Active; 'I' for Inactive)
REMARK    1  A    between atoms: O_5  and  C_22
REMARK    2  A    between atoms: O_5  and  C_27
REMARK    3  A    between atoms: N_7  and  C_10
REMARK    4  A    between atoms: C_17  and  C_22
REMARK    5  A    between atoms: C_20  and  C_23
REMARK                            x       y       z     vdW  Elec       q    Type
REMARK                         _______ _______ _______ _____ _____    ______ ____
ROOT
ATOM      2  O   UNL     1      -3.643   2.666  24.061  0.00  0.00    -0.273 OA
ATOM      3  O   UNL     1      -0.475  -1.258  25.760  0.00  0.00    -0.270 OA
ATOM      6  N   UNL     1      -2.237  -0.307  24.629  0.00  0.00    -0.284 N 
ATOM      8  N   UNL     1      -1.381   2.448  24.008  0.00  0.00    -0.283 N 
ATOM      9  C   UNL     1      -2.781   0.478  23.540  0.00  0.00    +0.164 C 
ATOM     10  C   UNL     1      -4.586  -0.561  24.776  0.00  0.00    +0.093 C 
ATOM     11  C   UNL     1      -4.224  -0.019  23.390  0.00  0.00    +0.055 C 
ATOM     12  C   UNL     1      -3.261  -1.124  25.270  0.00  0.00    +0.131 C 
ATOM     13  C   UNL     1      -2.658   1.936  23.933  0.00  0.00    +0.238 C 
ATOM     14  C   UNL     1      -0.900  -0.452  24.930  0.00  0.00    +0.249 C 
ATOM     15  C   UNL     1       0.079   0.421  24.233  0.00  0.00    +0.059 A 
ATOM     16  C   UNL     1      -0.147   1.769  23.909  0.00  0.00    +0.046 A 
ATOM     18  C   UNL     1       1.364  -0.125  24.055  0.00  0.00    +0.024 A 
ATOM     19  C   UNL     1       0.937   2.553  23.476  0.00  0.00    +0.024 A 
ATOM     20  C   UNL     1       2.416   0.657  23.579  0.00  0.00    -0.010 A 
ATOM     21  C   UNL     1       2.205   2.000  23.301  0.00  0.00    +0.011 A 
ATOM     29  H   UNL     1      -1.323   3.463  24.046  0.00  0.00    +0.155 HD
ENDROOT
BRANCH  20  23
ATOM      1  S   UNL     1       3.969  -1.565  23.822  0.00  0.00    -0.097 S 
ATOM     23  C   UNL     1       3.724   0.077  23.399  0.00  0.00    +0.019 A 
ATOM     24  C   UNL     1       4.874   0.660  22.912  0.00  0.00    +0.016 A 
ATOM     25  C   UNL     1       5.969  -0.252  22.888  0.00  0.00    +0.008 A 
ATOM     26  C   UNL     1       5.615  -1.498  23.356  0.00  0.00    +0.046 A 
ENDBRANCH  20  23
BRANCH  10   7
ATOM      4  O   UNL     1      -6.758   1.285  24.253  0.00  0.00    -0.273 OA
ATOM      7  N   UNL     1      -5.081   0.475  25.648  0.00  0.00    -0.309 N 
ATOM     17  C   UNL     1      -6.132   1.316  25.310  0.00  0.00    +0.239 C 
ATOM     28  H   UNL     1      -4.603   0.623  26.533  0.00  0.00    +0.149 HD
BRANCH  17  22
ATOM     22  C   UNL     1      -6.440   2.305  26.415  0.00  0.00    +0.255 C 
BRANCH  22   5
ATOM      5  O   UNL     1      -5.482   3.342  26.436  0.00  0.00    -0.374 OA
ATOM     27  C   UNL     1      -5.836   4.411  25.563  0.00  0.00    +0.194 C 
ENDBRANCH  22   5
ENDBRANCH  17  22
ENDBRANCH  10   7
TORSDOF 4
ENDMDL
MODEL 2
REMARK VINA RESULT:       4.5      3.331      8.577
REMARK  Name = 9423973
REMARK  5 active torsions:
REMARK  status: ('A' for Active; 'I' for Inactive)
REMARK    1  A    between atoms: O_5  and  C_22
REMARK    2  A    between atoms: O_5  and  C_27
REMARK    3  A    between atoms: N_7  and  C_10
REMARK    4  A    between atoms: C_17  and  C_22
REMARK    5  A    between atoms: C_20  and  C_23
REMARK                            x       y       z     vdW  Elec       q    Type
REMARK                         _______ _______ _______ _____ _____    ______ ____
ROOT
ATOM      2  O   UNL     1       2.151  -1.830  24.047  0.00  0.00    -0.273 OA
ATOM      3  O   UNL     1       0.110   3.049  24.634  0.00  0.00    -0.270 OA
ATOM      6  N   UNL     1       1.146   1.312  23.541  0.00  0.00    -0.284 N 
ATOM      8  N   UNL     1       0.125  -1.144  24.819  0.00  0.00    -0.283 N 
ATOM      9  C   UNL     1       1.123   0.017  22.891  0.00  0.00    +0.164 C 
ATOM     10  C   UNL     1       3.286   1.055  22.564  0.00  0.00    +0.093 C 
ATOM     11  C   UNL     1       2.322   0.044  21.936  0.00  0.00    +0.055 C 
ATOM     12  C   UNL     1       2.342   2.070  23.194  0.00  0.00    +0.131 C 
ATOM     13  C   UNL     1       1.213  -1.032  23.981  0.00  0.00    +0.238 C 
ATOM     14  C   UNL     1       0.104   1.882  24.241  0.00  0.00    +0.249 C 
ATOM     15  C   UNL     1      -1.079   1.040  24.556  0.00  0.00    +0.059 A 
ATOM     16  C   UNL     1      -1.017  -0.320  24.903  0.00  0.00    +0.046 A 
ATOM     18  C   UNL     1      -2.303   1.726  24.667  0.00  0.00    +0.024 A 
ATOM     19  C   UNL     1      -2.170  -0.941  25.415  0.00  0.00    +0.024 A 
ATOM     20  C   UNL     1      -3.447   1.080  25.133  0.00  0.00    -0.010 A 
ATOM     21  C   UNL     1      -3.378  -0.251  25.519  0.00  0.00    +0.011 A 
ATOM     29  H   UNL     1       0.102  -1.988  25.387  0.00  0.00    +0.155 HD
ENDROOT
BRANCH  20  23
ATOM      1  S   UNL     1      -4.655   3.483  25.551  0.00  0.00    -0.097 S 
ATOM     23  C   UNL     1      -4.693   1.800  25.235  0.00  0.00    +0.019 A 
ATOM     24  C   UNL     1      -5.982   1.328  25.112  0.00  0.00    +0.016 A 
ATOM     25  C   UNL     1      -6.949   2.361  25.279  0.00  0.00    +0.008 A 
ATOM     26  C   UNL     1      -6.363   3.584  25.524  0.00  0.00    +0.046 A 
ENDBRANCH  20  23
BRANCH  10   7
ATOM      4  O   UNL     1       5.989   0.082  22.181  0.00  0.00    -0.273 OA
ATOM      7  N   UNL     1       4.143   0.444  23.551  0.00  0.00    -0.309 N 
ATOM     17  C   UNL     1       5.431   0.006  23.273  0.00  0.00    +0.239 C 
ATOM     28  H   UNL     1       3.764   0.287  24.481  0.00  0.00    +0.149 HD
BRANCH  17  22
ATOM     22  C   UNL     1       6.098  -0.591  24.494  0.00  0.00    +0.255 C 
BRANCH  22   5
ATOM      5  O   UNL     1       5.876  -1.984  24.552  0.00  0.00    -0.374 OA
ATOM     27  C   UNL     1       4.750  -2.375  23.772  0.00  0.00    +0.194 C 
ENDBRANCH  22   5
ENDBRANCH  17  22
ENDBRANCH  10   7
TORSDOF 4
ENDMDL
MODEL 3
REMARK VINA RESULT:       5.8      1.732      3.023
REMARK  Name = 9423973
REMARK  5 active torsions:
REMARK  status: ('A' for Active; 'I' for Inactive)
REMARK    1  A    between atoms: O_5  and  C_22
REMARK    2  A    between atoms: O_5  and  C_27
REMARK    3  A    between atoms: N_7  and  C_10
REMARK    4  A    between atoms: C_17  and  C_22
REMARK    5  A    between atoms: C_20  and  C_23
REMARK                            x       y       z     vdW  Elec       q    Type
REMARK                         _______ _______ _______ _____ _____    ______ ____
ROOT
ATOM      2  O   UNL     1      -3.938   1.004  25.322  0.00  0.00    -0.273 OA
ATOM      3  O   UNL     1       0.188   3.762  23.403  0.00  0.00    -0.270 OA
ATOM      6  N   UNL     1      -1.426   3.165  24.927  0.00  0.00    -0.284 N 
ATOM      8  N   UNL     1      -1.969   0.308  24.424  0.00  0.00    -0.283 N 
ATOM      9  C   UNL     1      -1.974   2.264  25.920  0.00  0.00    +0.164 C 
ATOM     10  C   UNL     1      -3.250   4.322  25.895  0.00  0.00    +0.093 C 
ATOM     11  C   UNL     1      -2.855   3.154  26.805  0.00  0.00    +0.055 C 
ATOM     12  C   UNL     1      -2.016   4.495  25.020  0.00  0.00    +0.131 C 
ATOM     13  C   UNL     1      -2.727   1.180  25.175  0.00  0.00    +0.238 C 
ATOM     14  C   UNL     1      -0.344   2.908  24.113  0.00  0.00    +0.249 C 
ATOM     15  C   UNL     1       0.197   1.524  24.075  0.00  0.00    +0.059 A 
ATOM     16  C   UNL     1      -0.589   0.361  24.130  0.00  0.00    +0.046 A 
ATOM     18  C   UNL     1       1.572   1.415  23.795  0.00  0.00    +0.024 A 
ATOM     19  C   UNL     1       0.012  -0.877  23.839  0.00  0.00    +0.024 A 
ATOM     20  C   UNL     1       2.159   0.173  23.555  0.00  0.00    -0.010 A 
ATOM     21  C   UNL     1       1.376  -0.972  23.565  0.00  0.00    +0.011 A 
ATOM     29  H   UNL     1      -2.452  -0.535  24.122  0.00  0.00    +0.155 HD
ENDROOT
BRANCH  20  23
ATOM      1  S   UNL     1       4.447  -1.269  23.858  0.00  0.00    -0.097 S 
ATOM     23  C   UNL     1       3.571   0.082  23.275  0.00  0.00    +0.019 A 
ATOM     24  C   UNL     1       4.375   0.953  22.573  0.00  0.00    +0.016 A 
ATOM     25  C   UNL     1       5.727   0.506  22.515  0.00  0.00    +0.008 A 
ATOM     26  C   UNL     1       5.905  -0.690  23.173  0.00  0.00    +0.046 A 
ENDBRANCH  20  23
BRANCH  10   7
ATOM      4  O   UNL     1      -5.690   3.045  26.797  0.00  0.00    -0.273 OA
ATOM      7  N   UNL     1      -4.421   4.022  25.109  0.00  0.00    -0.309 N 
ATOM     17  C   UNL     1      -5.550   3.404  25.631  0.00  0.00    +0.239 C 
ATOM     28  H   UNL     1      -4.395   4.233  24.115  0.00  0.00    +0.149 HD
BRANCH  17  22
ATOM     22  C   UNL     1      -6.624   3.215  24.581  0.00  0.00    +0.255 C 
BRANCH  22   5
ATOM      5  O   UNL     1      -7.229   1.946  24.709  0.00  0.00    -0.374 OA
ATOM     27  C   UNL     1      -6.292   0.890  24.517  0.00  0.00    +0.194 C 
ENDBRANCH  22   5
ENDBRANCH  17  22
ENDBRANCH  10   7
TORSDOF 4
ENDMDL
MODEL 4
REMARK VINA RESULT:       7.9      1.121      1.250
REMARK  Name = 9423973
REMARK  5 active torsions:
REMARK  status: ('A' for Active; 'I' for Inactive)
REMARK    1  A    between atoms: O_5  and  C_22
REMARK    2  A    between atoms: O_5  and  C_27
REMARK    3  A    between atoms: N_7  and  C_10
REMARK    4  A    between atoms: C_17  and  C_22
REMARK    5  A    between atoms: C_20  and  C_23
REMARK                            x       y       z     vdW  Elec       q    Type
REMARK                         _______ _______ _______ _____ _____    ______ ____
ROOT
ATOM      2  O   UNL     1      -3.304   3.112  23.017  0.00  0.00    -0.273 OA
ATOM      3  O   UNL     1      -0.740  -0.523  25.938  0.00  0.00    -0.270 OA
ATOM      6  N   UNL     1      -2.311   0.270  24.457  0.00  0.00    -0.284 N 
ATOM      8  N   UNL     1      -1.087   2.647  23.208  0.00  0.00    -0.283 N 
ATOM      9  C   UNL     1      -2.697   0.785  23.159  0.00  0.00    +0.164 C 
ATOM     10  C   UNL     1      -4.677   0.317  24.472  0.00  0.00    +0.093 C 
ATOM     11  C   UNL     1      -4.181   0.423  23.027  0.00  0.00    +0.055 C 
ATOM     12  C   UNL     1      -3.459  -0.230  25.204  0.00  0.00    +0.131 C 
ATOM     13  C   UNL     1      -2.412   2.273  23.165  0.00  0.00    +0.238 C 
ATOM     14  C   UNL     1      -1.019   0.069  24.894  0.00  0.00    +0.249 C 
ATOM     15  C   UNL     1       0.096   0.613  24.075  0.00  0.00    +0.059 A 
ATOM     16  C   UNL     1       0.056   1.840  23.392  0.00  0.00    +0.046 A 
ATOM     18  C   UNL     1       1.310  -0.095  24.152  0.00  0.00    +0.024 A 
ATOM     19  C   UNL     1       1.250   2.357  22.859  0.00  0.00    +0.024 A 
ATOM     20  C   UNL     1       2.474   0.412  23.576  0.00  0.00    -0.010 A 
ATOM     21  C   UNL     1       2.447   1.645  22.940  0.00  0.00    +0.011 A 
ATOM     29  H   UNL     1      -0.905   3.623  22.983  0.00  0.00    +0.155 HD
ENDROOT
BRANCH  20  23
ATOM      1  S   UNL     1       5.193   0.505  23.497  0.00  0.00    -0.097 S 
ATOM     23  C   UNL     1       3.707  -0.331  23.662  0.00  0.00    +0.019 A 
ATOM     24  C   UNL     1       3.895  -1.680  23.869  0.00  0.00    +0.016 A 
ATOM     25  C   UNL     1       5.276  -2.031  23.891  0.00  0.00    +0.008 A 
ATOM     26  C   UNL     1       6.091  -0.937  23.701  0.00  0.00    +0.046 A 
ENDBRANCH  20  23
BRANCH  10   7
ATOM      4  O   UNL     1      -6.313   0.812  26.812  0.00  0.00    -0.273 OA
ATOM      7  N   UNL     1      -5.082   1.597  24.999  0.00  0.00    -0.309 N 
ATOM     17  C   UNL     1      -5.871   1.736  26.133  0.00  0.00    +0.239 C 
ATOM     28  H   UNL     1      -4.813   2.432  24.486  0.00  0.00    +0.149 HD
BRANCH  17  22
ATOM     22  C   UNL     1      -6.139   3.191  26.457  0.00  0.00    +0.255 C 
BRANCH  22   5
ATOM      5  O   UNL     1      -5.296   4.034  25.701  0.00  0.00    -0.374 OA
ATOM     27  C   UNL     1      -3.948   3.985  26.159  0.00  0.00    +0.194 C 
ENDBRANCH  22   5
ENDBRANCH  17  22
ENDBRANCH  10   7
TORSDOF 4
ENDMDL
