MODEL 1
REMARK VINA RESULT:      -5.6      0.000      0.000
REMARK  Name = 86769005
REMARK  7 active torsions:
REMARK  status: ('A' for Active; 'I' for Inactive)
REMARK    1  A    between atoms: O_3  and  C_10
REMARK    2  A    between atoms: N_5  and  C_9
REMARK    3  A    between atoms: N_5  and  C_14
REMARK    4  A    between atoms: N_6  and  C_13
REMARK    5  A    between atoms: C_11  and  C_13
REMARK    6  A    between atoms: C_14  and  C_15
REMARK    7  A    between atoms: C_16  and  C_18
REMARK                            x       y       z     vdW  Elec       q    Type
REMARK                         _______ _______ _______ _____ _____    ______ ____
ROOT
ATOM      2  O   UNL     1      -1.656  -2.620  23.854  0.00  0.00    -0.371 OA
ATOM      9  C   UNL     1      -0.055  -0.997  24.521  0.00  0.00    +0.111 C 
ATOM     10  C   UNL     1      -1.273  -0.889  25.420  0.00  0.00    +0.164 C 
ATOM     11  C   UNL     1      -1.904  -2.261  25.223  0.00  0.00    +0.165 C 
ATOM     12  C   UNL     1      -0.621  -1.765  23.337  0.00  0.00    +0.181 C 
ENDROOT
BRANCH  10   3
ATOM      3  O   UNL     1      -0.934  -0.654  26.773  0.00  0.00    -0.388 OA
ATOM     26  H   UNL     1      -0.653  -1.497  27.168  0.00  0.00    +0.210 HD
ENDBRANCH  10   3
BRANCH   9   5
ATOM      5  N   UNL     1       0.508   0.289  24.144  0.00  0.00    -0.304 NA
ATOM     25  H   UNL     1       1.259   0.139  23.471  0.00  0.00    +0.123 HD
BRANCH   5  14
ATOM     14  C   UNL     1      -0.504   1.149  23.543  0.00  0.00    +0.136 C 
BRANCH  14  15
ATOM      7  N   UNL     1      -1.133   2.338  25.676  0.00  0.00    -0.347 N 
ATOM      8  N   UNL     1      -0.995   4.493  25.161  0.00  0.00    -0.244 NA
ATOM     15  C   UNL     1      -0.751   2.386  24.365  0.00  0.00    +0.049 A 
ATOM     17  C   UNL     1      -0.672   3.726  24.070  0.00  0.00    +0.134 A 
ATOM     19  C   UNL     1      -1.268   3.627  26.111  0.00  0.00    +0.196 A 
ATOM     28  H   UNL     1      -1.289   1.504  26.226  0.00  0.00    +0.167 HD
ENDBRANCH  14  15
ENDBRANCH   5  14
ENDBRANCH   9   5
BRANCH  11  13
ATOM     13  C   UNL     1      -3.397  -2.279  25.495  0.00  0.00    +0.138 C 
BRANCH  13   6
ATOM      4  O   UNL     1      -4.002  -0.455  23.361  0.00  0.00    -0.270 OA
ATOM      6  N   UNL     1      -3.920  -0.949  25.627  0.00  0.00    -0.309 N 
ATOM     16  C   UNL     1      -4.184  -0.131  24.532  0.00  0.00    +0.244 C 
ATOM     27  H   UNL     1      -4.027  -0.595  26.571  0.00  0.00    +0.149 HD
BRANCH  16  18
ATOM      1  F   UNL     1      -6.127   5.008  25.685  0.00  0.00    -0.205 F 
ATOM     18  C   UNL     1      -4.698   1.228  24.837  0.00  0.00    +0.037 A 
ATOM     20  C   UNL     1      -4.175   2.338  24.172  0.00  0.00    +0.016 A 
ATOM     21  C   UNL     1      -5.704   1.397  25.789  0.00  0.00    +0.016 A 
ATOM     22  C   UNL     1      -4.657   3.614  24.459  0.00  0.00    +0.039 A 
ATOM     23  C   UNL     1      -6.187   2.674  26.075  0.00  0.00    +0.039 A 
ATOM     24  C   UNL     1      -5.663   3.783  25.411  0.00  0.00    +0.123 A 
ENDBRANCH  16  18
ENDBRANCH  13   6
ENDBRANCH  11  13
TORSDOF 7
ENDMDL
MODEL 2
REMARK VINA RESULT:      -5.5      1.987      2.968
REMARK  Name = 86769005
REMARK  7 active torsions:
REMARK  status: ('A' for Active; 'I' for Inactive)
REMARK    1  A    between atoms: O_3  and  C_10
REMARK    2  A    between atoms: N_5  and  C_9
REMARK    3  A    between atoms: N_5  and  C_14
REMARK    4  A    between atoms: N_6  and  C_13
REMARK    5  A    between atoms: C_11  and  C_13
REMARK    6  A    between atoms: C_14  and  C_15
REMARK    7  A    between atoms: C_16  and  C_18
REMARK                            x       y       z     vdW  Elec       q    Type
REMARK                         _______ _______ _______ _____ _____    ______ ____
ROOT
ATOM      2  O   UNL     1      -1.613  -2.679  23.878  0.00  0.00    -0.371 OA
ATOM      9  C   UNL     1       0.009  -1.013  24.363  0.00  0.00    +0.111 C 
ATOM     10  C   UNL     1      -1.187  -0.820  25.277  0.00  0.00    +0.164 C 
ATOM     11  C   UNL     1      -1.828  -2.200  25.215  0.00  0.00    +0.165 C 
ATOM     12  C   UNL     1      -0.588  -1.878  23.264  0.00  0.00    +0.181 C 
ENDROOT
BRANCH  10   3
ATOM      3  O   UNL     1      -0.815  -0.470  26.596  0.00  0.00    -0.388 OA
ATOM     26  H   UNL     1      -1.226  -1.105  27.208  0.00  0.00    +0.210 HD
ENDBRANCH  10   3
BRANCH   9   5
ATOM      5  N   UNL     1       0.568   0.232  23.863  0.00  0.00    -0.304 NA
ATOM     25  H   UNL     1       1.165   0.641  24.582  0.00  0.00    +0.123 HD
BRANCH   5  14
ATOM     14  C   UNL     1       1.360   0.007  22.660  0.00  0.00    +0.136 C 
BRANCH  14  15
ATOM      7  N   UNL     1       3.490  -1.030  23.527  0.00  0.00    -0.347 N 
ATOM      8  N   UNL     1       5.035   0.525  23.180  0.00  0.00    -0.244 NA
ATOM     15  C   UNL     1       2.837   0.023  22.950  0.00  0.00    +0.049 A 
ATOM     17  C   UNL     1       3.812   0.971  22.745  0.00  0.00    +0.134 A 
ATOM     19  C   UNL     1       4.806  -0.683  23.645  0.00  0.00    +0.196 A 
ATOM     28  H   UNL     1       3.077  -1.907  23.815  0.00  0.00    +0.167 HD
ENDBRANCH  14  15
ENDBRANCH   5  14
ENDBRANCH   9   5
BRANCH  11  13
ATOM     13  C   UNL     1      -3.314  -2.185  25.523  0.00  0.00    +0.138 C 
BRANCH  13   6
ATOM      4  O   UNL     1      -4.039  -0.414  23.382  0.00  0.00    -0.270 OA
ATOM      6  N   UNL     1      -3.808  -0.844  25.651  0.00  0.00    -0.309 N 
ATOM     16  C   UNL     1      -4.135  -0.054  24.553  0.00  0.00    +0.244 C 
ATOM     27  H   UNL     1      -3.845  -0.461  26.589  0.00  0.00    +0.149 HD
BRANCH  16  18
ATOM      1  F   UNL     1      -5.921   5.147  25.683  0.00  0.00    -0.205 F 
ATOM     18  C   UNL     1      -4.607   1.322  24.852  0.00  0.00    +0.037 A 
ATOM     20  C   UNL     1      -3.844   2.422  24.462  0.00  0.00    +0.016 A 
ATOM     21  C   UNL     1      -5.815   1.515  25.524  0.00  0.00    +0.016 A 
ATOM     22  C   UNL     1      -4.287   3.714  24.743  0.00  0.00    +0.039 A 
ATOM     23  C   UNL     1      -6.259   2.807  25.804  0.00  0.00    +0.039 A 
ATOM     24  C   UNL     1      -5.494   3.907  25.414  0.00  0.00    +0.123 A 
ENDBRANCH  16  18
ENDBRANCH  13   6
ENDBRANCH  11  13
TORSDOF 7
ENDMDL
MODEL 3
REMARK VINA RESULT:      -5.1      2.857      5.408
REMARK  Name = 86769005
REMARK  7 active torsions:
REMARK  status: ('A' for Active; 'I' for Inactive)
REMARK    1  A    between atoms: O_3  and  C_10
REMARK    2  A    between atoms: N_5  and  C_9
REMARK    3  A    between atoms: N_5  and  C_14
REMARK    4  A    between atoms: N_6  and  C_13
REMARK    5  A    between atoms: C_11  and  C_13
REMARK    6  A    between atoms: C_14  and  C_15
REMARK    7  A    between atoms: C_16  and  C_18
REMARK                            x       y       z     vdW  Elec       q    Type
REMARK                         _______ _______ _______ _____ _____    ______ ____
ROOT
ATOM      2  O   UNL     1      -0.337   4.174  24.030  0.00  0.00    -0.371 OA
ATOM      9  C   UNL     1      -1.483   4.105  26.110  0.00  0.00    +0.111 C 
ATOM     10  C   UNL     1      -0.772   2.782  25.893  0.00  0.00    +0.164 C 
ATOM     11  C   UNL     1       0.278   3.180  24.865  0.00  0.00    +0.165 C 
ATOM     12  C   UNL     1      -1.514   4.667  24.697  0.00  0.00    +0.181 C 
ENDROOT
BRANCH  10   3
ATOM      3  O   UNL     1      -0.187   2.275  27.076  0.00  0.00    -0.388 OA
ATOM     26  H   UNL     1      -0.191   2.981  27.745  0.00  0.00    +0.210 HD
ENDBRANCH  10   3
BRANCH   9   5
ATOM      5  N   UNL     1      -2.808   3.967  26.692  0.00  0.00    -0.304 NA
ATOM     25  H   UNL     1      -2.877   4.574  27.509  0.00  0.00    +0.123 HD
BRANCH   5  14
ATOM     14  C   UNL     1      -3.844   4.340  25.736  0.00  0.00    +0.136 C 
BRANCH  14  15
ATOM      7  N   UNL     1      -5.798   2.908  26.438  0.00  0.00    -0.347 N 
ATOM      8  N   UNL     1      -6.078   1.497  24.747  0.00  0.00    -0.244 NA
ATOM     15  C   UNL     1      -4.837   3.228  25.522  0.00  0.00    +0.049 A 
ATOM     17  C   UNL     1      -5.029   2.344  24.486  0.00  0.00    +0.134 A 
ATOM     19  C   UNL     1      -6.519   1.864  25.930  0.00  0.00    +0.196 A 
ATOM     28  H   UNL     1      -5.951   3.360  27.330  0.00  0.00    +0.167 HD
ENDBRANCH  14  15
ENDBRANCH   5  14
ENDBRANCH   9   5
BRANCH  11  13
ATOM     13  C   UNL     1       0.754   2.017  24.012  0.00  0.00    +0.138 C 
BRANCH  13   6
ATOM      4  O   UNL     1      -1.893   1.629  22.969  0.00  0.00    -0.270 OA
ATOM      6  N   UNL     1      -0.076   0.862  24.194  0.00  0.00    -0.309 N 
ATOM     16  C   UNL     1      -1.353   0.759  23.650  0.00  0.00    +0.244 C 
ATOM     27  H   UNL     1       0.282   0.136  24.805  0.00  0.00    +0.149 HD
BRANCH  16  18
ATOM      1  F   UNL     1      -4.163  -3.965  24.789  0.00  0.00    -0.205 F 
ATOM     18  C   UNL     1      -2.097  -0.491  23.951  0.00  0.00    +0.037 A 
ATOM     20  C   UNL     1      -3.461  -0.577  23.671  0.00  0.00    +0.016 A 
ATOM     21  C   UNL     1      -1.432  -1.580  24.515  0.00  0.00    +0.016 A 
ATOM     22  C   UNL     1      -4.159  -1.750  23.954  0.00  0.00    +0.039 A 
ATOM     23  C   UNL     1      -2.130  -2.754  24.798  0.00  0.00    +0.039 A 
ATOM     24  C   UNL     1      -3.494  -2.838  24.518  0.00  0.00    +0.123 A 
ENDBRANCH  16  18
ENDBRANCH  13   6
ENDBRANCH  11  13
TORSDOF 7
ENDMDL
MODEL 4
REMARK VINA RESULT:      -4.6      2.857      5.153
REMARK  Name = 86769005
REMARK  7 active torsions:
REMARK  status: ('A' for Active; 'I' for Inactive)
REMARK    1  A    between atoms: O_3  and  C_10
REMARK    2  A    between atoms: N_5  and  C_9
REMARK    3  A    between atoms: N_5  and  C_14
REMARK    4  A    between atoms: N_6  and  C_13
REMARK    5  A    between atoms: C_11  and  C_13
REMARK    6  A    between atoms: C_14  and  C_15
REMARK    7  A    between atoms: C_16  and  C_18
REMARK                            x       y       z     vdW  Elec       q    Type
REMARK                         _______ _______ _______ _____ _____    ______ ____
ROOT
ATOM      2  O   UNL     1      -3.562   3.814  26.864  0.00  0.00    -0.371 OA
ATOM      9  C   UNL     1      -1.962   4.433  25.221  0.00  0.00    +0.111 C 
ATOM     10  C   UNL     1      -3.233   3.978  24.527  0.00  0.00    +0.164 C 
ATOM     11  C   UNL     1      -4.252   4.141  25.647  0.00  0.00    +0.165 C 
ATOM     12  C   UNL     1      -2.146   3.839  26.607  0.00  0.00    +0.181 C 
ENDROOT
BRANCH  10   3
ATOM      3  O   UNL     1      -3.555   4.770  23.401  0.00  0.00    -0.388 OA
ATOM     26  H   UNL     1      -4.104   4.238  22.800  0.00  0.00    +0.210 HD
ENDBRANCH  10   3
BRANCH   9   5
ATOM      5  N   UNL     1      -0.746   3.979  24.567  0.00  0.00    -0.304 NA
ATOM     25  H   UNL     1      -0.113   4.772  24.454  0.00  0.00    +0.123 HD
BRANCH   5  14
ATOM     14  C   UNL     1      -0.079   2.949  25.354  0.00  0.00    +0.136 C 
BRANCH  14  15
ATOM      7  N   UNL     1       1.348   1.552  23.814  0.00  0.00    -0.347 N 
ATOM      8  N   UNL     1       0.160  -0.295  23.493  0.00  0.00    -0.244 NA
ATOM     15  C   UNL     1       0.203   1.714  24.540  0.00  0.00    +0.049 A 
ATOM     17  C   UNL     1      -0.515   0.561  24.326  0.00  0.00    +0.134 A 
ATOM     19  C   UNL     1       1.279   0.332  23.203  0.00  0.00    +0.196 A 
ATOM     28  H   UNL     1       2.111   2.213  23.740  0.00  0.00    +0.167 HD
ENDBRANCH  14  15
ENDBRANCH   5  14
ENDBRANCH   9   5
BRANCH  11  13
ATOM     13  C   UNL     1      -5.466   3.244  25.488  0.00  0.00    +0.138 C 
BRANCH  13   6
ATOM      4  O   UNL     1      -4.000   1.835  23.461  0.00  0.00    -0.270 OA
ATOM      6  N   UNL     1      -5.097   1.858  25.506  0.00  0.00    -0.309 N 
ATOM     16  C   UNL     1      -4.383   1.255  24.474  0.00  0.00    +0.244 C 
ATOM     27  H   UNL     1      -5.444   1.305  26.281  0.00  0.00    +0.149 HD
BRANCH  16  18
ATOM      1  F   UNL     1      -3.322  -4.227  25.062  0.00  0.00    -0.205 F 
ATOM     18  C   UNL     1      -4.103  -0.195  24.629  0.00  0.00    +0.037 A 
ATOM     20  C   UNL     1      -4.407  -1.080  23.595  0.00  0.00    +0.016 A 
ATOM     21  C   UNL     1      -3.535  -0.674  25.811  0.00  0.00    +0.016 A 
ATOM     22  C   UNL     1      -4.144  -2.442  23.740  0.00  0.00    +0.039 A 
ATOM     23  C   UNL     1      -3.271  -2.036  25.957  0.00  0.00    +0.039 A 
ATOM     24  C   UNL     1      -3.576  -2.920  24.922  0.00  0.00    +0.123 A 
ENDBRANCH  16  18
ENDBRANCH  13   6
ENDBRANCH  11  13
TORSDOF 7
ENDMDL
MODEL 5
REMARK VINA RESULT:      -4.1      2.177      3.387
REMARK  Name = 86769005
REMARK  7 active torsions:
REMARK  status: ('A' for Active; 'I' for Inactive)
REMARK    1  A    between atoms: O_3  and  C_10
REMARK    2  A    between atoms: N_5  and  C_9
REMARK    3  A    between atoms: N_5  and  C_14
REMARK    4  A    between atoms: N_6  and  C_13
REMARK    5  A    between atoms: C_11  and  C_13
REMARK    6  A    between atoms: C_14  and  C_15
REMARK    7  A    between atoms: C_16  and  C_18
REMARK                            x       y       z     vdW  Elec       q    Type
REMARK                         _______ _______ _______ _____ _____    ______ ____
ROOT
ATOM      2  O   UNL     1      -3.057  -2.405  24.249  0.00  0.00    -0.371 OA
ATOM      9  C   UNL     1      -0.798  -2.071  24.904  0.00  0.00    +0.111 C 
ATOM     10  C   UNL     1      -1.661  -0.994  25.536  0.00  0.00    +0.164 C 
ATOM     11  C   UNL     1      -3.037  -1.644  25.467  0.00  0.00    +0.165 C 
ATOM     12  C   UNL     1      -1.703  -2.566  23.788  0.00  0.00    +0.181 C 
ENDROOT
BRANCH  10   3
ATOM      3  O   UNL     1      -1.283  -0.700  26.867  0.00  0.00    -0.388 OA
ATOM     26  H   UNL     1      -1.436  -1.492  27.410  0.00  0.00    +0.210 HD
ENDBRANCH  10   3
BRANCH   9   5
ATOM      5  N   UNL     1       0.482  -1.582  24.420  0.00  0.00    -0.304 NA
ATOM     25  H   UNL     1       0.905  -2.294  23.824  0.00  0.00    +0.123 HD
BRANCH   5  14
ATOM     14  C   UNL     1       0.319  -0.354  23.650  0.00  0.00    +0.136 C 
BRANCH  14  15
ATOM      7  N   UNL     1       2.328   1.165  23.526  0.00  0.00    -0.347 N 
ATOM      8  N   UNL     1       3.488   0.396  21.796  0.00  0.00    -0.244 NA
ATOM     15  C   UNL     1       1.618   0.103  23.042  0.00  0.00    +0.049 A 
ATOM     17  C   UNL     1       2.353  -0.355  21.974  0.00  0.00    +0.134 A 
ATOM     19  C   UNL     1       3.443   1.303  22.747  0.00  0.00    +0.196 A 
ATOM     28  H   UNL     1       2.078   1.745  24.316  0.00  0.00    +0.167 HD
ENDBRANCH  14  15
ENDBRANCH   5  14
ENDBRANCH   9   5
BRANCH  11  13
ATOM     13  C   UNL     1      -4.175  -0.640  25.464  0.00  0.00    +0.138 C 
BRANCH  13   6
ATOM      4  O   UNL     1      -3.210   0.922  23.256  0.00  0.00    -0.270 OA
ATOM      6  N   UNL     1      -3.684   0.707  25.518  0.00  0.00    -0.309 N 
ATOM     16  C   UNL     1      -3.234   1.390  24.392  0.00  0.00    +0.244 C 
ATOM     27  H   UNL     1      -3.611   1.128  26.437  0.00  0.00    +0.149 HD
BRANCH  16  18
ATOM      1  F   UNL     1      -1.336   6.604  25.246  0.00  0.00    -0.205 F 
ATOM     18  C   UNL     1      -2.731   2.769  24.618  0.00  0.00    +0.037 A 
ATOM     20  C   UNL     1      -1.360   3.006  24.717  0.00  0.00    +0.016 A 
ATOM     21  C   UNL     1      -3.631   3.830  24.731  0.00  0.00    +0.016 A 
ATOM     22  C   UNL     1      -0.888   4.300  24.929  0.00  0.00    +0.039 A 
ATOM     23  C   UNL     1      -3.160   5.125  24.943  0.00  0.00    +0.039 A 
ATOM     24  C   UNL     1      -1.788   5.360  25.043  0.00  0.00    +0.123 A 
ENDBRANCH  16  18
ENDBRANCH  13   6
ENDBRANCH  11  13
TORSDOF 7
ENDMDL
MODEL 6
REMARK VINA RESULT:      -3.3     14.685     17.261
REMARK  Name = 86769005
REMARK  7 active torsions:
REMARK  status: ('A' for Active; 'I' for Inactive)
REMARK    1  A    between atoms: O_3  and  C_10
REMARK    2  A    between atoms: N_5  and  C_9
REMARK    3  A    between atoms: N_5  and  C_14
REMARK    4  A    between atoms: N_6  and  C_13
REMARK    5  A    between atoms: C_11  and  C_13
REMARK    6  A    between atoms: C_14  and  C_15
REMARK    7  A    between atoms: C_16  and  C_18
REMARK                            x       y       z     vdW  Elec       q    Type
REMARK                         _______ _______ _______ _____ _____    ______ ____
ROOT
ATOM      2  O   UNL     1      -6.213  -9.012  10.358  0.00  0.00    -0.371 OA
ATOM      9  C   UNL     1      -6.901  -9.619  12.549  0.00  0.00    +0.111 C 
ATOM     10  C   UNL     1      -5.500 -10.149  12.306  0.00  0.00    +0.164 C 
ATOM     11  C   UNL     1      -5.045  -9.258  11.158  0.00  0.00    +0.165 C 
ATOM     12  C   UNL     1      -7.377  -9.362  11.128  0.00  0.00    +0.181 C 
ENDROOT
BRANCH  10   3
ATOM      3  O   UNL     1      -4.662 -10.019  13.438  0.00  0.00    -0.388 OA
ATOM     26  H   UNL     1      -4.228  -9.150  13.399  0.00  0.00    +0.210 HD
ENDBRANCH  10   3
BRANCH   9   5
ATOM      5  N   UNL     1      -7.756 -10.543  13.274  0.00  0.00    -0.304 NA
ATOM     25  H   UNL     1      -7.209 -11.000  14.004  0.00  0.00    +0.123 HD
BRANCH   5  14
ATOM     14  C   UNL     1      -8.880  -9.848  13.889  0.00  0.00    +0.136 C 
BRANCH  14  15
ATOM      7  N   UNL     1      -7.485  -9.418  15.945  0.00  0.00    -0.347 N 
ATOM      8  N   UNL     1      -8.933  -9.536  17.623  0.00  0.00    -0.244 NA
ATOM     15  C   UNL     1      -8.696  -9.687  15.374  0.00  0.00    +0.049 A 
ATOM     17  C   UNL     1      -9.575  -9.755  16.430  0.00  0.00    +0.134 A 
ATOM     19  C   UNL     1      -7.675  -9.336  17.296  0.00  0.00    +0.196 A 
ATOM     28  H   UNL     1      -6.605  -9.300  15.459  0.00  0.00    +0.167 HD
ENDBRANCH  14  15
ENDBRANCH   5  14
ENDBRANCH   9   5
BRANCH  11  13
ATOM     13  C   UNL     1      -3.960  -9.888  10.303  0.00  0.00    +0.138 C 
BRANCH  13   6
ATOM      4  O   UNL     1      -1.918 -10.655  12.171  0.00  0.00    -0.270 OA
ATOM      6  N   UNL     1      -2.696  -9.240  10.503  0.00  0.00    -0.309 N 
ATOM     16  C   UNL     1      -1.762  -9.682  11.436  0.00  0.00    +0.244 C 
ATOM     27  H   UNL     1      -2.533  -8.389   9.977  0.00  0.00    +0.149 HD
BRANCH  16  18
ATOM      1  F   UNL     1       2.965  -6.679  11.833  0.00  0.00    -0.205 F 
ATOM     18  C   UNL     1      -0.512  -8.888  11.541  0.00  0.00    +0.037 A 
ATOM     20  C   UNL     1      -0.401  -7.884  12.503  0.00  0.00    +0.016 A 
ATOM     21  C   UNL     1       0.553  -9.145  10.677  0.00  0.00    +0.016 A 
ATOM     22  C   UNL     1       0.772  -7.137  12.601  0.00  0.00    +0.039 A 
ATOM     23  C   UNL     1       1.728  -8.399  10.776  0.00  0.00    +0.039 A 
ATOM     24  C   UNL     1       1.837  -7.395  11.738  0.00  0.00    +0.123 A 
ENDBRANCH  16  18
ENDBRANCH  13   6
ENDBRANCH  11  13
TORSDOF 7
ENDMDL
MODEL 7
REMARK VINA RESULT:      -3.1      2.796      5.389
REMARK  Name = 86769005
REMARK  7 active torsions:
REMARK  status: ('A' for Active; 'I' for Inactive)
REMARK    1  A    between atoms: O_3  and  C_10
REMARK    2  A    between atoms: N_5  and  C_9
REMARK    3  A    between atoms: N_5  and  C_14
REMARK    4  A    between atoms: N_6  and  C_13
REMARK    5  A    between atoms: C_11  and  C_13
REMARK    6  A    between atoms: C_14  and  C_15
REMARK    7  A    between atoms: C_16  and  C_18
REMARK                            x       y       z     vdW  Elec       q    Type
REMARK                         _______ _______ _______ _____ _____    ______ ____
ROOT
ATOM      2  O   UNL     1      -4.816   3.560  26.515  0.00  0.00    -0.371 OA
ATOM      9  C   UNL     1      -3.421   4.654  24.933  0.00  0.00    +0.111 C 
ATOM     10  C   UNL     1      -3.910   3.345  24.340  0.00  0.00    +0.164 C 
ATOM     11  C   UNL     1      -5.136   3.073  25.201  0.00  0.00    +0.165 C 
ATOM     12  C   UNL     1      -3.670   4.425  26.415  0.00  0.00    +0.181 C 
ENDROOT
BRANCH  10   3
ATOM      3  O   UNL     1      -4.242   3.456  22.970  0.00  0.00    -0.388 OA
ATOM     26  H   UNL     1      -3.421   3.406  22.451  0.00  0.00    +0.210 HD
ENDBRANCH  10   3
BRANCH   9   5
ATOM      5  N   UNL     1      -2.030   4.947  24.631  0.00  0.00    -0.304 NA
ATOM     25  H   UNL     1      -1.844   5.928  24.841  0.00  0.00    +0.123 HD
BRANCH   5  14
ATOM     14  C   UNL     1      -1.133   4.115  25.424  0.00  0.00    +0.136 C 
BRANCH  14  15
ATOM      7  N   UNL     1      -1.396   2.358  23.635  0.00  0.00    -0.347 N 
ATOM      8  N   UNL     1       0.409   1.083  23.851  0.00  0.00    -0.244 NA
ATOM     15  C   UNL     1      -0.680   2.896  24.666  0.00  0.00    +0.049 A 
ATOM     17  C   UNL     1       0.430   2.093  24.781  0.00  0.00    +0.134 A 
ATOM     19  C   UNL     1      -0.704   1.272  23.177  0.00  0.00    +0.196 A 
ATOM     28  H   UNL     1      -2.278   2.698  23.274  0.00  0.00    +0.167 HD
ENDBRANCH  14  15
ENDBRANCH   5  14
ENDBRANCH   9   5
BRANCH  11  13
ATOM     13  C   UNL     1      -5.504   1.603  25.274  0.00  0.00    +0.138 C 
BRANCH  13   6
ATOM      4  O   UNL     1      -4.998  -0.856  23.880  0.00  0.00    -0.270 OA
ATOM      6  N   UNL     1      -4.337   0.777  25.391  0.00  0.00    -0.309 N 
ATOM     16  C   UNL     1      -4.175  -0.405  24.674  0.00  0.00    +0.244 C 
ATOM     27  H   UNL     1      -3.650   1.056  26.082  0.00  0.00    +0.149 HD
BRANCH  16  18
ATOM      1  F   UNL     1       0.563  -3.260  25.627  0.00  0.00    -0.205 F 
ATOM     18  C   UNL     1      -2.922  -1.160  24.926  0.00  0.00    +0.037 A 
ATOM     20  C   UNL     1      -1.959  -0.645  25.794  0.00  0.00    +0.016 A 
ATOM     21  C   UNL     1      -2.706  -2.385  24.295  0.00  0.00    +0.016 A 
ATOM     22  C   UNL     1      -0.782  -1.353  26.031  0.00  0.00    +0.039 A 
ATOM     23  C   UNL     1      -1.529  -3.095  24.532  0.00  0.00    +0.039 A 
ATOM     24  C   UNL     1      -0.566  -2.578  25.399  0.00  0.00    +0.123 A 
ENDBRANCH  16  18
ENDBRANCH  13   6
ENDBRANCH  11  13
TORSDOF 7
ENDMDL
MODEL 8
REMARK VINA RESULT:      -2.8      3.211      6.502
REMARK  Name = 86769005
REMARK  7 active torsions:
REMARK  status: ('A' for Active; 'I' for Inactive)
REMARK    1  A    between atoms: O_3  and  C_10
REMARK    2  A    between atoms: N_5  and  C_9
REMARK    3  A    between atoms: N_5  and  C_14
REMARK    4  A    between atoms: N_6  and  C_13
REMARK    5  A    between atoms: C_11  and  C_13
REMARK    6  A    between atoms: C_14  and  C_15
REMARK    7  A    between atoms: C_16  and  C_18
REMARK                            x       y       z     vdW  Elec       q    Type
REMARK                         _______ _______ _______ _____ _____    ______ ____
ROOT
ATOM      2  O   UNL     1      -3.093   3.572  23.403  0.00  0.00    -0.371 OA
ATOM      9  C   UNL     1      -4.988   2.648  24.497  0.00  0.00    +0.111 C 
ATOM     10  C   UNL     1      -3.977   3.084  25.542  0.00  0.00    +0.164 C 
ATOM     11  C   UNL     1      -3.144   4.080  24.745  0.00  0.00    +0.165 C 
ATOM     12  C   UNL     1      -4.121   2.577  23.250  0.00  0.00    +0.181 C 
ENDROOT
BRANCH  10   3
ATOM      3  O   UNL     1      -4.582   3.685  26.670  0.00  0.00    -0.388 OA
ATOM     26  H   UNL     1      -3.879   3.954  27.286  0.00  0.00    +0.210 HD
ENDBRANCH  10   3
BRANCH   9   5
ATOM      5  N   UNL     1      -5.639   1.386  24.806  0.00  0.00    -0.304 NA
ATOM     25  H   UNL     1      -5.710   0.831  23.953  0.00  0.00    +0.123 HD
BRANCH   5  14
ATOM     14  C   UNL     1      -4.881   0.634  25.799  0.00  0.00    +0.136 C 
BRANCH  14  15
ATOM      7  N   UNL     1      -2.955  -0.990  25.694  0.00  0.00    -0.347 N 
ATOM      8  N   UNL     1      -3.381  -2.229  23.902  0.00  0.00    -0.244 NA
ATOM     15  C   UNL     1      -4.126  -0.512  25.180  0.00  0.00    +0.049 A 
ATOM     17  C   UNL     1      -4.370  -1.292  24.074  0.00  0.00    +0.134 A 
ATOM     19  C   UNL     1      -2.545  -2.020  24.895  0.00  0.00    +0.196 A 
ATOM     28  H   UNL     1      -2.475  -0.647  26.517  0.00  0.00    +0.167 HD
ENDBRANCH  14  15
ENDBRANCH   5  14
ENDBRANCH   9   5
BRANCH  11  13
ATOM     13  C   UNL     1      -1.736   4.251  25.284  0.00  0.00    +0.138 C 
BRANCH  13   6
ATOM      4  O   UNL     1      -1.188   1.472  25.757  0.00  0.00    -0.270 OA
ATOM      6  N   UNL     1      -0.800   3.429  24.572  0.00  0.00    -0.309 N 
ATOM     16  C   UNL     1      -0.598   2.085  24.871  0.00  0.00    +0.244 C 
ATOM     27  H   UNL     1      -0.230   3.892  23.873  0.00  0.00    +0.149 HD
BRANCH  16  18
ATOM      1  F   UNL     1       3.270  -0.585  21.800  0.00  0.00    -0.205 F 
ATOM     18  C   UNL     1       0.425   1.378  24.058  0.00  0.00    +0.037 A 
ATOM     20  C   UNL     1       0.133   0.136  23.495  0.00  0.00    +0.016 A 
ATOM     21  C   UNL     1       1.679   1.957  23.859  0.00  0.00    +0.016 A 
ATOM     22  C   UNL     1       1.093  -0.528  22.733  0.00  0.00    +0.039 A 
ATOM     23  C   UNL     1       2.640   1.293  23.096  0.00  0.00    +0.039 A 
ATOM     24  C   UNL     1       2.347   0.051  22.533  0.00  0.00    +0.123 A 
ENDBRANCH  16  18
ENDBRANCH  13   6
ENDBRANCH  11  13
TORSDOF 7
ENDMDL
MODEL 9
REMARK VINA RESULT:      -2.4      3.032      6.115
REMARK  Name = 86769005
REMARK  7 active torsions:
REMARK  status: ('A' for Active; 'I' for Inactive)
REMARK    1  A    between atoms: O_3  and  C_10
REMARK    2  A    between atoms: N_5  and  C_9
REMARK    3  A    between atoms: N_5  and  C_14
REMARK    4  A    between atoms: N_6  and  C_13
REMARK    5  A    between atoms: C_11  and  C_13
REMARK    6  A    between atoms: C_14  and  C_15
REMARK    7  A    between atoms: C_16  and  C_18
REMARK                            x       y       z     vdW  Elec       q    Type
REMARK                         _______ _______ _______ _____ _____    ______ ____
ROOT
ATOM      2  O   UNL     1      -3.116   4.796  23.946  0.00  0.00    -0.371 OA
ATOM      9  C   UNL     1      -4.630   3.911  25.548  0.00  0.00    +0.111 C 
ATOM     10  C   UNL     1      -3.212   3.750  26.065  0.00  0.00    +0.164 C 
ATOM     11  C   UNL     1      -2.477   4.792  25.232  0.00  0.00    +0.165 C 
ATOM     12  C   UNL     1      -4.387   4.130  24.064  0.00  0.00    +0.181 C 
ENDROOT
BRANCH  10   3
ATOM      3  O   UNL     1      -3.103   4.009  27.451  0.00  0.00    -0.388 OA
ATOM     26  H   UNL     1      -2.522   4.779  27.572  0.00  0.00    +0.210 HD
ENDBRANCH  10   3
BRANCH   9   5
ATOM      5  N   UNL     1      -5.483   2.765  25.818  0.00  0.00    -0.304 NA
ATOM     25  H   UNL     1      -6.394   3.097  26.136  0.00  0.00    +0.123 HD
BRANCH   5  14
ATOM     14  C   UNL     1      -5.665   1.952  24.622  0.00  0.00    +0.136 C 
BRANCH  14  15
ATOM      7  N   UNL     1      -4.625  -0.007  25.821  0.00  0.00    -0.347 N 
ATOM      8  N   UNL     1      -3.551  -1.117  24.226  0.00  0.00    -0.244 NA
ATOM     15  C   UNL     1      -4.842   0.692  24.669  0.00  0.00    +0.049 A 
ATOM     17  C   UNL     1      -4.170  -0.012  23.697  0.00  0.00    +0.134 A 
ATOM     19  C   UNL     1      -3.845  -1.085  25.507  0.00  0.00    +0.196 A 
ATOM     28  H   UNL     1      -4.975   0.226  26.741  0.00  0.00    +0.167 HD
ENDBRANCH  14  15
ENDBRANCH   5  14
ENDBRANCH   9   5
BRANCH  11  13
ATOM     13  C   UNL     1      -0.998   4.495  25.069  0.00  0.00    +0.138 C 
BRANCH  13   6
ATOM      4  O   UNL     1      -1.472   2.383  23.182  0.00  0.00    -0.270 OA
ATOM      6  N   UNL     1      -0.721   3.100  25.258  0.00  0.00    -0.309 N 
ATOM     16  C   UNL     1      -0.985   2.141  24.284  0.00  0.00    +0.244 C 
ATOM     27  H   UNL     1      -0.383   2.823  26.173  0.00  0.00    +0.149 HD
BRANCH  16  18
ATOM      1  F   UNL     1       0.220  -3.172  25.639  0.00  0.00    -0.205 F 
ATOM     18  C   UNL     1      -0.666   0.735  24.642  0.00  0.00    +0.037 A 
ATOM     20  C   UNL     1      -0.089  -0.112  23.697  0.00  0.00    +0.016 A 
ATOM     21  C   UNL     1      -0.944   0.262  25.925  0.00  0.00    +0.016 A 
ATOM     22  C   UNL     1       0.210  -1.432  24.033  0.00  0.00    +0.039 A 
ATOM     23  C   UNL     1      -0.645  -1.058  26.262  0.00  0.00    +0.039 A 
ATOM     24  C   UNL     1      -0.068  -1.905  25.316  0.00  0.00    +0.123 A 
ENDBRANCH  16  18
ENDBRANCH  13   6
ENDBRANCH  11  13
TORSDOF 7
ENDMDL
MODEL 10
REMARK VINA RESULT:      -2.2     15.857     17.992
REMARK  Name = 86769005
REMARK  7 active torsions:
REMARK  status: ('A' for Active; 'I' for Inactive)
REMARK    1  A    between atoms: O_3  and  C_10
REMARK    2  A    between atoms: N_5  and  C_9
REMARK    3  A    between atoms: N_5  and  C_14
REMARK    4  A    between atoms: N_6  and  C_13
REMARK    5  A    between atoms: C_11  and  C_13
REMARK    6  A    between atoms: C_14  and  C_15
REMARK    7  A    between atoms: C_16  and  C_18
REMARK                            x       y       z     vdW  Elec       q    Type
REMARK                         _______ _______ _______ _____ _____    ______ ____
ROOT
ATOM      2  O   UNL     1      -5.112  -8.205   9.733  0.00  0.00    -0.371 OA
ATOM      9  C   UNL     1      -7.122  -8.983  10.732  0.00  0.00    +0.111 C 
ATOM     10  C   UNL     1      -6.058 -10.058  10.858  0.00  0.00    +0.164 C 
ATOM     11  C   UNL     1      -4.788  -9.236  10.680  0.00  0.00    +0.165 C 
ATOM     12  C   UNL     1      -6.544  -8.116   9.625  0.00  0.00    +0.181 C 
ENDROOT
BRANCH  10   3
ATOM      3  O   UNL     1      -6.089 -10.714  12.111  0.00  0.00    -0.388 OA
ATOM     26  H   UNL     1      -5.920 -10.055  12.805  0.00  0.00    +0.210 HD
ENDBRANCH  10   3
BRANCH   9   5
ATOM      5  N   UNL     1      -8.441  -9.504  10.413  0.00  0.00    -0.304 NA
ATOM     25  H   UNL     1      -8.412  -9.942   9.492  0.00  0.00    +0.123 HD
BRANCH   5  14
ATOM     14  C   UNL     1      -8.867 -10.493  11.395  0.00  0.00    +0.136 C 
BRANCH  14  15
ATOM      7  N   UNL     1      -8.736  -9.743  13.800  0.00  0.00    -0.347 N 
ATOM      8  N   UNL     1     -10.711  -8.808  14.189  0.00  0.00    -0.244 NA
ATOM     15  C   UNL     1      -9.436  -9.848  12.631  0.00  0.00    +0.049 A 
ATOM     17  C   UNL     1     -10.652  -9.264  12.896  0.00  0.00    +0.134 A 
ATOM     19  C   UNL     1      -9.541  -9.112  14.706  0.00  0.00    +0.196 A 
ATOM     28  H   UNL     1      -7.793 -10.071  13.967  0.00  0.00    +0.167 HD
ENDBRANCH  14  15
ENDBRANCH   5  14
ENDBRANCH   9   5
BRANCH  11  13
ATOM     13  C   UNL     1      -3.613 -10.050  10.171  0.00  0.00    +0.138 C 
BRANCH  13   6
ATOM      4  O   UNL     1      -1.931 -10.258  12.490  0.00  0.00    -0.270 OA
ATOM      6  N   UNL     1      -2.370  -9.367  10.392  0.00  0.00    -0.309 N 
ATOM     16  C   UNL     1      -1.618  -9.528  11.552  0.00  0.00    +0.244 C 
ATOM     27  H   UNL     1      -2.089  -8.696   9.687  0.00  0.00    +0.149 HD
BRANCH  16  18
ATOM      1  F   UNL     1       3.107  -6.515  11.886  0.00  0.00    -0.205 F 
ATOM     18  C   UNL     1      -0.368  -8.731  11.640  0.00  0.00    +0.037 A 
ATOM     20  C   UNL     1       0.678  -8.972  10.749  0.00  0.00    +0.016 A 
ATOM     21  C   UNL     1      -0.239  -7.741  12.615  0.00  0.00    +0.016 A 
ATOM     22  C   UNL     1       1.852  -8.224  10.832  0.00  0.00    +0.039 A 
ATOM     23  C   UNL     1       0.935  -6.992  12.698  0.00  0.00    +0.039 A 
ATOM     24  C   UNL     1       1.981  -7.234  11.807  0.00  0.00    +0.123 A 
ENDBRANCH  16  18
ENDBRANCH  13   6
ENDBRANCH  11  13
TORSDOF 7
ENDMDL
