MODEL 1
REMARK VINA RESULT:      -4.3      0.000      0.000
REMARK  Name = 11943404
REMARK  4 active torsions:
REMARK  status: ('A' for Active; 'I' for Inactive)
REMARK    1  A    between atoms: N_3  and  C_11
REMARK    2  A    between atoms: C_5  and  C_11
REMARK    3  A    between atoms: C_7  and  C_12
REMARK    4  A    between atoms: C_13  and  C_15
REMARK                            x       y       z     vdW  Elec       q    Type
REMARK                         _______ _______ _______ _____ _____    ______ ____
ROOT
ATOM      1  O   UNL     1      -5.337 -10.162  14.969  0.00  0.00    -0.270 OA
ATOM      3  N   UNL     1      -6.869 -10.653  13.303  0.00  0.00    -0.310 N 
ATOM     13  C   UNL     1      -6.489 -10.352  14.586  0.00  0.00    +0.244 C 
ATOM     25  H   UNL     1      -7.830 -10.875  13.068  0.00  0.00    +0.149 HD
ENDROOT
BRANCH  13  15
ATOM     15  C   UNL     1      -7.600 -10.285  15.570  0.00  0.00    +0.037 A 
ATOM     16  C   UNL     1      -7.336 -10.564  16.894  0.00  0.00    +0.021 A 
ATOM     17  C   UNL     1      -8.859  -9.946  15.126  0.00  0.00    +0.013 A 
ATOM     18  C   UNL     1      -8.376 -10.504  17.835  0.00  0.00    -0.017 A 
ATOM     19  C   UNL     1      -9.680 -10.158  17.406  0.00  0.00    -0.018 A 
ATOM     20  C   UNL     1      -9.903  -9.881  16.048  0.00  0.00    +0.009 A 
ATOM     21  C   UNL     1      -8.152 -10.781  19.194  0.00  0.00    +0.008 A 
ATOM     22  C   UNL     1     -10.720 -10.098  18.347  0.00  0.00    +0.008 A 
ATOM     23  C   UNL     1      -9.197 -10.717  20.116  0.00  0.00    +0.001 A 
ATOM     24  C   UNL     1     -10.479 -10.376  19.693  0.00  0.00    +0.001 A 
ENDBRANCH  13  15
BRANCH   3  11
ATOM     11  C   UNL     1      -5.881 -10.781  12.219  0.00  0.00    +0.123 C 
BRANCH  11   5
ATOM      2  N   UNL     1      -6.022 -10.384   9.747  0.00  0.00    -0.297 NA
ATOM      4  C   UNL     1      -4.969  -8.007   9.863  0.00  0.00    +0.008 C 
ATOM      5  C   UNL     1      -6.233  -9.799  11.099  0.00  0.00    +0.074 C 
ATOM      6  C   UNL     1      -5.474  -8.463  11.248  0.00  0.00    +0.025 C 
ATOM      7  C   UNL     1      -3.947  -9.039   9.335  0.00  0.00    +0.081 C 
ATOM      8  C   UNL     1      -6.173  -8.036   8.903  0.00  0.00    +0.020 C 
ATOM      9  C   UNL     1      -4.572 -10.447   9.435  0.00  0.00    +0.101 C 
ATOM     10  C   UNL     1      -6.669  -9.486   8.758  0.00  0.00    +0.085 C 
BRANCH   7  12
ATOM     12  C   UNL     1      -2.665  -8.964  10.053  0.00  0.00    -0.101 C 
ATOM     14  C   UNL     1      -1.620  -8.905  10.640  0.00  0.00    +0.004 C 
ENDBRANCH   7  12
ENDBRANCH  11   5
ENDBRANCH   3  11
TORSDOF 4
ENDMDL
MODEL 2
REMARK VINA RESULT:      -3.4      2.034      3.319
REMARK  Name = 11943404
REMARK  4 active torsions:
REMARK  status: ('A' for Active; 'I' for Inactive)
REMARK    1  A    between atoms: N_3  and  C_11
REMARK    2  A    between atoms: C_5  and  C_11
REMARK    3  A    between atoms: C_7  and  C_12
REMARK    4  A    between atoms: C_13  and  C_15
REMARK                            x       y       z     vdW  Elec       q    Type
REMARK                         _______ _______ _______ _____ _____    ______ ____
ROOT
ATOM      1  O   UNL     1      -4.384 -10.338  12.991  0.00  0.00    -0.270 OA
ATOM      3  N   UNL     1      -6.631 -10.150  12.462  0.00  0.00    -0.310 N 
ATOM     13  C   UNL     1      -5.566 -10.271  13.318  0.00  0.00    +0.244 C 
ATOM     25  H   UNL     1      -7.589 -10.179  12.792  0.00  0.00    +0.149 HD
ENDROOT
BRANCH  13  15
ATOM     15  C   UNL     1      -5.926 -10.351  14.758  0.00  0.00    +0.037 A 
ATOM     16  C   UNL     1      -7.258 -10.426  15.109  0.00  0.00    +0.021 A 
ATOM     17  C   UNL     1      -4.917 -10.347  15.694  0.00  0.00    +0.013 A 
ATOM     18  C   UNL     1      -7.612 -10.502  16.465  0.00  0.00    -0.017 A 
ATOM     19  C   UNL     1      -6.595 -10.501  17.449  0.00  0.00    -0.018 A 
ATOM     20  C   UNL     1      -5.252 -10.423  17.046  0.00  0.00    +0.009 A 
ATOM     21  C   UNL     1      -8.955 -10.580  16.868  0.00  0.00    +0.008 A 
ATOM     22  C   UNL     1      -6.949 -10.577  18.805  0.00  0.00    +0.008 A 
ATOM     23  C   UNL     1      -9.291 -10.655  18.220  0.00  0.00    +0.001 A 
ATOM     24  C   UNL     1      -8.290 -10.654  19.187  0.00  0.00    +0.001 A 
ENDBRANCH  13  15
BRANCH   3  11
ATOM     11  C   UNL     1      -6.441 -10.086  11.004  0.00  0.00    +0.123 C 
BRANCH  11   5
ATOM      2  N   UNL     1      -7.695 -10.448   8.863  0.00  0.00    -0.297 NA
ATOM      4  C   UNL     1      -9.310  -8.440   9.231  0.00  0.00    +0.008 C 
ATOM      5  C   UNL     1      -7.806 -10.144  10.315  0.00  0.00    +0.074 C 
ATOM      6  C   UNL     1      -8.623  -8.855  10.549  0.00  0.00    +0.025 C 
ATOM      7  C   UNL     1      -8.226  -8.094   8.186  0.00  0.00    +0.081 C 
ATOM      8  C   UNL     1     -10.066  -9.673   8.701  0.00  0.00    +0.020 C 
ATOM      9  C   UNL     1      -7.211  -9.255   8.124  0.00  0.00    +0.101 C 
ATOM     10  C   UNL     1      -9.052 -10.781   8.364  0.00  0.00    +0.085 C 
BRANCH   7  12
ATOM     12  C   UNL     1      -7.564  -6.813   8.482  0.00  0.00    -0.101 C 
ATOM     14  C   UNL     1      -7.025  -5.767   8.722  0.00  0.00    +0.004 C 
ENDBRANCH   7  12
ENDBRANCH  11   5
ENDBRANCH   3  11
TORSDOF 4
ENDMDL
MODEL 3
REMARK VINA RESULT:      -1.0     15.634     17.769
REMARK  Name = 11943404
REMARK  4 active torsions:
REMARK  status: ('A' for Active; 'I' for Inactive)
REMARK    1  A    between atoms: N_3  and  C_11
REMARK    2  A    between atoms: C_5  and  C_11
REMARK    3  A    between atoms: C_7  and  C_12
REMARK    4  A    between atoms: C_13  and  C_15
REMARK                            x       y       z     vdW  Elec       q    Type
REMARK                         _______ _______ _______ _____ _____    ______ ____
ROOT
ATOM      1  O   UNL     1      -0.920  -1.891  24.275  0.00  0.00    -0.270 OA
ATOM      3  N   UNL     1      -1.661   0.209  23.636  0.00  0.00    -0.310 N 
ATOM     13  C   UNL     1      -0.708  -0.748  23.877  0.00  0.00    +0.244 C 
ATOM     25  H   UNL     1      -1.414   1.159  23.384  0.00  0.00    +0.149 HD
ENDROOT
BRANCH  13  15
ATOM     15  C   UNL     1       0.693  -0.308  23.648  0.00  0.00    +0.037 A 
ATOM     16  C   UNL     1       1.718  -1.201  23.880  0.00  0.00    +0.021 A 
ATOM     17  C   UNL     1       0.921   0.977  23.210  0.00  0.00    +0.013 A 
ATOM     18  C   UNL     1       3.047  -0.800  23.668  0.00  0.00    -0.017 A 
ATOM     19  C   UNL     1       3.310   0.516  23.217  0.00  0.00    -0.018 A 
ATOM     20  C   UNL     1       2.235   1.391  22.992  0.00  0.00    +0.009 A 
ATOM     21  C   UNL     1       4.121  -1.676  23.892  0.00  0.00    +0.008 A 
ATOM     22  C   UNL     1       4.638   0.916  23.004  0.00  0.00    +0.008 A 
ATOM     23  C   UNL     1       5.436  -1.262  23.675  0.00  0.00    +0.001 A 
ATOM     24  C   UNL     1       5.694   0.033  23.232  0.00  0.00    +0.001 A 
ENDBRANCH  13  15
BRANCH   3  11
ATOM     11  C   UNL     1      -3.092  -0.064  23.842  0.00  0.00    +0.123 C 
BRANCH  11   5
ATOM      2  N   UNL     1      -3.403   2.367  23.314  0.00  0.00    -0.297 NA
ATOM      4  C   UNL     1      -3.345   3.124  25.803  0.00  0.00    +0.008 C 
ATOM      5  C   UNL     1      -3.807   1.241  24.198  0.00  0.00    +0.074 C 
ATOM      6  C   UNL     1      -3.620   1.611  25.686  0.00  0.00    +0.025 C 
ATOM      7  C   UNL     1      -2.011   3.451  25.095  0.00  0.00    +0.081 C 
ATOM      8  C   UNL     1      -4.455   3.855  25.025  0.00  0.00    +0.020 C 
ATOM      9  C   UNL     1      -2.044   2.842  23.677  0.00  0.00    +0.101 C 
ATOM     10  C   UNL     1      -4.356   3.483  23.535  0.00  0.00    +0.085 C 
BRANCH   7  12
ATOM     12  C   UNL     1      -0.849   2.973  25.861  0.00  0.00    -0.101 C 
ATOM     14  C   UNL     1       0.098   2.581  26.487  0.00  0.00    +0.004 C 
ENDBRANCH   7  12
ENDBRANCH  11   5
ENDBRANCH   3  11
TORSDOF 4
ENDMDL
