MODEL 1
REMARK VINA RESULT:       5.4      0.000      0.000
REMARK  Name = 7164880
REMARK  12 active torsions:
REMARK  status: ('A' for Active; 'I' for Inactive)
REMARK    1  A    between atoms: S_1  and  N_10
REMARK    2  A    between atoms: S_1  and  C_19
REMARK    3  A    between atoms: O_7  and  C_25
REMARK    4  A    between atoms: O_7  and  C_38
REMARK    5  A    between atoms: O_9  and  C_37
REMARK    6  A    between atoms: O_9  and  C_39
REMARK    7  A    between atoms: N_12  and  C_20
REMARK    8  A    between atoms: C_13  and  C_17
REMARK    9  A    between atoms: C_18  and  C_21
REMARK   10  A    between atoms: C_20  and  C_22
REMARK   11  A    between atoms: C_20  and  C_25
REMARK   12  A    between atoms: C_22  and  C_26
REMARK                            x       y       z     vdW  Elec       q    Type
REMARK                         _______ _______ _______ _____ _____    ______ ____
ROOT
ATOM      6  O   UNL     1       1.637  -0.226  21.029  0.00  0.00    -0.269 OA
ATOM     10  N   UNL     1      -1.662  -0.796  24.735  0.00  0.00    -0.173 NA
ATOM     11  N   UNL     1       0.653  -0.308  23.131  0.00  0.00    -0.283 N 
ATOM     13  C   UNL     1       0.748  -0.204  24.597  0.00  0.00    +0.178 C 
ATOM     14  C   UNL     1      -0.310  -1.036  25.321  0.00  0.00    +0.141 C 
ATOM     15  C   UNL     1      -1.686  -1.104  23.278  0.00  0.00    +0.128 C 
ATOM     16  C   UNL     1      -0.696  -0.197  22.562  0.00  0.00    +0.126 C 
ATOM     18  C   UNL     1       1.759  -0.312  22.252  0.00  0.00    +0.254 C 
ENDROOT
BRANCH  18  21
ATOM      2  S   UNL     1       4.171   0.893  22.710  0.00  0.00    -0.092 S 
ATOM     21  C   UNL     1       3.084  -0.422  22.849  0.00  0.00    +0.074 A 
ATOM     27  C   UNL     1       3.632  -1.475  23.547  0.00  0.00    +0.021 A 
ATOM     31  C   UNL     1       4.963  -1.198  23.974  0.00  0.00    +0.008 A 
ATOM     34  C   UNL     1       5.381   0.055  23.585  0.00  0.00    +0.046 A 
ENDBRANCH  18  21
BRANCH  13  17
ATOM      5  O   UNL     1       0.743   2.127  24.075  0.00  0.00    -0.274 OA
ATOM     12  N   UNL     1       0.433   1.468  26.286  0.00  0.00    -0.301 N 
ATOM     17  C   UNL     1       0.637   1.256  24.933  0.00  0.00    +0.236 C 
ATOM     40  H   UNL     1       0.479   0.673  26.914  0.00  0.00    +0.150 HD
BRANCH  12  20
ATOM     20  C   UNL     1       0.316   2.784  26.869  0.00  0.00    +0.186 C 
BRANCH  20  25
ATOM      8  O   UNL     1       2.323   3.446  28.041  0.00  0.00    -0.249 OA
ATOM     25  C   UNL     1       1.199   2.956  28.098  0.00  0.00    +0.328 C 
BRANCH  25   7
ATOM      7  O   UNL     1       0.600   2.492  29.230  0.00  0.00    -0.467 OA
ATOM     38  C   UNL     1       1.486   2.074  30.273  0.00  0.00    +0.280 C 
ENDBRANCH  25   7
ENDBRANCH  20  25
BRANCH  20  22
ATOM     22  C   UNL     1      -1.151   3.135  27.163  0.00  0.00    +0.069 C 
BRANCH  22  26
ATOM     26  C   UNL     1      -2.005   3.361  25.935  0.00  0.00    -0.045 A 
ATOM     32  C   UNL     1      -2.955   4.380  25.924  0.00  0.00    +0.007 A 
ATOM     33  C   UNL     1      -1.841   2.548  24.813  0.00  0.00    +0.007 A 
ATOM     35  C   UNL     1      -3.742   4.589  24.791  0.00  0.00    +0.046 A 
ATOM     36  C   UNL     1      -2.629   2.755  23.680  0.00  0.00    +0.046 A 
ATOM     37  C   UNL     1      -3.579   3.776  23.669  0.00  0.00    +0.120 A 
BRANCH  37   9
ATOM      9  O   UNL     1      -4.347   3.979  22.565  0.00  0.00    -0.495 OA
ATOM     39  C   UNL     1      -3.934   3.335  21.360  0.00  0.00    +0.277 C 
ENDBRANCH  37   9
ENDBRANCH  22  26
ENDBRANCH  20  22
ENDBRANCH  12  20
ENDBRANCH  13  17
BRANCH  10   1
ATOM      1  S   UNL     1      -2.977  -1.417  25.640  0.00  0.00    +0.061 S 
ATOM      3  O   UNL     1      -2.642  -1.379  27.047  0.00  0.00    -0.153 OA
ATOM      4  O   UNL     1      -3.441  -2.638  25.016  0.00  0.00    -0.153 OA
BRANCH   1  19
ATOM     19  C   UNL     1      -4.180  -0.161  25.337  0.00  0.00    +0.105 A 
ATOM     23  C   UNL     1      -4.745  -0.028  24.070  0.00  0.00    +0.028 A 
ATOM     24  C   UNL     1      -4.564   0.699  26.366  0.00  0.00    +0.028 A 
ATOM     28  C   UNL     1      -5.697   0.963  23.830  0.00  0.00    +0.002 A 
ATOM     29  C   UNL     1      -5.515   1.691  26.127  0.00  0.00    +0.002 A 
ATOM     30  C   UNL     1      -6.080   1.823  24.859  0.00  0.00    +0.000 A 
ENDBRANCH   1  19
ENDBRANCH  10   1
TORSDOF 10
ENDMDL
MODEL 2
REMARK VINA RESULT:       6.6      1.986      3.135
REMARK  Name = 7164880
REMARK  12 active torsions:
REMARK  status: ('A' for Active; 'I' for Inactive)
REMARK    1  A    between atoms: S_1  and  N_10
REMARK    2  A    between atoms: S_1  and  C_19
REMARK    3  A    between atoms: O_7  and  C_25
REMARK    4  A    between atoms: O_7  and  C_38
REMARK    5  A    between atoms: O_9  and  C_37
REMARK    6  A    between atoms: O_9  and  C_39
REMARK    7  A    between atoms: N_12  and  C_20
REMARK    8  A    between atoms: C_13  and  C_17
REMARK    9  A    between atoms: C_18  and  C_21
REMARK   10  A    between atoms: C_20  and  C_22
REMARK   11  A    between atoms: C_20  and  C_25
REMARK   12  A    between atoms: C_22  and  C_26
REMARK                            x       y       z     vdW  Elec       q    Type
REMARK                         _______ _______ _______ _____ _____    ______ ____
ROOT
ATOM      6  O   UNL     1       1.947  -0.691  20.985  0.00  0.00    -0.269 OA
ATOM     10  N   UNL     1      -1.361  -0.259  24.701  0.00  0.00    -0.173 NA
ATOM     11  N   UNL     1       0.923  -0.119  22.989  0.00  0.00    -0.283 N 
ATOM     13  C   UNL     1       0.967   0.521  24.316  0.00  0.00    +0.178 C 
ATOM     14  C   UNL     1      -0.007  -0.109  25.311  0.00  0.00    +0.141 C 
ATOM     15  C   UNL     1      -1.310  -1.076  23.458  0.00  0.00    +0.128 C 
ATOM     16  C   UNL     1      -0.413  -0.382  22.443  0.00  0.00    +0.126 C 
ATOM     18  C   UNL     1       2.045  -0.312  22.154  0.00  0.00    +0.254 C 
ENDROOT
BRANCH  18  21
ATOM      2  S   UNL     1       4.142  -1.266  23.628  0.00  0.00    -0.092 S 
ATOM     21  C   UNL     1       3.358  -0.041  22.726  0.00  0.00    +0.074 A 
ATOM     27  C   UNL     1       4.111   1.110  22.652  0.00  0.00    +0.021 A 
ATOM     31  C   UNL     1       5.350   0.983  23.345  0.00  0.00    +0.008 A 
ATOM     34  C   UNL     1       5.495  -0.258  23.923  0.00  0.00    +0.046 A 
ENDBRANCH  18  21
BRANCH  13  17
ATOM      5  O   UNL     1       1.578   2.806  23.976  0.00  0.00    -0.274 OA
ATOM     12  N   UNL     1      -0.680   2.248  24.083  0.00  0.00    -0.301 N 
ATOM     17  C   UNL     1       0.678   1.979  24.099  0.00  0.00    +0.236 C 
ATOM     40  H   UNL     1      -1.325   1.500  24.311  0.00  0.00    +0.150 HD
BRANCH  12  20
ATOM     20  C   UNL     1      -1.219   3.577  23.913  0.00  0.00    +0.186 C 
BRANCH  20  25
ATOM      8  O   UNL     1      -1.290   5.548  25.310  0.00  0.00    -0.249 OA
ATOM     25  C   UNL     1      -1.347   4.324  25.234  0.00  0.00    +0.328 C 
BRANCH  25   7
ATOM      7  O   UNL     1      -1.512   3.479  26.289  0.00  0.00    -0.467 OA
ATOM     38  C   UNL     1      -0.307   2.996  26.892  0.00  0.00    +0.280 C 
ENDBRANCH  25   7
ENDBRANCH  20  25
BRANCH  20  22
ATOM     22  C   UNL     1      -2.546   3.546  23.140  0.00  0.00    +0.069 C 
BRANCH  22  26
ATOM     26  C   UNL     1      -3.752   3.162  23.968  0.00  0.00    -0.045 A 
ATOM     32  C   UNL     1      -4.235   4.033  24.943  0.00  0.00    +0.007 A 
ATOM     33  C   UNL     1      -4.380   1.934  23.756  0.00  0.00    +0.007 A 
ATOM     35  C   UNL     1      -5.348   3.678  25.705  0.00  0.00    +0.046 A 
ATOM     36  C   UNL     1      -5.493   1.579  24.519  0.00  0.00    +0.046 A 
ATOM     37  C   UNL     1      -5.977   2.451  25.494  0.00  0.00    +0.120 A 
BRANCH  37   9
ATOM      9  O   UNL     1      -7.062   2.105  26.237  0.00  0.00    -0.495 OA
ATOM     39  C   UNL     1      -6.825   1.324  27.408  0.00  0.00    +0.277 C 
ENDBRANCH  37   9
ENDBRANCH  22  26
ENDBRANCH  20  22
ENDBRANCH  12  20
ENDBRANCH  13  17
BRANCH  10   1
ATOM      1  S   UNL     1      -2.619  -0.659  25.794  0.00  0.00    +0.061 S 
ATOM      3  O   UNL     1      -3.506   0.476  25.930  0.00  0.00    -0.153 OA
ATOM      4  O   UNL     1      -2.044  -1.301  26.957  0.00  0.00    -0.153 OA
BRANCH   1  19
ATOM     19  C   UNL     1      -3.462  -1.893  24.853  0.00  0.00    +0.105 A 
ATOM     23  C   UNL     1      -3.162  -3.241  25.043  0.00  0.00    +0.028 A 
ATOM     24  C   UNL     1      -4.428  -1.519  23.920  0.00  0.00    +0.028 A 
ATOM     28  C   UNL     1      -3.828  -4.216  24.301  0.00  0.00    +0.002 A 
ATOM     29  C   UNL     1      -5.095  -2.493  23.177  0.00  0.00    +0.002 A 
ATOM     30  C   UNL     1      -4.795  -3.841  23.368  0.00  0.00    +0.000 A 
ENDBRANCH   1  19
ENDBRANCH  10   1
TORSDOF 10
ENDMDL
MODEL 3
REMARK VINA RESULT:       7.2      1.355      4.218
REMARK  Name = 7164880
REMARK  12 active torsions:
REMARK  status: ('A' for Active; 'I' for Inactive)
REMARK    1  A    between atoms: S_1  and  N_10
REMARK    2  A    between atoms: S_1  and  C_19
REMARK    3  A    between atoms: O_7  and  C_25
REMARK    4  A    between atoms: O_7  and  C_38
REMARK    5  A    between atoms: O_9  and  C_37
REMARK    6  A    between atoms: O_9  and  C_39
REMARK    7  A    between atoms: N_12  and  C_20
REMARK    8  A    between atoms: C_13  and  C_17
REMARK    9  A    between atoms: C_18  and  C_21
REMARK   10  A    between atoms: C_20  and  C_22
REMARK   11  A    between atoms: C_20  and  C_25
REMARK   12  A    between atoms: C_22  and  C_26
REMARK                            x       y       z     vdW  Elec       q    Type
REMARK                         _______ _______ _______ _____ _____    ______ ____
ROOT
ATOM      6  O   UNL     1       1.902  -0.325  20.871  0.00  0.00    -0.269 OA
ATOM     10  N   UNL     1      -1.710  -0.659  24.304  0.00  0.00    -0.173 NA
ATOM     11  N   UNL     1       0.744  -0.295  22.883  0.00  0.00    -0.283 N 
ATOM     13  C   UNL     1       0.719  -0.134  24.348  0.00  0.00    +0.178 C 
ATOM     14  C   UNL     1      -0.419  -0.908  25.011  0.00  0.00    +0.141 C 
ATOM     15  C   UNL     1      -1.620  -1.027  22.863  0.00  0.00    +0.128 C 
ATOM     16  C   UNL     1      -0.549  -0.175  22.199  0.00  0.00    +0.126 C 
ATOM     18  C   UNL     1       1.919  -0.363  22.103  0.00  0.00    +0.254 C 
ENDROOT
BRANCH  18  21
ATOM      2  S   UNL     1       4.302   0.815  22.746  0.00  0.00    -0.092 S 
ATOM     21  C   UNL     1       3.186  -0.481  22.813  0.00  0.00    +0.074 A 
ATOM     27  C   UNL     1       3.655  -1.529  23.574  0.00  0.00    +0.021 A 
ATOM     31  C   UNL     1       4.949  -1.264  24.109  0.00  0.00    +0.008 A 
ATOM     34  C   UNL     1       5.419  -0.024  23.736  0.00  0.00    +0.046 A 
ENDBRANCH  18  21
BRANCH  13  17
ATOM      5  O   UNL     1       1.410   2.142  24.121  0.00  0.00    -0.274 OA
ATOM     12  N   UNL     1      -0.417   1.649  25.477  0.00  0.00    -0.301 N 
ATOM     17  C   UNL     1       0.622   1.341  24.616  0.00  0.00    +0.236 C 
ATOM     40  H   UNL     1      -0.929   0.890  25.912  0.00  0.00    +0.150 HD
BRANCH  12  20
ATOM     20  C   UNL     1      -0.709   2.996  25.911  0.00  0.00    +0.186 C 
BRANCH  20  25
ATOM      8  O   UNL     1      -1.162   3.612  23.618  0.00  0.00    -0.249 OA
ATOM     25  C   UNL     1      -1.347   3.834  24.811  0.00  0.00    +0.328 C 
BRANCH  25   7
ATOM      7  O   UNL     1      -2.112   4.843  25.313  0.00  0.00    -0.467 OA
ATOM     38  C   UNL     1      -3.053   4.465  26.323  0.00  0.00    +0.280 C 
ENDBRANCH  25   7
ENDBRANCH  20  25
BRANCH  20  22
ATOM     22  C   UNL     1       0.537   3.673  26.501  0.00  0.00    +0.069 C 
BRANCH  22  26
ATOM     26  C   UNL     1       0.973   3.136  27.845  0.00  0.00    -0.045 A 
ATOM     32  C   UNL     1       2.329   2.997  28.136  0.00  0.00    +0.007 A 
ATOM     33  C   UNL     1       0.016   2.778  28.796  0.00  0.00    +0.007 A 
ATOM     35  C   UNL     1       2.730   2.503  29.376  0.00  0.00    +0.046 A 
ATOM     36  C   UNL     1       0.417   2.282  30.037  0.00  0.00    +0.046 A 
ATOM     37  C   UNL     1       1.774   2.144  30.327  0.00  0.00    +0.120 A 
BRANCH  37   9
ATOM      9  O   UNL     1       2.166   1.661  31.537  0.00  0.00    -0.495 OA
ATOM     39  C   UNL     1       1.261   1.831  32.628  0.00  0.00    +0.277 C 
ENDBRANCH  37   9
ENDBRANCH  22  26
ENDBRANCH  20  22
ENDBRANCH  12  20
ENDBRANCH  13  17
BRANCH  10   1
ATOM      1  S   UNL     1      -3.113  -1.210  25.118  0.00  0.00    +0.061 S 
ATOM      3  O   UNL     1      -2.794  -1.428  26.513  0.00  0.00    -0.153 OA
ATOM      4  O   UNL     1      -3.739  -2.246  24.325  0.00  0.00    -0.153 OA
BRANCH   1  19
ATOM     19  C   UNL     1      -4.117   0.238  25.013  0.00  0.00    +0.105 A 
ATOM     23  C   UNL     1      -5.248   0.362  25.820  0.00  0.00    +0.028 A 
ATOM     24  C   UNL     1      -3.779   1.258  24.124  0.00  0.00    +0.028 A 
ATOM     28  C   UNL     1      -6.041   1.507  25.738  0.00  0.00    +0.002 A 
ATOM     29  C   UNL     1      -4.572   2.402  24.042  0.00  0.00    +0.002 A 
ATOM     30  C   UNL     1      -5.703   2.526  24.848  0.00  0.00    +0.000 A 
ENDBRANCH   1  19
ENDBRANCH  10   1
TORSDOF 10
ENDMDL
MODEL 4
REMARK VINA RESULT:       7.3      1.614      6.218
REMARK  Name = 7164880
REMARK  12 active torsions:
REMARK  status: ('A' for Active; 'I' for Inactive)
REMARK    1  A    between atoms: S_1  and  N_10
REMARK    2  A    between atoms: S_1  and  C_19
REMARK    3  A    between atoms: O_7  and  C_25
REMARK    4  A    between atoms: O_7  and  C_38
REMARK    5  A    between atoms: O_9  and  C_37
REMARK    6  A    between atoms: O_9  and  C_39
REMARK    7  A    between atoms: N_12  and  C_20
REMARK    8  A    between atoms: C_13  and  C_17
REMARK    9  A    between atoms: C_18  and  C_21
REMARK   10  A    between atoms: C_20  and  C_22
REMARK   11  A    between atoms: C_20  and  C_25
REMARK   12  A    between atoms: C_22  and  C_26
REMARK                            x       y       z     vdW  Elec       q    Type
REMARK                         _______ _______ _______ _____ _____    ______ ____
ROOT
ATOM      6  O   UNL     1      -1.363  -3.138  25.660  0.00  0.00    -0.269 OA
ATOM     10  N   UNL     1       1.662   0.059  23.301  0.00  0.00    -0.173 NA
ATOM     11  N   UNL     1      -0.540  -1.280  24.536  0.00  0.00    -0.283 N 
ATOM     13  C   UNL     1      -0.751   0.029  23.895  0.00  0.00    +0.178 C 
ATOM     14  C   UNL     1       0.280   0.331  22.808  0.00  0.00    +0.141 C 
ATOM     15  C   UNL     1       1.809  -1.350  23.760  0.00  0.00    +0.128 C 
ATOM     16  C   UNL     1       0.843  -1.602  24.908  0.00  0.00    +0.126 C 
ATOM     18  C   UNL     1      -1.575  -2.135  24.976  0.00  0.00    +0.254 C 
ENDROOT
BRANCH  18  21
ATOM      2  S   UNL     1      -3.853  -2.905  23.674  0.00  0.00    -0.092 S 
ATOM     21  C   UNL     1      -2.936  -1.787  24.591  0.00  0.00    +0.074 A 
ATOM     27  C   UNL     1      -3.644  -0.638  24.863  0.00  0.00    +0.021 A 
ATOM     31  C   UNL     1      -4.958  -0.675  24.311  0.00  0.00    +0.008 A 
ATOM     34  C   UNL     1      -5.202  -1.851  23.638  0.00  0.00    +0.046 A 
ENDBRANCH  18  21
BRANCH  13  17
ATOM      5  O   UNL     1      -1.315   0.884  26.054  0.00  0.00    -0.274 OA
ATOM     12  N   UNL     1       0.014   2.174  24.643  0.00  0.00    -0.301 N 
ATOM     17  C   UNL     1      -0.721   1.055  24.992  0.00  0.00    +0.236 C 
ATOM     40  H   UNL     1       0.362   2.250  23.694  0.00  0.00    +0.150 HD
BRANCH  12  20
ATOM     20  C   UNL     1       0.178   3.314  25.516  0.00  0.00    +0.186 C 
BRANCH  20  25
ATOM      8  O   UNL     1      -0.823   2.891  27.674  0.00  0.00    -0.249 OA
ATOM     25  C   UNL     1       0.193   2.921  26.987  0.00  0.00    +0.328 C 
BRANCH  25   7
ATOM      7  O   UNL     1       1.449   2.632  27.428  0.00  0.00    -0.467 OA
ATOM     38  C   UNL     1       1.610   2.581  28.849  0.00  0.00    +0.280 C 
ENDBRANCH  25   7
ENDBRANCH  20  25
BRANCH  20  22
ATOM     22  C   UNL     1      -0.872   4.396  25.221  0.00  0.00    +0.069 C 
BRANCH  22  26
ATOM     26  C   UNL     1      -2.299   3.897  25.169  0.00  0.00    -0.045 A 
ATOM     32  C   UNL     1      -3.127   4.032  26.282  0.00  0.00    +0.007 A 
ATOM     33  C   UNL     1      -2.786   3.299  24.006  0.00  0.00    +0.007 A 
ATOM     35  C   UNL     1      -4.442   3.572  26.233  0.00  0.00    +0.046 A 
ATOM     36  C   UNL     1      -4.102   2.838  23.957  0.00  0.00    +0.046 A 
ATOM     37  C   UNL     1      -4.930   2.974  25.071  0.00  0.00    +0.120 A 
BRANCH  37   9
ATOM      9  O   UNL     1      -6.213   2.526  25.024  0.00  0.00    -0.495 OA
ATOM     39  C   UNL     1      -6.684   1.782  26.147  0.00  0.00    +0.277 C 
ENDBRANCH  37   9
ENDBRANCH  22  26
ENDBRANCH  20  22
ENDBRANCH  12  20
ENDBRANCH  13  17
BRANCH  10   1
ATOM      1  S   UNL     1       2.927   0.644  22.304  0.00  0.00    +0.061 S 
ATOM      3  O   UNL     1       3.003   2.083  22.433  0.00  0.00    -0.153 OA
ATOM      4  O   UNL     1       2.828   0.014  21.004  0.00  0.00    -0.153 OA
BRANCH   1  19
ATOM     19  C   UNL     1       4.321  -0.048  23.138  0.00  0.00    +0.105 A 
ATOM     23  C   UNL     1       5.423   0.753  23.436  0.00  0.00    +0.028 A 
ATOM     24  C   UNL     1       4.319  -1.394  23.501  0.00  0.00    +0.028 A 
ATOM     28  C   UNL     1       6.524   0.207  24.096  0.00  0.00    +0.002 A 
ATOM     29  C   UNL     1       5.419  -1.941  24.161  0.00  0.00    +0.002 A 
ATOM     30  C   UNL     1       6.522  -1.140  24.458  0.00  0.00    +0.000 A 
ENDBRANCH   1  19
ENDBRANCH  10   1
TORSDOF 10
ENDMDL
MODEL 5
REMARK VINA RESULT:       8.2      2.021      6.445
REMARK  Name = 7164880
REMARK  12 active torsions:
REMARK  status: ('A' for Active; 'I' for Inactive)
REMARK    1  A    between atoms: S_1  and  N_10
REMARK    2  A    between atoms: S_1  and  C_19
REMARK    3  A    between atoms: O_7  and  C_25
REMARK    4  A    between atoms: O_7  and  C_38
REMARK    5  A    between atoms: O_9  and  C_37
REMARK    6  A    between atoms: O_9  and  C_39
REMARK    7  A    between atoms: N_12  and  C_20
REMARK    8  A    between atoms: C_13  and  C_17
REMARK    9  A    between atoms: C_18  and  C_21
REMARK   10  A    between atoms: C_20  and  C_22
REMARK   11  A    between atoms: C_20  and  C_25
REMARK   12  A    between atoms: C_22  and  C_26
REMARK                            x       y       z     vdW  Elec       q    Type
REMARK                         _______ _______ _______ _____ _____    ______ ____
ROOT
ATOM      6  O   UNL     1      -1.489  -0.633  26.627  0.00  0.00    -0.269 OA
ATOM     10  N   UNL     1       1.623   0.769  22.981  0.00  0.00    -0.173 NA
ATOM     11  N   UNL     1      -0.605  -0.099  24.547  0.00  0.00    -0.283 N 
ATOM     13  C   UNL     1      -0.737  -0.003  23.082  0.00  0.00    +0.178 C 
ATOM     14  C   UNL     1       0.603  -0.123  22.357  0.00  0.00    +0.141 C 
ATOM     15  C   UNL     1       1.803   0.461  24.427  0.00  0.00    +0.128 C 
ATOM     16  C   UNL     1       0.482   0.681  25.150  0.00  0.00    +0.126 C 
ATOM     18  C   UNL     1      -1.545  -0.720  25.398  0.00  0.00    +0.254 C 
ENDROOT
BRANCH  18  21
ATOM      2  S   UNL     1      -2.364  -3.150  24.446  0.00  0.00    -0.092 S 
ATOM     21  C   UNL     1      -2.611  -1.487  24.768  0.00  0.00    +0.074 A 
ATOM     27  C   UNL     1      -3.860  -1.063  24.369  0.00  0.00    +0.021 A 
ATOM     31  C   UNL     1      -4.623  -2.119  23.790  0.00  0.00    +0.008 A 
ATOM     34  C   UNL     1      -3.928  -3.308  23.769  0.00  0.00    +0.046 A 
ENDBRANCH  18  21
BRANCH  13  17
ATOM      5  O   UNL     1      -2.112   1.474  21.803  0.00  0.00    -0.274 OA
ATOM     12  N   UNL     1      -1.123   2.265  23.757  0.00  0.00    -0.301 N 
ATOM     17  C   UNL     1      -1.411   1.309  22.797  0.00  0.00    +0.236 C 
ATOM     40  H   UNL     1      -0.437   2.045  24.471  0.00  0.00    +0.150 HD
BRANCH  12  20
ATOM     20  C   UNL     1      -1.630   3.616  23.701  0.00  0.00    +0.186 C 
BRANCH  20  25
ATOM      8  O   UNL     1      -1.326   5.558  25.107  0.00  0.00    -0.249 OA
ATOM     25  C   UNL     1      -1.490   4.344  25.031  0.00  0.00    +0.328 C 
BRANCH  25   7
ATOM      7  O   UNL     1      -1.551   3.492  26.092  0.00  0.00    -0.467 OA
ATOM     38  C   UNL     1      -0.291   3.049  26.606  0.00  0.00    +0.280 C 
ENDBRANCH  25   7
ENDBRANCH  20  25
BRANCH  20  22
ATOM     22  C   UNL     1      -3.074   3.648  23.178  0.00  0.00    +0.069 C 
BRANCH  22  26
ATOM     26  C   UNL     1      -4.126   3.289  24.203  0.00  0.00    -0.045 A 
ATOM     32  C   UNL     1      -4.739   4.290  24.955  0.00  0.00    +0.007 A 
ATOM     33  C   UNL     1      -4.482   1.954  24.398  0.00  0.00    +0.007 A 
ATOM     35  C   UNL     1      -5.711   3.958  25.899  0.00  0.00    +0.046 A 
ATOM     36  C   UNL     1      -5.453   1.621  25.343  0.00  0.00    +0.046 A 
ATOM     37  C   UNL     1      -6.067   2.623  26.094  0.00  0.00    +0.120 A 
BRANCH  37   9
ATOM      9  O   UNL     1      -7.014   2.300  27.015  0.00  0.00    -0.495 OA
ATOM     39  C   UNL     1      -6.880   1.038  27.669  0.00  0.00    +0.277 C 
ENDBRANCH  37   9
ENDBRANCH  22  26
ENDBRANCH  20  22
ENDBRANCH  12  20
ENDBRANCH  13  17
BRANCH  10   1
ATOM      1  S   UNL     1       3.071   0.969  22.086  0.00  0.00    +0.061 S 
ATOM      3  O   UNL     1       3.490   2.351  22.170  0.00  0.00    -0.153 OA
ATOM      4  O   UNL     1       2.926   0.309  20.806  0.00  0.00    -0.153 OA
BRANCH   1  19
ATOM     19  C   UNL     1       4.177   0.008  23.072  0.00  0.00    +0.105 A 
ATOM     23  C   UNL     1       3.888  -1.329  23.342  0.00  0.00    +0.028 A 
ATOM     24  C   UNL     1       5.339   0.587  23.580  0.00  0.00    +0.028 A 
ATOM     28  C   UNL     1       4.762  -2.089  24.119  0.00  0.00    +0.002 A 
ATOM     29  C   UNL     1       6.213  -0.172  24.358  0.00  0.00    +0.002 A 
ATOM     30  C   UNL     1       5.924  -1.509  24.628  0.00  0.00    +0.000 A 
ENDBRANCH   1  19
ENDBRANCH  10   1
TORSDOF 10
ENDMDL
