MODEL 1
REMARK VINA RESULT:      -0.7      0.000      0.000
REMARK  Name = 45783809
REMARK  9 active torsions:
REMARK  status: ('A' for Active; 'I' for Inactive)
REMARK    1  A    between atoms: O_2  and  C_15
REMARK    2  A    between atoms: O_2  and  C_24
REMARK    3  A    between atoms: N_3  and  C_12
REMARK    4  A    between atoms: N_7  and  C_26
REMARK    5  A    between atoms: N_7  and  C_27
REMARK    6  A    between atoms: N_7  and  C_28
REMARK    7  A    between atoms: C_8  and  C_13
REMARK    8  A    between atoms: C_12  and  C_14
REMARK    9  A    between atoms: C_17  and  C_20
REMARK                            x       y       z     vdW  Elec       q    Type
REMARK                         _______ _______ _______ _____ _____    ______ ____
ROOT
ATOM      3  N   UNL     1      -4.696   1.448  25.266  0.00  0.00    -0.287 NA
ATOM      8  C   UNL     1      -4.234   2.335  24.179  0.00  0.00    +0.146 C 
ATOM      9  C   UNL     1      -4.841   3.710  24.512  0.00  0.00    +0.030 C 
ATOM     10  C   UNL     1      -5.675   3.484  25.765  0.00  0.00    +0.017 C 
ATOM     11  C   UNL     1      -5.968   1.998  25.735  0.00  0.00    +0.085 C 
ENDROOT
BRANCH   8  13
ATOM      1  O   UNL     1      -2.139   3.592  24.204  0.00  0.00    -0.336 OA
ATOM      4  N   UNL     1      -1.883   1.397  23.842  0.00  0.00    -0.190 NA
ATOM      5  N   UNL     1      -0.762   3.379  24.058  0.00  0.00    -0.056 NA
ATOM     13  C   UNL     1      -2.725   2.374  24.062  0.00  0.00    +0.245 A 
ATOM     17  C   UNL     1      -0.691   2.062  23.847  0.00  0.00    +0.204 A 
BRANCH  17  20
ATOM      6  N   UNL     1       2.960   1.489  23.429  0.00  0.00    -0.240 NA
ATOM     20  C   UNL     1       0.553   1.379  23.641  0.00  0.00    +0.041 A 
ATOM     22  C   UNL     1       0.593   0.002  23.454  0.00  0.00    +0.016 A 
ATOM     23  C   UNL     1       1.753   2.071  23.619  0.00  0.00    +0.124 A 
ATOM     25  C   UNL     1       1.814  -0.633  23.256  0.00  0.00    +0.044 A 
ATOM     26  C   UNL     1       2.958   0.149  23.252  0.00  0.00    +0.121 A 
BRANCH  26   7
ATOM      7  N   UNL     1       4.194  -0.512  23.050  0.00  0.00    -0.321 N 
ATOM     27  C   UNL     1       5.213   0.089  22.217  0.00  0.00    +0.130 C 
ATOM     28  C   UNL     1       4.450  -1.787  23.683  0.00  0.00    +0.130 C 
ENDBRANCH  26   7
ENDBRANCH  17  20
ENDBRANCH   8  13
BRANCH   3  12
ATOM     12  C   UNL     1      -4.818   0.055  24.857  0.00  0.00    +0.124 C 
BRANCH  12  14
ATOM     14  C   UNL     1      -3.535  -0.706  25.065  0.00  0.00    +0.008 A 
ATOM     15  C   UNL     1      -3.210  -1.789  24.249  0.00  0.00    +0.124 A 
ATOM     16  C   UNL     1      -2.668  -0.316  26.086  0.00  0.00    +0.008 A 
ATOM     18  C   UNL     1      -2.018  -2.485  24.455  0.00  0.00    +0.046 A 
ATOM     19  C   UNL     1      -1.477  -1.011  26.292  0.00  0.00    +0.001 A 
ATOM     21  C   UNL     1      -1.151  -2.095  25.477  0.00  0.00    +0.004 A 
BRANCH  15   2
ATOM      2  O   UNL     1      -4.045  -2.184  23.248  0.00  0.00    -0.495 OA
ATOM     24  C   UNL     1      -4.764  -3.399  23.446  0.00  0.00    +0.277 C 
ENDBRANCH  15   2
ENDBRANCH  12  14
ENDBRANCH   3  12
TORSDOF 6
ENDMDL
MODEL 2
REMARK VINA RESULT:       0.3      1.276      2.116
REMARK  Name = 45783809
REMARK  9 active torsions:
REMARK  status: ('A' for Active; 'I' for Inactive)
REMARK    1  A    between atoms: O_2  and  C_15
REMARK    2  A    between atoms: O_2  and  C_24
REMARK    3  A    between atoms: N_3  and  C_12
REMARK    4  A    between atoms: N_7  and  C_26
REMARK    5  A    between atoms: N_7  and  C_27
REMARK    6  A    between atoms: N_7  and  C_28
REMARK    7  A    between atoms: C_8  and  C_13
REMARK    8  A    between atoms: C_12  and  C_14
REMARK    9  A    between atoms: C_17  and  C_20
REMARK                            x       y       z     vdW  Elec       q    Type
REMARK                         _______ _______ _______ _____ _____    ______ ____
ROOT
ATOM      3  N   UNL     1      -4.461   1.705  25.230  0.00  0.00    -0.287 NA
ATOM      8  C   UNL     1      -4.129   2.468  24.010  0.00  0.00    +0.146 C 
ATOM      9  C   UNL     1      -4.086   3.937  24.468  0.00  0.00    +0.030 C 
ATOM     10  C   UNL     1      -4.465   3.906  25.941  0.00  0.00    +0.017 C 
ATOM     11  C   UNL     1      -5.232   2.608  26.085  0.00  0.00    +0.085 C 
ENDROOT
BRANCH   8  13
ATOM      1  O   UNL     1      -2.799   1.990  22.016  0.00  0.00    -0.336 OA
ATOM      4  N   UNL     1      -1.716   1.635  23.944  0.00  0.00    -0.190 NA
ATOM      5  N   UNL     1      -1.518   1.545  21.667  0.00  0.00    -0.056 NA
ATOM     13  C   UNL     1      -2.832   2.014  23.374  0.00  0.00    +0.245 A 
ATOM     17  C   UNL     1      -0.940   1.357  22.857  0.00  0.00    +0.204 A 
BRANCH  17  20
ATOM      6  N   UNL     1       2.703   1.362  23.606  0.00  0.00    -0.240 NA
ATOM     20  C   UNL     1       0.411   0.893  22.995  0.00  0.00    +0.041 A 
ATOM     22  C   UNL     1       0.757  -0.414  22.671  0.00  0.00    +0.016 A 
ATOM     23  C   UNL     1       1.411   1.734  23.454  0.00  0.00    +0.124 A 
ATOM     25  C   UNL     1       2.074  -0.835  22.814  0.00  0.00    +0.044 A 
ATOM     26  C   UNL     1       3.000   0.084  23.281  0.00  0.00    +0.121 A 
BRANCH  26   7
ATOM      7  N   UNL     1       4.338  -0.360  23.424  0.00  0.00    -0.321 N 
ATOM     27  C   UNL     1       4.616  -1.740  23.757  0.00  0.00    +0.130 C 
ATOM     28  C   UNL     1       5.436   0.561  23.228  0.00  0.00    +0.130 C 
ENDBRANCH  26   7
ENDBRANCH  17  20
ENDBRANCH   8  13
BRANCH   3  12
ATOM     12  C   UNL     1      -5.176   0.466  24.956  0.00  0.00    +0.124 C 
BRANCH  12  14
ATOM     14  C   UNL     1      -4.234  -0.689  24.733  0.00  0.00    +0.008 A 
ATOM     15  C   UNL     1      -2.995  -0.730  25.372  0.00  0.00    +0.124 A 
ATOM     16  C   UNL     1      -4.613  -1.723  23.878  0.00  0.00    +0.008 A 
ATOM     18  C   UNL     1      -2.133  -1.805  25.154  0.00  0.00    +0.046 A 
ATOM     19  C   UNL     1      -3.752  -2.798  23.661  0.00  0.00    +0.001 A 
ATOM     21  C   UNL     1      -2.512  -2.840  24.298  0.00  0.00    +0.004 A 
BRANCH  15   2
ATOM      2  O   UNL     1      -2.608   0.273  26.209  0.00  0.00    -0.495 OA
ATOM     24  C   UNL     1      -1.216   0.369  26.505  0.00  0.00    +0.277 C 
ENDBRANCH  15   2
ENDBRANCH  12  14
ENDBRANCH   3  12
TORSDOF 6
ENDMDL
MODEL 3
REMARK VINA RESULT:       0.9      1.844      4.298
REMARK  Name = 45783809
REMARK  9 active torsions:
REMARK  status: ('A' for Active; 'I' for Inactive)
REMARK    1  A    between atoms: O_2  and  C_15
REMARK    2  A    between atoms: O_2  and  C_24
REMARK    3  A    between atoms: N_3  and  C_12
REMARK    4  A    between atoms: N_7  and  C_26
REMARK    5  A    between atoms: N_7  and  C_27
REMARK    6  A    between atoms: N_7  and  C_28
REMARK    7  A    between atoms: C_8  and  C_13
REMARK    8  A    between atoms: C_12  and  C_14
REMARK    9  A    between atoms: C_17  and  C_20
REMARK                            x       y       z     vdW  Elec       q    Type
REMARK                         _______ _______ _______ _____ _____    ______ ____
ROOT
ATOM      3  N   UNL     1      -3.501  -0.506  24.567  0.00  0.00    -0.287 NA
ATOM      8  C   UNL     1      -2.329  -1.392  24.715  0.00  0.00    +0.146 C 
ATOM      9  C   UNL     1      -2.748  -2.710  24.037  0.00  0.00    +0.030 C 
ATOM     10  C   UNL     1      -4.187  -2.490  23.595  0.00  0.00    +0.017 C 
ATOM     11  C   UNL     1      -4.673  -1.379  24.502  0.00  0.00    +0.085 C 
ENDROOT
BRANCH   8  13
ATOM      1  O   UNL     1      -1.246   0.184  23.193  0.00  0.00    -0.336 OA
ATOM      4  N   UNL     1       0.181  -1.096  24.351  0.00  0.00    -0.190 NA
ATOM      5  N   UNL     1       0.038   0.568  22.787  0.00  0.00    -0.056 NA
ATOM     13  C   UNL     1      -1.072  -0.800  24.114  0.00  0.00    +0.245 A 
ATOM     17  C   UNL     1       0.824  -0.231  23.514  0.00  0.00    +0.204 A 
BRANCH  17  20
ATOM      6  N   UNL     1       4.379  -1.288  23.797  0.00  0.00    -0.240 NA
ATOM     20  C   UNL     1       2.256  -0.190  23.428  0.00  0.00    +0.041 A 
ATOM     22  C   UNL     1       2.913   0.926  22.922  0.00  0.00    +0.016 A 
ATOM     23  C   UNL     1       3.027  -1.261  23.849  0.00  0.00    +0.124 A 
ATOM     25  C   UNL     1       4.301   0.936  22.851  0.00  0.00    +0.044 A 
ATOM     26  C   UNL     1       4.981  -0.185  23.298  0.00  0.00    +0.121 A 
BRANCH  26   7
ATOM      7  N   UNL     1       6.396  -0.160  23.219  0.00  0.00    -0.321 N 
ATOM     27  C   UNL     1       7.147   0.843  23.941  0.00  0.00    +0.130 C 
ATOM     28  C   UNL     1       7.098  -1.142  22.423  0.00  0.00    +0.130 C 
ENDBRANCH  26   7
ENDBRANCH  17  20
ENDBRANCH   8  13
BRANCH   3  12
ATOM     12  C   UNL     1      -3.611   0.483  25.631  0.00  0.00    +0.124 C 
BRANCH  12  14
ATOM     14  C   UNL     1      -3.394   1.883  25.121  0.00  0.00    +0.008 A 
ATOM     15  C   UNL     1      -2.178   2.535  25.327  0.00  0.00    +0.124 A 
ATOM     16  C   UNL     1      -4.425   2.528  24.438  0.00  0.00    +0.008 A 
ATOM     18  C   UNL     1      -1.994   3.833  24.850  0.00  0.00    +0.046 A 
ATOM     19  C   UNL     1      -4.240   3.825  23.960  0.00  0.00    +0.001 A 
ATOM     21  C   UNL     1      -3.025   4.478  24.166  0.00  0.00    +0.004 A 
BRANCH  15   2
ATOM      2  O   UNL     1      -1.161   1.921  25.994  0.00  0.00    -0.495 OA
ATOM     24  C   UNL     1       0.114   2.559  25.959  0.00  0.00    +0.277 C 
ENDBRANCH  15   2
ENDBRANCH  12  14
ENDBRANCH   3  12
TORSDOF 6
ENDMDL
MODEL 4
REMARK VINA RESULT:       1.1      2.005      4.174
REMARK  Name = 45783809
REMARK  9 active torsions:
REMARK  status: ('A' for Active; 'I' for Inactive)
REMARK    1  A    between atoms: O_2  and  C_15
REMARK    2  A    between atoms: O_2  and  C_24
REMARK    3  A    between atoms: N_3  and  C_12
REMARK    4  A    between atoms: N_7  and  C_26
REMARK    5  A    between atoms: N_7  and  C_27
REMARK    6  A    between atoms: N_7  and  C_28
REMARK    7  A    between atoms: C_8  and  C_13
REMARK    8  A    between atoms: C_12  and  C_14
REMARK    9  A    between atoms: C_17  and  C_20
REMARK                            x       y       z     vdW  Elec       q    Type
REMARK                         _______ _______ _______ _____ _____    ______ ____
ROOT
ATOM      3  N   UNL     1      -4.602   2.697  25.423  0.00  0.00    -0.287 NA
ATOM      8  C   UNL     1      -4.535   1.246  25.691  0.00  0.00    +0.146 C 
ATOM      9  C   UNL     1      -5.858   0.685  25.136  0.00  0.00    +0.030 C 
ATOM     10  C   UNL     1      -6.625   1.899  24.634  0.00  0.00    +0.017 C 
ATOM     11  C   UNL     1      -6.022   3.050  25.412  0.00  0.00    +0.085 C 
ENDROOT
BRANCH   8  13
ATOM      1  O   UNL     1      -3.447  -0.707  24.705  0.00  0.00    -0.336 OA
ATOM      4  N   UNL     1      -2.137   1.105  24.828  0.00  0.00    -0.190 NA
ATOM      5  N   UNL     1      -2.212  -1.084  24.166  0.00  0.00    -0.056 NA
ATOM     13  C   UNL     1      -3.318   0.595  25.071  0.00  0.00    +0.245 A 
ATOM     17  C   UNL     1      -1.492   0.037  24.273  0.00  0.00    +0.204 A 
BRANCH  17  20
ATOM      6  N   UNL     1       1.862   1.464  23.535  0.00  0.00    -0.240 NA
ATOM     20  C   UNL     1      -0.129   0.125  23.834  0.00  0.00    +0.041 A 
ATOM     22  C   UNL     1       0.524  -0.979  23.298  0.00  0.00    +0.016 A 
ATOM     23  C   UNL     1       0.577   1.313  23.930  0.00  0.00    +0.124 A 
ATOM     25  C   UNL     1       1.845  -0.864  22.882  0.00  0.00    +0.044 A 
ATOM     26  C   UNL     1       2.463   0.369  23.020  0.00  0.00    +0.121 A 
BRANCH  26   7
ATOM      7  N   UNL     1       3.810   0.471  22.592  0.00  0.00    -0.321 N 
ATOM     27  C   UNL     1       4.886   0.414  23.556  0.00  0.00    +0.130 C 
ATOM     28  C   UNL     1       4.118   0.622  21.187  0.00  0.00    +0.130 C 
ENDBRANCH  26   7
ENDBRANCH  17  20
ENDBRANCH   8  13
BRANCH   3  12
ATOM     12  C   UNL     1      -3.846   3.493  26.380  0.00  0.00    +0.124 C 
BRANCH  12  14
ATOM     14  C   UNL     1      -2.691   4.207  25.729  0.00  0.00    +0.008 A 
ATOM     15  C   UNL     1      -1.382   3.761  25.916  0.00  0.00    +0.124 A 
ATOM     16  C   UNL     1      -2.940   5.323  24.931  0.00  0.00    +0.008 A 
ATOM     18  C   UNL     1      -0.322   4.434  25.307  0.00  0.00    +0.046 A 
ATOM     19  C   UNL     1      -1.881   5.995  24.322  0.00  0.00    +0.001 A 
ATOM     21  C   UNL     1      -0.572   5.551  24.510  0.00  0.00    +0.004 A 
BRANCH  15   2
ATOM      2  O   UNL     1      -1.120   2.673  26.693  0.00  0.00    -0.495 OA
ATOM     24  C   UNL     1       0.244   2.431  27.030  0.00  0.00    +0.277 C 
ENDBRANCH  15   2
ENDBRANCH  12  14
ENDBRANCH   3  12
TORSDOF 6
ENDMDL
MODEL 5
REMARK VINA RESULT:       1.2      1.918      4.133
REMARK  Name = 45783809
REMARK  9 active torsions:
REMARK  status: ('A' for Active; 'I' for Inactive)
REMARK    1  A    between atoms: O_2  and  C_15
REMARK    2  A    between atoms: O_2  and  C_24
REMARK    3  A    between atoms: N_3  and  C_12
REMARK    4  A    between atoms: N_7  and  C_26
REMARK    5  A    between atoms: N_7  and  C_27
REMARK    6  A    between atoms: N_7  and  C_28
REMARK    7  A    between atoms: C_8  and  C_13
REMARK    8  A    between atoms: C_12  and  C_14
REMARK    9  A    between atoms: C_17  and  C_20
REMARK                            x       y       z     vdW  Elec       q    Type
REMARK                         _______ _______ _______ _____ _____    ______ ____
ROOT
ATOM      3  N   UNL     1      -3.266  -0.249  24.724  0.00  0.00    -0.287 NA
ATOM      8  C   UNL     1      -2.169  -1.237  24.741  0.00  0.00    +0.146 C 
ATOM      9  C   UNL     1      -2.740  -2.469  24.014  0.00  0.00    +0.030 C 
ATOM     10  C   UNL     1      -4.179  -2.102  23.681  0.00  0.00    +0.017 C 
ATOM     11  C   UNL     1      -4.512  -1.016  24.684  0.00  0.00    +0.085 C 
ENDROOT
BRANCH   8  13
ATOM      1  O   UNL     1      -1.064   0.189  23.094  0.00  0.00    -0.336 OA
ATOM      4  N   UNL     1       0.346  -1.000  24.363  0.00  0.00    -0.190 NA
ATOM      5  N   UNL     1       0.225   0.523  22.661  0.00  0.00    -0.056 NA
ATOM     13  C   UNL     1      -0.903  -0.713  24.097  0.00  0.00    +0.245 A 
ATOM     17  C   UNL     1       1.001  -0.218  23.457  0.00  0.00    +0.204 A 
BRANCH  17  20
ATOM      6  N   UNL     1       4.538  -1.330  23.750  0.00  0.00    -0.240 NA
ATOM     20  C   UNL     1       2.433  -0.200  23.375  0.00  0.00    +0.041 A 
ATOM     22  C   UNL     1       3.108   0.904  22.867  0.00  0.00    +0.016 A 
ATOM     23  C   UNL     1       3.187  -1.282  23.799  0.00  0.00    +0.124 A 
ATOM     25  C   UNL     1       4.497   0.893  22.799  0.00  0.00    +0.044 A 
ATOM     26  C   UNL     1       5.158  -0.238  23.250  0.00  0.00    +0.121 A 
BRANCH  26   7
ATOM      7  N   UNL     1       6.573  -0.235  23.173  0.00  0.00    -0.321 N 
ATOM     27  C   UNL     1       7.261  -1.234  22.385  0.00  0.00    +0.130 C 
ATOM     28  C   UNL     1       7.338   0.771  23.876  0.00  0.00    +0.130 C 
ENDBRANCH  26   7
ENDBRANCH  17  20
ENDBRANCH   8  13
BRANCH   3  12
ATOM     12  C   UNL     1      -3.226   0.673  25.851  0.00  0.00    +0.124 C 
BRANCH  12  14
ATOM     14  C   UNL     1      -2.672   2.017  25.458  0.00  0.00    +0.008 A 
ATOM     15  C   UNL     1      -3.469   2.946  24.787  0.00  0.00    +0.124 A 
ATOM     16  C   UNL     1      -1.350   2.328  25.771  0.00  0.00    +0.008 A 
ATOM     18  C   UNL     1      -2.941   4.186  24.428  0.00  0.00    +0.046 A 
ATOM     19  C   UNL     1      -0.822   3.569  25.413  0.00  0.00    +0.001 A 
ATOM     21  C   UNL     1      -1.617   4.498  24.742  0.00  0.00    +0.004 A 
BRANCH  15   2
ATOM      2  O   UNL     1      -4.763   2.657  24.473  0.00  0.00    -0.495 OA
ATOM     24  C   UNL     1      -5.754   2.992  25.442  0.00  0.00    +0.277 C 
ENDBRANCH  15   2
ENDBRANCH  12  14
ENDBRANCH   3  12
TORSDOF 6
ENDMDL
MODEL 6
REMARK VINA RESULT:       3.3      1.613      2.274
REMARK  Name = 45783809
REMARK  9 active torsions:
REMARK  status: ('A' for Active; 'I' for Inactive)
REMARK    1  A    between atoms: O_2  and  C_15
REMARK    2  A    between atoms: O_2  and  C_24
REMARK    3  A    between atoms: N_3  and  C_12
REMARK    4  A    between atoms: N_7  and  C_26
REMARK    5  A    between atoms: N_7  and  C_27
REMARK    6  A    between atoms: N_7  and  C_28
REMARK    7  A    between atoms: C_8  and  C_13
REMARK    8  A    between atoms: C_12  and  C_14
REMARK    9  A    between atoms: C_17  and  C_20
REMARK                            x       y       z     vdW  Elec       q    Type
REMARK                         _______ _______ _______ _____ _____    ______ ____
ROOT
ATOM      3  N   UNL     1      -2.644   2.008  25.441  0.00  0.00    -0.287 NA
ATOM      8  C   UNL     1      -2.372   2.266  24.012  0.00  0.00    +0.146 C 
ATOM      9  C   UNL     1      -2.228   3.796  23.912  0.00  0.00    +0.030 C 
ATOM     10  C   UNL     1      -2.496   4.314  25.317  0.00  0.00    +0.017 C 
ATOM     11  C   UNL     1      -3.307   3.206  25.958  0.00  0.00    +0.085 C 
ENDROOT
BRANCH   8  13
ATOM      1  O   UNL     1      -1.357   0.597  22.545  0.00  0.00    -0.336 OA
ATOM      4  N   UNL     1       0.103   1.655  23.873  0.00  0.00    -0.190 NA
ATOM      5  N   UNL     1      -0.099   0.058  22.247  0.00  0.00    -0.056 NA
ATOM     13  C   UNL     1      -1.149   1.529  23.511  0.00  0.00    +0.245 A 
ATOM     17  C   UNL     1       0.709   0.732  23.071  0.00  0.00    +0.204 A 
BRANCH  17  20
ATOM      6  N   UNL     1       3.966  -1.016  23.480  0.00  0.00    -0.240 NA
ATOM     20  C   UNL     1       2.126   0.510  23.116  0.00  0.00    +0.041 A 
ATOM     22  C   UNL     1       3.022   1.540  22.858  0.00  0.00    +0.016 A 
ATOM     23  C   UNL     1       2.643  -0.739  23.420  0.00  0.00    +0.124 A 
ATOM     25  C   UNL     1       4.389   1.295  22.909  0.00  0.00    +0.044 A 
ATOM     26  C   UNL     1       4.806   0.011  23.223  0.00  0.00    +0.121 A 
BRANCH  26   7
ATOM      7  N   UNL     1       6.202  -0.224  23.270  0.00  0.00    -0.321 N 
ATOM     27  C   UNL     1       7.065   0.663  24.019  0.00  0.00    +0.130 C 
ATOM     28  C   UNL     1       6.774  -1.358  22.577  0.00  0.00    +0.130 C 
ENDBRANCH  26   7
ENDBRANCH  17  20
ENDBRANCH   8  13
BRANCH   3  12
ATOM     12  C   UNL     1      -3.433   0.805  25.667  0.00  0.00    +0.124 C 
BRANCH  12  14
ATOM     14  C   UNL     1      -2.636  -0.446  25.405  0.00  0.00    +0.008 A 
ATOM     15  C   UNL     1      -3.173  -1.485  24.645  0.00  0.00    +0.124 A 
ATOM     16  C   UNL     1      -1.350  -0.559  25.932  0.00  0.00    +0.008 A 
ATOM     18  C   UNL     1      -2.423  -2.639  24.412  0.00  0.00    +0.046 A 
ATOM     19  C   UNL     1      -0.600  -1.711  25.699  0.00  0.00    +0.001 A 
ATOM     21  C   UNL     1      -1.136  -2.751  24.940  0.00  0.00    +0.004 A 
BRANCH  15   2
ATOM      2  O   UNL     1      -4.428  -1.393  24.124  0.00  0.00    -0.495 OA
ATOM     24  C   UNL     1      -4.953  -2.557  23.488  0.00  0.00    +0.277 C 
ENDBRANCH  15   2
ENDBRANCH  12  14
ENDBRANCH   3  12
TORSDOF 6
ENDMDL
