MODEL 1
REMARK VINA RESULT:       0.5      0.000      0.000
REMARK  Name = 45783398
REMARK  9 active torsions:
REMARK  status: ('A' for Active; 'I' for Inactive)
REMARK    1  A    between atoms: O_2  and  C_31
REMARK    2  A    between atoms: O_2  and  C_32
REMARK    3  A    between atoms: N_3  and  C_13
REMARK    4  A    between atoms: N_4  and  C_22
REMARK    5  A    between atoms: N_7  and  C_29
REMARK    6  A    between atoms: C_9  and  C_14
REMARK    7  A    between atoms: C_13  and  C_15
REMARK    8  A    between atoms: C_20  and  C_25
REMARK    9  A    between atoms: C_29  and  C_31
REMARK                            x       y       z     vdW  Elec       q    Type
REMARK                         _______ _______ _______ _____ _____    ______ ____
ROOT
ATOM      1  O   UNL     1      -0.682  -2.768  25.365  0.00  0.00    -0.336 OA
ATOM      5  N   UNL     1      -1.144  -1.011  24.054  0.00  0.00    -0.190 NA
ATOM      6  N   UNL     1       0.546  -2.152  25.091  0.00  0.00    -0.056 NA
ATOM     14  C   UNL     1      -1.623  -2.033  24.716  0.00  0.00    +0.245 A 
ATOM     20  C   UNL     1       0.190  -1.124  24.314  0.00  0.00    +0.205 A 
ENDROOT
BRANCH  20  25
ATOM      7  N   UNL     1      -0.024   1.672  24.762  0.00  0.00    -0.326 N 
ATOM      8  N   UNL     1       1.936   2.071  23.498  0.00  0.00    -0.240 NA
ATOM     25  C   UNL     1       1.144  -0.195  23.780  0.00  0.00    +0.062 A 
ATOM     26  C   UNL     1       1.054   1.172  23.988  0.00  0.00    +0.130 A 
ATOM     27  C   UNL     1       2.206  -0.669  23.019  0.00  0.00    +0.016 A 
ATOM     28  C   UNL     1       3.134   0.225  22.498  0.00  0.00    +0.020 A 
ATOM     30  C   UNL     1       2.956   1.574  22.763  0.00  0.00    +0.113 A 
ATOM     33  H   UNL     1      -0.851   1.085  24.807  0.00  0.00    +0.148 HD
BRANCH   7  29
ATOM     29  C   UNL     1      -0.199   3.062  25.029  0.00  0.00    +0.131 C 
BRANCH  29  31
ATOM     31  C   UNL     1      -1.279   3.257  26.079  0.00  0.00    +0.178 C 
BRANCH  31   2
ATOM      2  O   UNL     1      -2.020   4.433  25.784  0.00  0.00    -0.381 OA
ATOM     32  C   UNL     1      -1.264   5.342  24.996  0.00  0.00    +0.194 C 
ENDBRANCH  31   2
ENDBRANCH  29  31
ENDBRANCH   7  29
ENDBRANCH  20  25
BRANCH  14   9
ATOM      3  N   UNL     1      -4.033  -1.441  24.533  0.00  0.00    -0.287 NA
ATOM      9  C   UNL     1      -3.057  -2.501  24.857  0.00  0.00    +0.146 C 
ATOM     10  C   UNL     1      -3.403  -3.657  23.901  0.00  0.00    +0.030 C 
ATOM     11  C   UNL     1      -5.225  -2.119  24.021  0.00  0.00    +0.085 C 
ATOM     12  C   UNL     1      -4.621  -3.179  23.123  0.00  0.00    +0.017 C 
BRANCH   3  13
ATOM     13  C   UNL     1      -4.339  -0.574  25.663  0.00  0.00    +0.122 C 
BRANCH  13  15
ATOM      4  N   UNL     1      -5.216   2.967  25.177  0.00  0.00    -0.349 N 
ATOM     15  C   UNL     1      -4.523   0.858  25.238  0.00  0.00    -0.008 A 
ATOM     16  C   UNL     1      -3.913   1.495  24.122  0.00  0.00    +0.004 A 
ATOM     17  C   UNL     1      -5.319   1.788  25.867  0.00  0.00    +0.091 A 
ATOM     18  C   UNL     1      -4.364   2.816  24.106  0.00  0.00    +0.049 A 
ATOM     19  C   UNL     1      -3.017   1.073  23.119  0.00  0.00    +0.010 A 
ATOM     21  C   UNL     1      -3.962   3.741  23.135  0.00  0.00    +0.026 A 
ATOM     22  C   UNL     1      -5.910   4.184  25.535  0.00  0.00    +0.149 C 
ATOM     23  C   UNL     1      -2.606   1.986  22.141  0.00  0.00    +0.001 A 
ATOM     24  C   UNL     1      -3.073   3.299  22.151  0.00  0.00    +0.002 A 
ENDBRANCH  13  15
ENDBRANCH   3  13
ENDBRANCH  14   9
TORSDOF 7
ENDMDL
MODEL 2
REMARK VINA RESULT:       2.4      1.695      3.379
REMARK  Name = 45783398
REMARK  9 active torsions:
REMARK  status: ('A' for Active; 'I' for Inactive)
REMARK    1  A    between atoms: O_2  and  C_31
REMARK    2  A    between atoms: O_2  and  C_32
REMARK    3  A    between atoms: N_3  and  C_13
REMARK    4  A    between atoms: N_4  and  C_22
REMARK    5  A    between atoms: N_7  and  C_29
REMARK    6  A    between atoms: C_9  and  C_14
REMARK    7  A    between atoms: C_13  and  C_15
REMARK    8  A    between atoms: C_20  and  C_25
REMARK    9  A    between atoms: C_29  and  C_31
REMARK                            x       y       z     vdW  Elec       q    Type
REMARK                         _______ _______ _______ _____ _____    ______ ____
ROOT
ATOM      1  O   UNL     1      -1.213  -0.587  26.730  0.00  0.00    -0.336 OA
ATOM      5  N   UNL     1      -1.970   0.478  24.911  0.00  0.00    -0.190 NA
ATOM      6  N   UNL     1      -0.573   0.659  26.713  0.00  0.00    -0.056 NA
ATOM     14  C   UNL     1      -2.017  -0.611  25.635  0.00  0.00    +0.245 A 
ATOM     20  C   UNL     1      -1.072   1.228  25.612  0.00  0.00    +0.205 A 
ENDROOT
BRANCH  20  25
ATOM      7  N   UNL     1       1.154   1.667  23.903  0.00  0.00    -0.326 N 
ATOM      8  N   UNL     1       0.773   4.002  23.930  0.00  0.00    -0.240 NA
ATOM     25  C   UNL     1      -0.692   2.544  25.183  0.00  0.00    +0.062 A 
ATOM     26  C   UNL     1       0.391   2.775  24.350  0.00  0.00    +0.130 A 
ATOM     27  C   UNL     1      -1.429   3.641  25.613  0.00  0.00    +0.016 A 
ATOM     28  C   UNL     1      -1.067   4.919  25.201  0.00  0.00    +0.020 A 
ATOM     30  C   UNL     1       0.033   5.045  24.368  0.00  0.00    +0.113 A 
ATOM     33  H   UNL     1       1.115   0.835  24.483  0.00  0.00    +0.148 HD
BRANCH   7  29
ATOM     29  C   UNL     1       2.284   1.808  23.045  0.00  0.00    +0.131 C 
BRANCH  29  31
ATOM     31  C   UNL     1       2.897   0.445  22.766  0.00  0.00    +0.178 C 
BRANCH  31   2
ATOM      2  O   UNL     1       4.262   0.604  22.407  0.00  0.00    -0.381 OA
ATOM     32  C   UNL     1       5.127   0.301  23.494  0.00  0.00    +0.194 C 
ENDBRANCH  31   2
ENDBRANCH  29  31
ENDBRANCH   7  29
ENDBRANCH  20  25
BRANCH  14   9
ATOM      3  N   UNL     1      -3.786  -1.749  24.305  0.00  0.00    -0.287 NA
ATOM      9  C   UNL     1      -2.831  -1.872  25.424  0.00  0.00    +0.146 C 
ATOM     10  C   UNL     1      -1.959  -3.088  25.062  0.00  0.00    +0.030 C 
ATOM     11  C   UNL     1      -3.960  -3.096  23.760  0.00  0.00    +0.085 C 
ATOM     12  C   UNL     1      -2.538  -3.618  23.758  0.00  0.00    +0.017 C 
BRANCH   3  13
ATOM     13  C   UNL     1      -5.055  -1.148  24.695  0.00  0.00    +0.122 C 
BRANCH  13  15
ATOM      4  N   UNL     1      -5.369   2.493  25.131  0.00  0.00    -0.349 N 
ATOM     15  C   UNL     1      -4.999   0.356  24.655  0.00  0.00    -0.008 A 
ATOM     16  C   UNL     1      -4.232   1.151  23.759  0.00  0.00    +0.004 A 
ATOM     17  C   UNL     1      -5.688   1.210  25.486  0.00  0.00    +0.091 A 
ATOM     18  C   UNL     1      -4.482   2.487  24.078  0.00  0.00    +0.049 A 
ATOM     19  C   UNL     1      -3.345   0.861  22.702  0.00  0.00    +0.010 A 
ATOM     21  C   UNL     1      -3.887   3.552  23.393  0.00  0.00    +0.026 A 
ATOM     22  C   UNL     1      -5.898   3.673  25.778  0.00  0.00    +0.149 C 
ATOM     23  C   UNL     1      -2.743   1.916  22.007  0.00  0.00    +0.001 A 
ATOM     24  C   UNL     1      -3.011   3.241  22.348  0.00  0.00    +0.002 A 
ENDBRANCH  13  15
ENDBRANCH   3  13
ENDBRANCH  14   9
TORSDOF 7
ENDMDL
MODEL 3
REMARK VINA RESULT:       2.9      2.017      4.488
REMARK  Name = 45783398
REMARK  9 active torsions:
REMARK  status: ('A' for Active; 'I' for Inactive)
REMARK    1  A    between atoms: O_2  and  C_31
REMARK    2  A    between atoms: O_2  and  C_32
REMARK    3  A    between atoms: N_3  and  C_13
REMARK    4  A    between atoms: N_4  and  C_22
REMARK    5  A    between atoms: N_7  and  C_29
REMARK    6  A    between atoms: C_9  and  C_14
REMARK    7  A    between atoms: C_13  and  C_15
REMARK    8  A    between atoms: C_20  and  C_25
REMARK    9  A    between atoms: C_29  and  C_31
REMARK                            x       y       z     vdW  Elec       q    Type
REMARK                         _______ _______ _______ _____ _____    ______ ____
ROOT
ATOM      1  O   UNL     1      -3.343   1.350  22.262  0.00  0.00    -0.336 OA
ATOM      5  N   UNL     1      -1.940   1.892  23.923  0.00  0.00    -0.190 NA
ATOM      6  N   UNL     1      -2.087   0.856  21.888  0.00  0.00    -0.056 NA
ATOM     14  C   UNL     1      -3.168   1.945  23.471  0.00  0.00    +0.245 A 
ATOM     20  C   UNL     1      -1.314   1.215  22.918  0.00  0.00    +0.205 A 
ENDROOT
BRANCH  20  25
ATOM      7  N   UNL     1       0.388   2.332  24.898  0.00  0.00    -0.326 N 
ATOM      8  N   UNL     1       2.255   1.183  24.008  0.00  0.00    -0.240 NA
ATOM     25  C   UNL     1       0.087   0.913  22.972  0.00  0.00    +0.062 A 
ATOM     26  C   UNL     1       0.931   1.449  23.931  0.00  0.00    +0.130 A 
ATOM     27  C   UNL     1       0.636   0.050  22.031  0.00  0.00    +0.016 A 
ATOM     28  C   UNL     1       1.993  -0.249  22.078  0.00  0.00    +0.020 A 
ATOM     30  C   UNL     1       2.753   0.340  23.077  0.00  0.00    +0.113 A 
ATOM     33  H   UNL     1      -0.468   2.810  24.635  0.00  0.00    +0.148 HD
BRANCH   7  29
ATOM     29  C   UNL     1       1.178   2.932  25.923  0.00  0.00    +0.131 C 
BRANCH  29  31
ATOM     31  C   UNL     1       0.695   2.471  27.288  0.00  0.00    +0.178 C 
BRANCH  31   2
ATOM      2  O   UNL     1       1.716   2.692  28.251  0.00  0.00    -0.381 OA
ATOM     32  C   UNL     1       1.274   2.373  29.563  0.00  0.00    +0.194 C 
ENDBRANCH  31   2
ENDBRANCH  29  31
ENDBRANCH   7  29
ENDBRANCH  20  25
BRANCH  14   9
ATOM      3  N   UNL     1      -4.590   2.147  25.503  0.00  0.00    -0.287 NA
ATOM      9  C   UNL     1      -4.398   2.567  24.101  0.00  0.00    +0.146 C 
ATOM     10  C   UNL     1      -4.323   4.104  24.159  0.00  0.00    +0.030 C 
ATOM     11  C   UNL     1      -5.278   3.251  26.175  0.00  0.00    +0.085 C 
ATOM     12  C   UNL     1      -4.545   4.457  25.623  0.00  0.00    +0.017 C 
BRANCH   3  13
ATOM     13  C   UNL     1      -5.316   0.890  25.632  0.00  0.00    +0.122 C 
BRANCH  13  15
ATOM      4  N   UNL     1      -4.004  -2.078  23.896  0.00  0.00    -0.349 N 
ATOM     15  C   UNL     1      -4.538  -0.267  25.065  0.00  0.00    -0.008 A 
ATOM     16  C   UNL     1      -3.188  -0.606  25.360  0.00  0.00    +0.004 A 
ATOM     17  C   UNL     1      -5.013  -1.191  24.162  0.00  0.00    +0.091 A 
ATOM     18  C   UNL     1      -2.878  -1.745  24.614  0.00  0.00    +0.049 A 
ATOM     19  C   UNL     1      -2.196  -0.050  26.192  0.00  0.00    +0.010 A 
ATOM     21  C   UNL     1      -1.621  -2.358  24.658  0.00  0.00    +0.026 A 
ATOM     22  C   UNL     1      -4.123  -3.198  22.989  0.00  0.00    +0.149 C 
ATOM     23  C   UNL     1      -0.934  -0.653  26.248  0.00  0.00    +0.001 A 
ATOM     24  C   UNL     1      -0.653  -1.790  25.491  0.00  0.00    +0.002 A 
ENDBRANCH  13  15
ENDBRANCH   3  13
ENDBRANCH  14   9
TORSDOF 7
ENDMDL
MODEL 4
REMARK VINA RESULT:       3.1      1.904      5.329
REMARK  Name = 45783398
REMARK  9 active torsions:
REMARK  status: ('A' for Active; 'I' for Inactive)
REMARK    1  A    between atoms: O_2  and  C_31
REMARK    2  A    between atoms: O_2  and  C_32
REMARK    3  A    between atoms: N_3  and  C_13
REMARK    4  A    between atoms: N_4  and  C_22
REMARK    5  A    between atoms: N_7  and  C_29
REMARK    6  A    between atoms: C_9  and  C_14
REMARK    7  A    between atoms: C_13  and  C_15
REMARK    8  A    between atoms: C_20  and  C_25
REMARK    9  A    between atoms: C_29  and  C_31
REMARK                            x       y       z     vdW  Elec       q    Type
REMARK                         _______ _______ _______ _____ _____    ______ ____
ROOT
ATOM      1  O   UNL     1      -0.479   3.250  25.987  0.00  0.00    -0.336 OA
ATOM      5  N   UNL     1      -1.138   2.017  24.237  0.00  0.00    -0.190 NA
ATOM      6  N   UNL     1      -0.179   1.920  26.312  0.00  0.00    -0.056 NA
ATOM     14  C   UNL     1      -1.041   3.217  24.750  0.00  0.00    +0.245 A 
ATOM     20  C   UNL     1      -0.596   1.255  25.230  0.00  0.00    +0.205 A 
ENDROOT
BRANCH  20  25
ATOM      7  N   UNL     1       1.245   0.030  23.448  0.00  0.00    -0.326 N 
ATOM      8  N   UNL     1       0.529  -2.124  24.115  0.00  0.00    -0.240 NA
ATOM     25  C   UNL     1      -0.488  -0.171  25.112  0.00  0.00    +0.062 A 
ATOM     26  C   UNL     1       0.404  -0.784  24.248  0.00  0.00    +0.130 A 
ATOM     27  C   UNL     1      -1.305  -0.983  25.889  0.00  0.00    +0.016 A 
ATOM     28  C   UNL     1      -1.206  -2.366  25.781  0.00  0.00    +0.020 A 
ATOM     30  C   UNL     1      -0.282  -2.882  24.887  0.00  0.00    +0.113 A 
ATOM     33  H   UNL     1       0.914   0.972  23.268  0.00  0.00    +0.148 HD
BRANCH   7  29
ATOM     29  C   UNL     1       2.194  -0.511  22.531  0.00  0.00    +0.131 C 
BRANCH  29  31
ATOM     31  C   UNL     1       3.266   0.520  22.224  0.00  0.00    +0.178 C 
BRANCH  31   2
ATOM      2  O   UNL     1       3.999   0.808  23.407  0.00  0.00    -0.381 OA
ATOM     32  C   UNL     1       5.267   0.167  23.404  0.00  0.00    +0.194 C 
ENDBRANCH  31   2
ENDBRANCH  29  31
ENDBRANCH   7  29
ENDBRANCH  20  25
BRANCH  14   9
ATOM      3  N   UNL     1      -2.788   4.985  24.641  0.00  0.00    -0.287 NA
ATOM      9  C   UNL     1      -1.460   4.550  24.165  0.00  0.00    +0.146 C 
ATOM     10  C   UNL     1      -0.510   5.696  24.557  0.00  0.00    +0.030 C 
ATOM     11  C   UNL     1      -2.775   6.448  24.626  0.00  0.00    +0.085 C 
ATOM     12  C   UNL     1      -1.403   6.754  25.191  0.00  0.00    +0.017 C 
BRANCH   3  13
ATOM     13  C   UNL     1      -3.887   4.439  23.856  0.00  0.00    +0.122 C 
BRANCH  13  15
ATOM      4  N   UNL     1      -5.715   1.961  25.872  0.00  0.00    -0.349 N 
ATOM     15  C   UNL     1      -4.503   3.233  24.515  0.00  0.00    -0.008 A 
ATOM     16  C   UNL     1      -4.274   1.872  24.171  0.00  0.00    +0.004 A 
ATOM     17  C   UNL     1      -5.392   3.256  25.564  0.00  0.00    +0.091 A 
ATOM     18  C   UNL     1      -5.045   1.094  25.037  0.00  0.00    +0.049 A 
ATOM     19  C   UNL     1      -3.482   1.223  23.202  0.00  0.00    +0.010 A 
ATOM     21  C   UNL     1      -5.066  -0.304  24.983  0.00  0.00    +0.026 A 
ATOM     22  C   UNL     1      -6.627   1.577  26.926  0.00  0.00    +0.149 C 
ATOM     23  C   UNL     1      -3.491  -0.175  23.136  0.00  0.00    +0.001 A 
ATOM     24  C   UNL     1      -4.272  -0.925  24.015  0.00  0.00    +0.002 A 
ENDBRANCH  13  15
ENDBRANCH   3  13
ENDBRANCH  14   9
TORSDOF 7
ENDMDL
MODEL 5
REMARK VINA RESULT:       4.2      1.709      3.779
REMARK  Name = 45783398
REMARK  9 active torsions:
REMARK  status: ('A' for Active; 'I' for Inactive)
REMARK    1  A    between atoms: O_2  and  C_31
REMARK    2  A    between atoms: O_2  and  C_32
REMARK    3  A    between atoms: N_3  and  C_13
REMARK    4  A    between atoms: N_4  and  C_22
REMARK    5  A    between atoms: N_7  and  C_29
REMARK    6  A    between atoms: C_9  and  C_14
REMARK    7  A    between atoms: C_13  and  C_15
REMARK    8  A    between atoms: C_20  and  C_25
REMARK    9  A    between atoms: C_29  and  C_31
REMARK                            x       y       z     vdW  Elec       q    Type
REMARK                         _______ _______ _______ _____ _____    ______ ____
ROOT
ATOM      1  O   UNL     1      -1.083  -0.650  26.545  0.00  0.00    -0.336 OA
ATOM      5  N   UNL     1      -2.064   0.530  24.913  0.00  0.00    -0.190 NA
ATOM      6  N   UNL     1      -0.441   0.595  26.525  0.00  0.00    -0.056 NA
ATOM     14  C   UNL     1      -2.023  -0.604  25.565  0.00  0.00    +0.245 A 
ATOM     20  C   UNL     1      -1.076   1.234  25.537  0.00  0.00    +0.205 A 
ENDROOT
BRANCH  20  25
ATOM      7  N   UNL     1       1.165   1.813  23.891  0.00  0.00    -0.326 N 
ATOM      8  N   UNL     1       0.680   4.127  23.964  0.00  0.00    -0.240 NA
ATOM     25  C   UNL     1      -0.745   2.575  25.149  0.00  0.00    +0.062 A 
ATOM     26  C   UNL     1       0.343   2.875  24.347  0.00  0.00    +0.130 A 
ATOM     27  C   UNL     1      -1.541   3.628  25.587  0.00  0.00    +0.016 A 
ATOM     28  C   UNL     1      -1.228   4.930  25.214  0.00  0.00    +0.020 A 
ATOM     30  C   UNL     1      -0.116   5.125  24.409  0.00  0.00    +0.113 A 
ATOM     33  H   UNL     1       1.150   0.966  24.451  0.00  0.00    +0.148 HD
BRANCH   7  29
ATOM     29  C   UNL     1       2.307   2.024  23.063  0.00  0.00    +0.131 C 
BRANCH  29  31
ATOM     31  C   UNL     1       3.075   0.724  22.896  0.00  0.00    +0.178 C 
BRANCH  31   2
ATOM      2  O   UNL     1       2.160  -0.361  22.822  0.00  0.00    -0.381 OA
ATOM     32  C   UNL     1       1.549  -0.443  21.541  0.00  0.00    +0.194 C 
ENDBRANCH  31   2
ENDBRANCH  29  31
ENDBRANCH   7  29
ENDBRANCH  20  25
BRANCH  14   9
ATOM      3  N   UNL     1      -3.593  -1.857  24.096  0.00  0.00    -0.287 NA
ATOM      9  C   UNL     1      -2.866  -1.849  25.381  0.00  0.00    +0.146 C 
ATOM     10  C   UNL     1      -2.025  -3.139  25.362  0.00  0.00    +0.030 C 
ATOM     11  C   UNL     1      -3.754  -3.262  23.720  0.00  0.00    +0.085 C 
ATOM     12  C   UNL     1      -2.392  -3.834  24.058  0.00  0.00    +0.017 C 
BRANCH   3  13
ATOM     13  C   UNL     1      -4.869  -1.156  24.154  0.00  0.00    +0.122 C 
BRANCH  13  15
ATOM      4  N   UNL     1      -4.054   2.338  23.335  0.00  0.00    -0.349 N 
ATOM     15  C   UNL     1      -4.695   0.336  24.048  0.00  0.00    -0.008 A 
ATOM     16  C   UNL     1      -5.250   1.317  24.918  0.00  0.00    +0.004 A 
ATOM     17  C   UNL     1      -3.965   0.995  23.086  0.00  0.00    +0.091 A 
ATOM     18  C   UNL     1      -4.832   2.564  24.449  0.00  0.00    +0.049 A 
ATOM     19  C   UNL     1      -6.069   1.263  26.063  0.00  0.00    +0.010 A 
ATOM     21  C   UNL     1      -5.196   3.765  25.068  0.00  0.00    +0.026 A 
ATOM     22  C   UNL     1      -3.416   3.360  22.535  0.00  0.00    +0.149 C 
ATOM     23  C   UNL     1      -6.441   2.456  26.694  0.00  0.00    +0.001 A 
ATOM     24  C   UNL     1      -6.009   3.687  26.202  0.00  0.00    +0.002 A 
ENDBRANCH  13  15
ENDBRANCH   3  13
ENDBRANCH  14   9
TORSDOF 7
ENDMDL
