MODEL 1
REMARK VINA RESULT:       4.7      0.000      0.000
REMARK  Name = 45361382
REMARK  14 active torsions:
REMARK  status: ('A' for Active; 'I' for Inactive)
REMARK    1  A    between atoms: O_1  and  C_11
REMARK    2  A    between atoms: O_4  and  C_31
REMARK    3  A    between atoms: O_4  and  C_37
REMARK    4  A    between atoms: O_5  and  C_36
REMARK    5  A    between atoms: O_5  and  C_38
REMARK    6  A    between atoms: N_6  and  C_15
REMARK    7  A    between atoms: N_7  and  C_25
REMARK    8  A    between atoms: C_8  and  C_18
REMARK    9  A    between atoms: C_10  and  C_20
REMARK   10  A    between atoms: C_14  and  C_19
REMARK   11  A    between atoms: C_19  and  C_21
REMARK   12  A    between atoms: C_19  and  C_22
REMARK   13  A    between atoms: C_23  and  C_24
REMARK   14  A    between atoms: C_25  and  C_28
REMARK                            x       y       z     vdW  Elec       q    Type
REMARK                         _______ _______ _______ _____ _____    ______ ____
ROOT
ATOM      8  C   UNL     1      -3.220  -1.405  24.840  0.00  0.00    -0.027 C 
ATOM      9  C   UNL     1      -2.917  -0.091  24.045  0.00  0.00    +0.028 C 
ATOM     10  C   UNL     1      -1.387   0.260  24.109  0.00  0.00    +0.012 C 
ATOM     11  C   UNL     1      -3.884   1.054  24.462  0.00  0.00    +0.122 C 
ATOM     12  C   UNL     1      -4.710  -1.783  24.663  0.00  0.00    +0.007 C 
ATOM     13  C   UNL     1      -2.370  -2.556  24.254  0.00  0.00    +0.009 C 
ATOM     14  C   UNL     1      -5.370   0.636  24.382  0.00  0.00    +0.029 C 
ATOM     15  C   UNL     1      -0.538  -0.933  23.588  0.00  0.00    +0.076 C 
ATOM     16  C   UNL     1      -5.660  -0.678  25.107  0.00  0.00    +0.007 C 
ATOM     17  C   UNL     1      -0.876  -2.261  24.264  0.00  0.00    +0.023 C 
ATOM     18  C   UNL     1      -2.918  -1.267  26.354  0.00  0.00    +0.011 C 
ATOM     20  C   UNL     1      -1.014   1.528  23.324  0.00  0.00    +0.010 C 
ENDROOT
BRANCH  15   6
ATOM      3  O   UNL     1       1.353  -0.443  21.483  0.00  0.00    -0.270 OA
ATOM      6  N   UNL     1       0.881  -0.689  23.739  0.00  0.00    -0.308 N 
ATOM     23  C   UNL     1       1.713  -0.463  22.657  0.00  0.00    +0.244 C 
ATOM     39  H   UNL     1       1.267  -0.805  24.671  0.00  0.00    +0.149 HD
BRANCH  23  24
ATOM     24  C   UNL     1       3.149  -0.256  22.980  0.00  0.00    +0.037 A 
ATOM     26  C   UNL     1       3.878  -1.272  23.598  0.00  0.00    +0.016 A 
ATOM     27  C   UNL     1       3.766   0.955  22.667  0.00  0.00    +0.016 A 
ATOM     29  C   UNL     1       5.225  -1.076  23.903  0.00  0.00    +0.046 A 
ATOM     30  C   UNL     1       5.112   1.151  22.972  0.00  0.00    +0.046 A 
ATOM     31  C   UNL     1       5.842   0.135  23.591  0.00  0.00    +0.120 A 
BRANCH  31   4
ATOM      4  O   UNL     1       7.156   0.326  23.889  0.00  0.00    -0.495 OA
ATOM     37  C   UNL     1       8.112  -0.347  23.070  0.00  0.00    +0.277 C 
ENDBRANCH  31   4
ENDBRANCH  23  24
ENDBRANCH  15   6
BRANCH  11   1
ATOM      1  O   UNL     1      -3.723   2.161  23.573  0.00  0.00    -0.391 OA
ATOM     40  H   UNL     1      -2.908   2.021  23.061  0.00  0.00    +0.210 HD
ENDBRANCH  11   1
BRANCH  14  19
ATOM     19  C   UNL     1      -6.299   1.732  24.919  0.00  0.00    +0.077 C 
ATOM     21  C   UNL     1      -7.103   2.345  23.777  0.00  0.00    +0.017 C 
BRANCH  19  22
ATOM      2  O   UNL     1      -5.480   2.897  26.878  0.00  0.00    -0.276 OA
ATOM      7  N   UNL     1      -4.763   3.602  24.788  0.00  0.00    -0.311 N 
ATOM     22  C   UNL     1      -5.483   2.791  25.654  0.00  0.00    +0.216 C 
ATOM     41  H   UNL     1      -4.777   3.416  23.791  0.00  0.00    +0.149 HD
BRANCH   7  25
ATOM     25  C   UNL     1      -3.916   4.678  25.248  0.00  0.00    +0.139 C 
BRANCH  25  28
ATOM     28  C   UNL     1      -2.537   4.197  25.600  0.00  0.00    -0.030 A 
ATOM     32  C   UNL     1      -1.420   4.781  25.003  0.00  0.00    +0.009 A 
ATOM     33  C   UNL     1      -2.375   3.167  26.526  0.00  0.00    +0.009 A 
ATOM     34  C   UNL     1      -0.140   4.333  25.331  0.00  0.00    +0.046 A 
ATOM     35  C   UNL     1      -1.095   2.718  26.854  0.00  0.00    +0.046 A 
ATOM     36  C   UNL     1       0.022   3.302  26.256  0.00  0.00    +0.120 A 
BRANCH  36   5
ATOM      5  O   UNL     1       1.271   2.866  26.577  0.00  0.00    -0.495 OA
ATOM     38  C   UNL     1       1.576   2.735  27.965  0.00  0.00    +0.277 C 
ENDBRANCH  36   5
ENDBRANCH  25  28
ENDBRANCH   7  25
ENDBRANCH  19  22
ENDBRANCH  14  19
TORSDOF 9
ENDMDL
