MODEL 1
REMARK VINA RESULT:      -1.3      0.000      0.000
REMARK  Name = 28961540
REMARK  10 active torsions:
REMARK  status: ('A' for Active; 'I' for Inactive)
REMARK    1  A    between atoms: O_2  and  C_10
REMARK    2  A    between atoms: O_3  and  C_17
REMARK    3  A    between atoms: N_5  and  C_8
REMARK    4  A    between atoms: N_6  and  C_16
REMARK    5  A    between atoms: N_7  and  C_24
REMARK    6  A    between atoms: N_7  and  C_25
REMARK    7  A    between atoms: N_7  and  C_26
REMARK    8  A    between atoms: C_9  and  C_16
REMARK    9  A    between atoms: C_11  and  C_17
REMARK   10  A    between atoms: C_18  and  C_19
REMARK                            x       y       z     vdW  Elec       q    Type
REMARK                         _______ _______ _______ _____ _____    ______ ____
ROOT
ATOM      1  O   UNL     1      11.557  -8.091  32.857  0.00  0.00    -0.365 OA
ATOM      8  C   UNL     1      13.308  -9.415  31.937  0.00  0.00    +0.118 C 
ATOM      9  C   UNL     1      12.994  -8.241  32.873  0.00  0.00    +0.155 C 
ATOM     10  C   UNL     1      12.126  -9.416  30.980  0.00  0.00    +0.165 C 
ATOM     11  C   UNL     1      10.995  -9.041  31.929  0.00  0.00    +0.174 C 
ENDROOT
BRANCH   8   5
ATOM      5  N   UNL     1      14.619  -9.401  31.304  0.00  0.00    -0.295 NA
ATOM     12  C   UNL     1      14.776 -10.470  30.319  0.00  0.00    +0.085 C 
ATOM     13  C   UNL     1      15.704  -9.604  32.263  0.00  0.00    +0.085 C 
ATOM     14  C   UNL     1      16.280 -10.505  30.092  0.00  0.00    +0.017 C 
ATOM     15  C   UNL     1      16.890  -9.939  31.370  0.00  0.00    +0.017 C 
ENDBRANCH   8   5
BRANCH  10   2
ATOM      2  O   UNL     1      12.273  -8.427  29.969  0.00  0.00    -0.388 OA
ATOM     27  H   UNL     1      12.029  -7.570  30.358  0.00  0.00    +0.210 HD
ENDBRANCH  10   2
BRANCH   9  16
ATOM     16  C   UNL     1      13.593  -6.889  32.500  0.00  0.00    +0.137 C 
BRANCH  16   6
ATOM      4  O   UNL     1      15.027  -4.766  31.205  0.00  0.00    -0.270 OA
ATOM      6  N   UNL     1      14.224  -6.943  31.215  0.00  0.00    -0.309 N 
ATOM     18  C   UNL     1      14.903  -5.860  30.661  0.00  0.00    +0.244 C 
ATOM     28  H   UNL     1      14.099  -7.797  30.682  0.00  0.00    +0.149 HD
BRANCH  18  19
ATOM     19  C   UNL     1      15.482  -6.068  29.309  0.00  0.00    +0.037 A 
ATOM     20  C   UNL     1      14.828  -6.886  28.388  0.00  0.00    +0.015 A 
ATOM     21  C   UNL     1      16.681  -5.446  28.961  0.00  0.00    +0.015 A 
ATOM     22  C   UNL     1      15.372  -7.082  27.118  0.00  0.00    +0.024 A 
ATOM     23  C   UNL     1      17.226  -5.643  27.692  0.00  0.00    +0.024 A 
ATOM     24  C   UNL     1      16.571  -6.460  26.770  0.00  0.00    +0.029 A 
BRANCH  24   7
ATOM      7  N   UNL     1      17.122  -6.658  25.487  0.00  0.00    -0.336 N 
ATOM     25  C   UNL     1      17.405  -7.995  25.007  0.00  0.00    +0.129 C 
ATOM     26  C   UNL     1      17.405  -5.524  24.629  0.00  0.00    +0.129 C 
ENDBRANCH  24   7
ENDBRANCH  18  19
ENDBRANCH  16   6
ENDBRANCH   9  16
BRANCH  11  17
ATOM     17  C   UNL     1       9.767  -8.435  31.275  0.00  0.00    +0.190 C 
BRANCH  17   3
ATOM      3  O   UNL     1       8.625  -8.763  32.051  0.00  0.00    -0.392 OA
ATOM     29  H   UNL     1       8.895  -9.453  32.681  0.00  0.00    +0.210 HD
ENDBRANCH  17   3
ENDBRANCH  11  17
TORSDOF 8
ENDMDL
MODEL 2
REMARK VINA RESULT:       0.4     16.875     19.269
REMARK  Name = 28961540
REMARK  10 active torsions:
REMARK  status: ('A' for Active; 'I' for Inactive)
REMARK    1  A    between atoms: O_2  and  C_10
REMARK    2  A    between atoms: O_3  and  C_17
REMARK    3  A    between atoms: N_5  and  C_8
REMARK    4  A    between atoms: N_6  and  C_16
REMARK    5  A    between atoms: N_7  and  C_24
REMARK    6  A    between atoms: N_7  and  C_25
REMARK    7  A    between atoms: N_7  and  C_26
REMARK    8  A    between atoms: C_9  and  C_16
REMARK    9  A    between atoms: C_11  and  C_17
REMARK   10  A    between atoms: C_18  and  C_19
REMARK                            x       y       z     vdW  Elec       q    Type
REMARK                         _______ _______ _______ _____ _____    ______ ____
ROOT
ATOM      1  O   UNL     1      -3.954   3.734  25.735  0.00  0.00    -0.365 OA
ATOM      8  C   UNL     1      -3.784   1.362  25.628  0.00  0.00    +0.118 C 
ATOM      9  C   UNL     1      -2.999   2.674  25.503  0.00  0.00    +0.155 C 
ATOM     10  C   UNL     1      -5.204   1.778  25.275  0.00  0.00    +0.165 C 
ATOM     11  C   UNL     1      -5.262   3.157  25.919  0.00  0.00    +0.174 C 
ENDROOT
BRANCH   8   5
ATOM      5  N   UNL     1      -3.264   0.228  24.877  0.00  0.00    -0.295 NA
ATOM     12  C   UNL     1      -4.309  -0.731  24.519  0.00  0.00    +0.085 C 
ATOM     13  C   UNL     1      -2.285  -0.545  25.640  0.00  0.00    +0.085 C 
ATOM     14  C   UNL     1      -3.514  -1.964  24.113  0.00  0.00    +0.017 C 
ATOM     15  C   UNL     1      -2.185  -1.843  24.853  0.00  0.00    +0.017 C 
ENDBRANCH   8   5
BRANCH  10   2
ATOM      2  O   UNL     1      -5.383   1.879  23.868  0.00  0.00    -0.388 OA
ATOM     27  H   UNL     1      -5.802   1.056  23.564  0.00  0.00    +0.210 HD
ENDBRANCH  10   2
BRANCH   9  16
ATOM     16  C   UNL     1      -2.336   2.950  24.158  0.00  0.00    +0.137 C 
BRANCH  16   6
ATOM      4  O   UNL     1      -1.464   0.937  22.305  0.00  0.00    -0.270 OA
ATOM      6  N   UNL     1      -1.036   2.353  24.093  0.00  0.00    -0.309 N 
ATOM     18  C   UNL     1      -0.697   1.379  23.157  0.00  0.00    +0.244 C 
ATOM     28  H   UNL     1      -0.375   2.623  24.814  0.00  0.00    +0.149 HD
BRANCH  18  19
ATOM     19  C   UNL     1       0.685   0.841  23.236  0.00  0.00    +0.037 A 
ATOM     20  C   UNL     1       1.776   1.707  23.172  0.00  0.00    +0.015 A 
ATOM     21  C   UNL     1       0.892  -0.532  23.374  0.00  0.00    +0.015 A 
ATOM     22  C   UNL     1       3.074   1.202  23.245  0.00  0.00    +0.024 A 
ATOM     23  C   UNL     1       2.190  -1.037  23.447  0.00  0.00    +0.024 A 
ATOM     24  C   UNL     1       3.281  -0.171  23.383  0.00  0.00    +0.029 A 
BRANCH  24   7
ATOM      7  N   UNL     1       4.593  -0.682  23.458  0.00  0.00    -0.336 N 
ATOM     25  C   UNL     1       5.733   0.181  23.221  0.00  0.00    +0.129 C 
ATOM     26  C   UNL     1       4.819  -2.078  23.780  0.00  0.00    +0.129 C 
ENDBRANCH  24   7
ENDBRANCH  18  19
ENDBRANCH  16   6
ENDBRANCH   9  16
BRANCH  11  17
ATOM     17  C   UNL     1      -6.309   4.099  25.352  0.00  0.00    +0.190 C 
BRANCH  17   3
ATOM      3  O   UNL     1      -6.355   5.269  26.154  0.00  0.00    -0.392 OA
ATOM     29  H   UNL     1      -7.100   5.806  25.834  0.00  0.00    +0.210 HD
ENDBRANCH  17   3
ENDBRANCH  11  17
TORSDOF 8
ENDMDL
MODEL 3
REMARK VINA RESULT:       0.4     16.130     18.403
REMARK  Name = 28961540
REMARK  10 active torsions:
REMARK  status: ('A' for Active; 'I' for Inactive)
REMARK    1  A    between atoms: O_2  and  C_10
REMARK    2  A    between atoms: O_3  and  C_17
REMARK    3  A    between atoms: N_5  and  C_8
REMARK    4  A    between atoms: N_6  and  C_16
REMARK    5  A    between atoms: N_7  and  C_24
REMARK    6  A    between atoms: N_7  and  C_25
REMARK    7  A    between atoms: N_7  and  C_26
REMARK    8  A    between atoms: C_9  and  C_16
REMARK    9  A    between atoms: C_11  and  C_17
REMARK   10  A    between atoms: C_18  and  C_19
REMARK                            x       y       z     vdW  Elec       q    Type
REMARK                         _______ _______ _______ _____ _____    ______ ____
ROOT
ATOM      1  O   UNL     1      -2.521   3.032  25.396  0.00  0.00    -0.365 OA
ATOM      8  C   UNL     1      -3.101   0.724  25.338  0.00  0.00    +0.118 C 
ATOM      9  C   UNL     1      -1.978   1.733  25.067  0.00  0.00    +0.155 C 
ATOM     10  C   UNL     1      -4.361   1.560  25.172  0.00  0.00    +0.165 C 
ATOM     11  C   UNL     1      -3.904   2.882  25.775  0.00  0.00    +0.174 C 
ENDROOT
BRANCH   8   5
ATOM      5  N   UNL     1      -3.063  -0.505  24.557  0.00  0.00    -0.295 NA
ATOM     12  C   UNL     1      -4.389  -1.098  24.384  0.00  0.00    +0.085 C 
ATOM     13  C   UNL     1      -2.260  -1.547  25.195  0.00  0.00    +0.085 C 
ATOM     14  C   UNL     1      -4.071  -2.508  23.908  0.00  0.00    +0.017 C 
ATOM     15  C   UNL     1      -2.674  -2.804  24.444  0.00  0.00    +0.017 C 
ENDBRANCH   8   5
BRANCH  10   2
ATOM      2  O   UNL     1      -4.695   1.731  23.800  0.00  0.00    -0.388 OA
ATOM     27  H   UNL     1      -5.527   2.234  23.761  0.00  0.00    +0.210 HD
ENDBRANCH  10   2
BRANCH   9  16
ATOM     16  C   UNL     1      -1.458   1.811  23.636  0.00  0.00    +0.137 C 
BRANCH  16   6
ATOM      4  O   UNL     1      -0.186  -0.620  22.789  0.00  0.00    -0.270 OA
ATOM      6  N   UNL     1      -0.050   1.556  23.585  0.00  0.00    -0.309 N 
ATOM     18  C   UNL     1       0.483   0.342  23.158  0.00  0.00    +0.244 C 
ATOM     28  H   UNL     1       0.557   2.285  23.943  0.00  0.00    +0.149 HD
BRANCH  18  19
ATOM     19  C   UNL     1       1.964   0.226  23.188  0.00  0.00    +0.037 A 
ATOM     20  C   UNL     1       2.562  -0.981  23.548  0.00  0.00    +0.015 A 
ATOM     21  C   UNL     1       2.756   1.326  22.858  0.00  0.00    +0.015 A 
ATOM     22  C   UNL     1       3.953  -1.090  23.577  0.00  0.00    +0.024 A 
ATOM     23  C   UNL     1       4.146   1.218  22.888  0.00  0.00    +0.024 A 
ATOM     24  C   UNL     1       4.745   0.010  23.247  0.00  0.00    +0.029 A 
BRANCH  24   7
ATOM      7  N   UNL     1       6.150  -0.099  23.276  0.00  0.00    -0.336 N 
ATOM     25  C   UNL     1       6.944   0.834  24.051  0.00  0.00    +0.129 C 
ATOM     26  C   UNL     1       6.820  -1.150  22.536  0.00  0.00    +0.129 C 
ENDBRANCH  24   7
ENDBRANCH  18  19
ENDBRANCH  16   6
ENDBRANCH   9  16
BRANCH  11  17
ATOM     17  C   UNL     1      -4.681   4.106  25.330  0.00  0.00    +0.190 C 
BRANCH  17   3
ATOM      3  O   UNL     1      -6.042   3.944  25.696  0.00  0.00    -0.392 OA
ATOM     29  H   UNL     1      -6.484   3.484  24.961  0.00  0.00    +0.210 HD
ENDBRANCH  17   3
ENDBRANCH  11  17
TORSDOF 8
ENDMDL
MODEL 4
REMARK VINA RESULT:       0.4     16.113     18.392
REMARK  Name = 28961540
REMARK  10 active torsions:
REMARK  status: ('A' for Active; 'I' for Inactive)
REMARK    1  A    between atoms: O_2  and  C_10
REMARK    2  A    between atoms: O_3  and  C_17
REMARK    3  A    between atoms: N_5  and  C_8
REMARK    4  A    between atoms: N_6  and  C_16
REMARK    5  A    between atoms: N_7  and  C_24
REMARK    6  A    between atoms: N_7  and  C_25
REMARK    7  A    between atoms: N_7  and  C_26
REMARK    8  A    between atoms: C_9  and  C_16
REMARK    9  A    between atoms: C_11  and  C_17
REMARK   10  A    between atoms: C_18  and  C_19
REMARK                            x       y       z     vdW  Elec       q    Type
REMARK                         _______ _______ _______ _____ _____    ______ ____
ROOT
ATOM      1  O   UNL     1      -2.480   2.983  25.390  0.00  0.00    -0.365 OA
ATOM      8  C   UNL     1      -3.105   0.687  25.311  0.00  0.00    +0.118 C 
ATOM      9  C   UNL     1      -1.963   1.677  25.050  0.00  0.00    +0.155 C 
ATOM     10  C   UNL     1      -4.348   1.549  25.151  0.00  0.00    +0.165 C 
ATOM     11  C   UNL     1      -3.865   2.857  25.767  0.00  0.00    +0.174 C 
ENDROOT
BRANCH   8   5
ATOM      5  N   UNL     1      -3.090  -0.535  24.520  0.00  0.00    -0.295 NA
ATOM     12  C   UNL     1      -4.424  -1.114  24.362  0.00  0.00    +0.085 C 
ATOM     13  C   UNL     1      -2.288  -1.590  25.136  0.00  0.00    +0.085 C 
ATOM     14  C   UNL     1      -4.127  -2.522  23.869  0.00  0.00    +0.017 C 
ATOM     15  C   UNL     1      -2.725  -2.837  24.381  0.00  0.00    +0.017 C 
ENDBRANCH   8   5
BRANCH  10   2
ATOM      2  O   UNL     1      -4.678   1.739  23.781  0.00  0.00    -0.388 OA
ATOM     27  H   UNL     1      -4.848   0.863  23.395  0.00  0.00    +0.210 HD
ENDBRANCH  10   2
BRANCH   9  16
ATOM     16  C   UNL     1      -1.439   1.757  23.620  0.00  0.00    +0.137 C 
BRANCH  16   6
ATOM      4  O   UNL     1      -0.148  -0.673  22.801  0.00  0.00    -0.270 OA
ATOM      6  N   UNL     1      -0.029   1.512  23.573  0.00  0.00    -0.309 N 
ATOM     18  C   UNL     1       0.514   0.297  23.160  0.00  0.00    +0.244 C 
ATOM     28  H   UNL     1       0.572   2.250  23.923  0.00  0.00    +0.149 HD
BRANCH  18  19
ATOM     19  C   UNL     1       1.995   0.193  23.192  0.00  0.00    +0.037 A 
ATOM     20  C   UNL     1       2.779   1.289  22.836  0.00  0.00    +0.015 A 
ATOM     21  C   UNL     1       2.602  -1.003  23.577  0.00  0.00    +0.015 A 
ATOM     22  C   UNL     1       4.171   1.192  22.864  0.00  0.00    +0.024 A 
ATOM     23  C   UNL     1       3.993  -1.102  23.605  0.00  0.00    +0.024 A 
ATOM     24  C   UNL     1       4.778  -0.005  23.249  0.00  0.00    +0.029 A 
BRANCH  24   7
ATOM      7  N   UNL     1       6.184  -0.105  23.279  0.00  0.00    -0.336 N 
ATOM     25  C   UNL     1       6.862  -1.147  22.535  0.00  0.00    +0.129 C 
ATOM     26  C   UNL     1       6.970   0.838  24.050  0.00  0.00    +0.129 C 
ENDBRANCH  24   7
ENDBRANCH  18  19
ENDBRANCH  16   6
ENDBRANCH   9  16
BRANCH  11  17
ATOM     17  C   UNL     1      -4.618   4.101  25.332  0.00  0.00    +0.190 C 
BRANCH  17   3
ATOM      3  O   UNL     1      -5.985   3.956  25.683  0.00  0.00    -0.392 OA
ATOM     29  H   UNL     1      -6.078   4.256  26.603  0.00  0.00    +0.210 HD
ENDBRANCH  17   3
ENDBRANCH  11  17
TORSDOF 8
ENDMDL
MODEL 5
REMARK VINA RESULT:       0.7     16.501     19.094
REMARK  Name = 28961540
REMARK  10 active torsions:
REMARK  status: ('A' for Active; 'I' for Inactive)
REMARK    1  A    between atoms: O_2  and  C_10
REMARK    2  A    between atoms: O_3  and  C_17
REMARK    3  A    between atoms: N_5  and  C_8
REMARK    4  A    between atoms: N_6  and  C_16
REMARK    5  A    between atoms: N_7  and  C_24
REMARK    6  A    between atoms: N_7  and  C_25
REMARK    7  A    between atoms: N_7  and  C_26
REMARK    8  A    between atoms: C_9  and  C_16
REMARK    9  A    between atoms: C_11  and  C_17
REMARK   10  A    between atoms: C_18  and  C_19
REMARK                            x       y       z     vdW  Elec       q    Type
REMARK                         _______ _______ _______ _____ _____    ______ ____
ROOT
ATOM      1  O   UNL     1      -3.462  -1.244  23.550  0.00  0.00    -0.365 OA
ATOM      8  C   UNL     1      -4.607   0.087  25.157  0.00  0.00    +0.118 C 
ATOM      9  C   UNL     1      -4.179   0.003  23.687  0.00  0.00    +0.155 C 
ATOM     10  C   UNL     1      -3.568  -0.768  25.866  0.00  0.00    +0.165 C 
ATOM     11  C   UNL     1      -3.369  -1.877  24.841  0.00  0.00    +0.174 C 
ENDROOT
BRANCH   8   5
ATOM      5  N   UNL     1      -4.786   1.426  25.700  0.00  0.00    -0.295 NA
ATOM     12  C   UNL     1      -6.017   2.059  25.229  0.00  0.00    +0.085 C 
ATOM     13  C   UNL     1      -3.714   2.337  25.304  0.00  0.00    +0.085 C 
ATOM     14  C   UNL     1      -5.804   3.523  25.586  0.00  0.00    +0.017 C 
ATOM     15  C   UNL     1      -4.290   3.707  25.632  0.00  0.00    +0.017 C 
ENDBRANCH   8   5
BRANCH  10   2
ATOM      2  O   UNL     1      -2.354  -0.053  26.064  0.00  0.00    -0.388 OA
ATOM     27  H   UNL     1      -2.557   0.725  26.610  0.00  0.00    +0.210 HD
ENDBRANCH  10   2
BRANCH   9  16
ATOM     16  C   UNL     1      -3.262   1.110  23.177  0.00  0.00    +0.137 C 
BRANCH  16   6
ATOM      4  O   UNL     1      -0.981   2.798  23.616  0.00  0.00    -0.270 OA
ATOM      6  N   UNL     1      -1.890   0.700  23.217  0.00  0.00    -0.309 N 
ATOM     18  C   UNL     1      -0.841   1.590  23.438  0.00  0.00    +0.244 C 
ATOM     28  H   UNL     1      -1.700  -0.274  23.007  0.00  0.00    +0.149 HD
BRANCH  18  19
ATOM     19  C   UNL     1       0.527   1.013  23.424  0.00  0.00    +0.037 A 
ATOM     20  C   UNL     1       0.700  -0.371  23.425  0.00  0.00    +0.015 A 
ATOM     21  C   UNL     1       1.639   1.855  23.414  0.00  0.00    +0.015 A 
ATOM     22  C   UNL     1       1.985  -0.914  23.413  0.00  0.00    +0.024 A 
ATOM     23  C   UNL     1       2.924   1.312  23.403  0.00  0.00    +0.024 A 
ATOM     24  C   UNL     1       3.098  -0.072  23.403  0.00  0.00    +0.029 A 
BRANCH  24   7
ATOM      7  N   UNL     1       4.397  -0.619  23.391  0.00  0.00    -0.336 N 
ATOM     25  C   UNL     1       5.534   0.196  23.014  0.00  0.00    +0.129 C 
ATOM     26  C   UNL     1       4.613  -2.004  23.764  0.00  0.00    +0.129 C 
ENDBRANCH  24   7
ENDBRANCH  18  19
ENDBRANCH  16   6
ENDBRANCH   9  16
BRANCH  11  17
ATOM     17  C   UNL     1      -2.053  -2.627  24.937  0.00  0.00    +0.190 C 
BRANCH  17   3
ATOM      3  O   UNL     1      -1.580  -2.894  23.626  0.00  0.00    -0.392 OA
ATOM     29  H   UNL     1      -1.467  -3.857  23.552  0.00  0.00    +0.210 HD
ENDBRANCH  17   3
ENDBRANCH  11  17
TORSDOF 8
ENDMDL
MODEL 6
REMARK VINA RESULT:       1.7     16.970     19.521
REMARK  Name = 28961540
REMARK  10 active torsions:
REMARK  status: ('A' for Active; 'I' for Inactive)
REMARK    1  A    between atoms: O_2  and  C_10
REMARK    2  A    between atoms: O_3  and  C_17
REMARK    3  A    between atoms: N_5  and  C_8
REMARK    4  A    between atoms: N_6  and  C_16
REMARK    5  A    between atoms: N_7  and  C_24
REMARK    6  A    between atoms: N_7  and  C_25
REMARK    7  A    between atoms: N_7  and  C_26
REMARK    8  A    between atoms: C_9  and  C_16
REMARK    9  A    between atoms: C_11  and  C_17
REMARK   10  A    between atoms: C_18  and  C_19
REMARK                            x       y       z     vdW  Elec       q    Type
REMARK                         _______ _______ _______ _____ _____    ______ ____
ROOT
ATOM      1  O   UNL     1      -5.543   1.190  24.758  0.00  0.00    -0.365 OA
ATOM      8  C   UNL     1      -3.841   2.820  24.423  0.00  0.00    +0.118 C 
ATOM      9  C   UNL     1      -4.146   1.317  24.412  0.00  0.00    +0.155 C 
ATOM     10  C   UNL     1      -4.879   3.373  25.387  0.00  0.00    +0.165 C 
ATOM     11  C   UNL     1      -6.078   2.498  25.043  0.00  0.00    +0.174 C 
ENDROOT
BRANCH   8   5
ATOM      5  N   UNL     1      -2.464   3.195  24.711  0.00  0.00    -0.295 NA
ATOM     12  C   UNL     1      -2.345   4.580  25.164  0.00  0.00    +0.085 C 
ATOM     13  C   UNL     1      -1.602   3.105  23.533  0.00  0.00    +0.085 C 
ATOM     14  C   UNL     1      -0.855   4.857  25.026  0.00  0.00    +0.017 C 
ATOM     15  C   UNL     1      -0.368   3.889  23.952  0.00  0.00    +0.017 C 
ENDBRANCH   8   5
BRANCH  10   2
ATOM      2  O   UNL     1      -4.492   3.173  26.741  0.00  0.00    -0.388 OA
ATOM     27  H   UNL     1      -3.607   2.770  26.737  0.00  0.00    +0.210 HD
ENDBRANCH  10   2
BRANCH   9  16
ATOM     16  C   UNL     1      -3.359   0.452  25.391  0.00  0.00    +0.137 C 
BRANCH  16   6
ATOM      4  O   UNL     1      -2.088  -1.685  23.953  0.00  0.00    -0.270 OA
ATOM      6  N   UNL     1      -1.978   0.375  25.016  0.00  0.00    -0.309 N 
ATOM     18  C   UNL     1      -1.444  -0.703  24.315  0.00  0.00    +0.244 C 
ATOM     28  H   UNL     1      -1.376   1.122  25.346  0.00  0.00    +0.149 HD
BRANCH  18  19
ATOM     19  C   UNL     1       0.012  -0.643  24.024  0.00  0.00    +0.037 A 
ATOM     20  C   UNL     1       0.862  -1.633  24.514  0.00  0.00    +0.015 A 
ATOM     21  C   UNL     1       0.528   0.405  23.261  0.00  0.00    +0.015 A 
ATOM     22  C   UNL     1       2.230  -1.576  24.242  0.00  0.00    +0.024 A 
ATOM     23  C   UNL     1       1.894   0.462  22.989  0.00  0.00    +0.024 A 
ATOM     24  C   UNL     1       2.746  -0.528  23.479  0.00  0.00    +0.029 A 
BRANCH  24   7
ATOM      7  N   UNL     1       4.127  -0.470  23.203  0.00  0.00    -0.336 N 
ATOM     25  C   UNL     1       5.036  -1.427  23.801  0.00  0.00    +0.129 C 
ATOM     26  C   UNL     1       4.655   0.544  22.312  0.00  0.00    +0.129 C 
ENDBRANCH  24   7
ENDBRANCH  18  19
ENDBRANCH  16   6
ENDBRANCH   9  16
BRANCH  11  17
ATOM     17  C   UNL     1      -7.135   2.382  26.125  0.00  0.00    +0.190 C 
BRANCH  17   3
ATOM      3  O   UNL     1      -6.701   1.435  27.090  0.00  0.00    -0.392 OA
ATOM     29  H   UNL     1      -5.974   0.929  26.688  0.00  0.00    +0.210 HD
ENDBRANCH  17   3
ENDBRANCH  11  17
TORSDOF 8
ENDMDL
MODEL 7
REMARK VINA RESULT:       2.2     16.412     19.279
REMARK  Name = 28961540
REMARK  10 active torsions:
REMARK  status: ('A' for Active; 'I' for Inactive)
REMARK    1  A    between atoms: O_2  and  C_10
REMARK    2  A    between atoms: O_3  and  C_17
REMARK    3  A    between atoms: N_5  and  C_8
REMARK    4  A    between atoms: N_6  and  C_16
REMARK    5  A    between atoms: N_7  and  C_24
REMARK    6  A    between atoms: N_7  and  C_25
REMARK    7  A    between atoms: N_7  and  C_26
REMARK    8  A    between atoms: C_9  and  C_16
REMARK    9  A    between atoms: C_11  and  C_17
REMARK   10  A    between atoms: C_18  and  C_19
REMARK                            x       y       z     vdW  Elec       q    Type
REMARK                         _______ _______ _______ _____ _____    ______ ____
ROOT
ATOM      1  O   UNL     1       3.647   1.486  22.993  0.00  0.00    -0.365 OA
ATOM      8  C   UNL     1       1.957  -0.095  22.438  0.00  0.00    +0.118 C 
ATOM      9  C   UNL     1       2.216   1.291  23.042  0.00  0.00    +0.155 C 
ATOM     10  C   UNL     1       3.264  -0.830  22.692  0.00  0.00    +0.165 C 
ATOM     11  C   UNL     1       4.267   0.295  22.469  0.00  0.00    +0.174 C 
ENDROOT
BRANCH   8   5
ATOM      5  N   UNL     1       0.758  -0.783  22.898  0.00  0.00    -0.295 NA
ATOM     12  C   UNL     1      -0.450   0.021  22.717  0.00  0.00    +0.085 C 
ATOM     13  C   UNL     1       0.801  -1.088  24.327  0.00  0.00    +0.085 C 
ATOM     14  C   UNL     1      -1.470  -0.697  23.589  0.00  0.00    +0.017 C 
ATOM     15  C   UNL     1      -0.647  -1.423  24.649  0.00  0.00    +0.017 C 
ENDBRANCH   8   5
BRANCH  10   2
ATOM      2  O   UNL     1       3.343  -1.306  24.030  0.00  0.00    -0.388 OA
ATOM     27  H   UNL     1       4.014  -0.776  24.492  0.00  0.00    +0.210 HD
ENDBRANCH  10   2
BRANCH   9  16
ATOM     16  C   UNL     1       1.783   1.499  24.489  0.00  0.00    +0.137 C 
BRANCH  16   6
ATOM      4  O   UNL     1       0.425   2.676  26.729  0.00  0.00    -0.270 OA
ATOM      6  N   UNL     1       0.392   1.833  24.567  0.00  0.00    -0.309 N 
ATOM     18  C   UNL     1      -0.186   2.405  25.698  0.00  0.00    +0.244 C 
ATOM     28  H   UNL     1      -0.184   1.570  23.774  0.00  0.00    +0.149 HD
BRANCH  18  19
ATOM     19  C   UNL     1      -1.646   2.669  25.630  0.00  0.00    +0.037 A 
ATOM     20  C   UNL     1      -2.511   1.683  25.158  0.00  0.00    +0.015 A 
ATOM     21  C   UNL     1      -2.151   3.905  26.037  0.00  0.00    +0.015 A 
ATOM     22  C   UNL     1      -3.883   1.931  25.093  0.00  0.00    +0.024 A 
ATOM     23  C   UNL     1      -3.522   4.153  25.971  0.00  0.00    +0.024 A 
ATOM     24  C   UNL     1      -4.388   3.166  25.499  0.00  0.00    +0.029 A 
BRANCH  24   7
ATOM      7  N   UNL     1      -5.774   3.418  25.434  0.00  0.00    -0.336 N 
ATOM     25  C   UNL     1      -6.708   2.333  25.210  0.00  0.00    +0.129 C 
ATOM     26  C   UNL     1      -6.283   4.765  25.597  0.00  0.00    +0.129 C 
ENDBRANCH  24   7
ENDBRANCH  18  19
ENDBRANCH  16   6
ENDBRANCH   9  16
BRANCH  11  17
ATOM     17  C   UNL     1       5.620   0.103  23.129  0.00  0.00    +0.190 C 
BRANCH  17   3
ATOM      3  O   UNL     1       5.484   0.315  24.526  0.00  0.00    -0.392 OA
ATOM     29  H   UNL     1       4.915  -0.396  24.869  0.00  0.00    +0.210 HD
ENDBRANCH  17   3
ENDBRANCH  11  17
TORSDOF 8
ENDMDL
MODEL 8
REMARK VINA RESULT:       2.5     16.011     18.474
REMARK  Name = 28961540
REMARK  10 active torsions:
REMARK  status: ('A' for Active; 'I' for Inactive)
REMARK    1  A    between atoms: O_2  and  C_10
REMARK    2  A    between atoms: O_3  and  C_17
REMARK    3  A    between atoms: N_5  and  C_8
REMARK    4  A    between atoms: N_6  and  C_16
REMARK    5  A    between atoms: N_7  and  C_24
REMARK    6  A    between atoms: N_7  and  C_25
REMARK    7  A    between atoms: N_7  and  C_26
REMARK    8  A    between atoms: C_9  and  C_16
REMARK    9  A    between atoms: C_11  and  C_17
REMARK   10  A    between atoms: C_18  and  C_19
REMARK                            x       y       z     vdW  Elec       q    Type
REMARK                         _______ _______ _______ _____ _____    ______ ____
ROOT
ATOM      1  O   UNL     1      -2.328  -1.304  23.791  0.00  0.00    -0.365 OA
ATOM      8  C   UNL     1      -3.614   0.693  23.954  0.00  0.00    +0.118 C 
ATOM      9  C   UNL     1      -2.189   0.126  23.949  0.00  0.00    +0.155 C 
ATOM     10  C   UNL     1      -4.447  -0.480  24.448  0.00  0.00    +0.165 C 
ATOM     11  C   UNL     1      -3.730  -1.641  23.771  0.00  0.00    +0.174 C 
ENDROOT
BRANCH   8   5
ATOM      5  N   UNL     1      -3.807   1.941  24.677  0.00  0.00    -0.295 NA
ATOM     12  C   UNL     1      -5.198   2.144  25.079  0.00  0.00    +0.085 C 
ATOM     13  C   UNL     1      -3.469   3.113  23.870  0.00  0.00    +0.085 C 
ATOM     14  C   UNL     1      -5.234   3.621  25.446  0.00  0.00    +0.017 C 
ATOM     15  C   UNL     1      -4.100   4.258  24.649  0.00  0.00    +0.017 C 
ENDBRANCH   8   5
BRANCH  10   2
ATOM      2  O   UNL     1      -4.377  -0.610  25.862  0.00  0.00    -0.388 OA
ATOM     27  H   UNL     1      -5.179  -0.205  26.235  0.00  0.00    +0.210 HD
ENDBRANCH  10   2
BRANCH   9  16
ATOM     16  C   UNL     1      -1.354   0.361  25.204  0.00  0.00    +0.137 C 
BRANCH  16   6
ATOM      4  O   UNL     1      -0.122   0.495  22.614  0.00  0.00    -0.270 OA
ATOM      6  N   UNL     1       0.045   0.265  24.917  0.00  0.00    -0.309 N 
ATOM     18  C   UNL     1       0.560   0.341  23.625  0.00  0.00    +0.244 C 
ATOM     28  H   UNL     1       0.658   0.067  25.702  0.00  0.00    +0.149 HD
BRANCH  18  19
ATOM     19  C   UNL     1       2.032   0.198  23.492  0.00  0.00    +0.037 A 
ATOM     20  C   UNL     1       2.799   1.271  23.041  0.00  0.00    +0.015 A 
ATOM     21  C   UNL     1       2.647  -1.011  23.818  0.00  0.00    +0.015 A 
ATOM     22  C   UNL     1       4.182   1.136  22.915  0.00  0.00    +0.024 A 
ATOM     23  C   UNL     1       4.030  -1.147  23.692  0.00  0.00    +0.024 A 
ATOM     24  C   UNL     1       4.798  -0.073  23.240  0.00  0.00    +0.029 A 
BRANCH  24   7
ATOM      7  N   UNL     1       6.195  -0.210  23.114  0.00  0.00    -0.336 N 
ATOM     25  C   UNL     1       7.088   0.699  23.804  0.00  0.00    +0.129 C 
ATOM     26  C   UNL     1       6.757  -1.267  22.297  0.00  0.00    +0.129 C 
ENDBRANCH  24   7
ENDBRANCH  18  19
ENDBRANCH  16   6
ENDBRANCH   9  16
BRANCH  11  17
ATOM     17  C   UNL     1      -3.928  -2.998  24.420  0.00  0.00    +0.190 C 
BRANCH  17   3
ATOM      3  O   UNL     1      -3.205  -3.033  25.641  0.00  0.00    -0.392 OA
ATOM     29  H   UNL     1      -3.650  -3.677  26.219  0.00  0.00    +0.210 HD
ENDBRANCH  17   3
ENDBRANCH  11  17
TORSDOF 8
ENDMDL
MODEL 9
REMARK VINA RESULT:       2.6     17.255     20.276
REMARK  Name = 28961540
REMARK  10 active torsions:
REMARK  status: ('A' for Active; 'I' for Inactive)
REMARK    1  A    between atoms: O_2  and  C_10
REMARK    2  A    between atoms: O_3  and  C_17
REMARK    3  A    between atoms: N_5  and  C_8
REMARK    4  A    between atoms: N_6  and  C_16
REMARK    5  A    between atoms: N_7  and  C_24
REMARK    6  A    between atoms: N_7  and  C_25
REMARK    7  A    between atoms: N_7  and  C_26
REMARK    8  A    between atoms: C_9  and  C_16
REMARK    9  A    between atoms: C_11  and  C_17
REMARK   10  A    between atoms: C_18  and  C_19
REMARK                            x       y       z     vdW  Elec       q    Type
REMARK                         _______ _______ _______ _____ _____    ______ ____
ROOT
ATOM      1  O   UNL     1       2.069  -0.260  21.754  0.00  0.00    -0.365 OA
ATOM      8  C   UNL     1       0.629  -0.840  23.558  0.00  0.00    +0.118 C 
ATOM      9  C   UNL     1       0.728  -0.721  22.032  0.00  0.00    +0.155 C 
ATOM     10  C   UNL     1       1.666   0.159  24.048  0.00  0.00    +0.165 C 
ATOM     11  C   UNL     1       2.755  -0.029  23.000  0.00  0.00    +0.174 C 
ENDROOT
BRANCH   8   5
ATOM      5  N   UNL     1      -0.701  -0.687  24.130  0.00  0.00    -0.295 NA
ATOM     12  C   UNL     1      -0.661  -0.289  25.537  0.00  0.00    +0.085 C 
ATOM     13  C   UNL     1      -1.466  -1.933  24.110  0.00  0.00    +0.085 C 
ATOM     14  C   UNL     1      -2.081  -0.567  26.010  0.00  0.00    +0.017 C 
ATOM     15  C   UNL     1      -2.608  -1.649  25.073  0.00  0.00    +0.017 C 
ENDBRANCH   8   5
BRANCH  10   2
ATOM      2  O   UNL     1       1.166   1.489  24.010  0.00  0.00    -0.388 OA
ATOM     27  H   UNL     1       0.219   1.454  24.229  0.00  0.00    +0.210 HD
ENDBRANCH  10   2
BRANCH   9  16
ATOM     16  C   UNL     1      -0.233   0.254  21.359  0.00  0.00    +0.137 C 
BRANCH  16   6
ATOM      4  O   UNL     1      -2.327   2.142  20.817  0.00  0.00    -0.270 OA
ATOM      6  N   UNL     1      -1.242   0.697  22.273  0.00  0.00    -0.309 N 
ATOM     18  C   UNL     1      -2.225   1.620  21.925  0.00  0.00    +0.244 C 
ATOM     28  H   UNL     1      -1.173   0.357  23.226  0.00  0.00    +0.149 HD
BRANCH  18  19
ATOM     19  C   UNL     1      -3.184   1.996  22.995  0.00  0.00    +0.037 A 
ATOM     20  C   UNL     1      -3.917   1.010  23.653  0.00  0.00    +0.015 A 
ATOM     21  C   UNL     1      -3.354   3.338  23.339  0.00  0.00    +0.015 A 
ATOM     22  C   UNL     1      -4.819   1.363  24.657  0.00  0.00    +0.024 A 
ATOM     23  C   UNL     1      -4.255   3.691  24.343  0.00  0.00    +0.024 A 
ATOM     24  C   UNL     1      -4.988   2.704  25.002  0.00  0.00    +0.029 A 
BRANCH  24   7
ATOM      7  N   UNL     1      -5.899   3.063  26.017  0.00  0.00    -0.336 N 
ATOM     25  C   UNL     1      -6.430   2.057  26.916  0.00  0.00    +0.129 C 
ATOM     26  C   UNL     1      -6.311   4.443  26.179  0.00  0.00    +0.129 C 
ENDBRANCH  24   7
ENDBRANCH  18  19
ENDBRANCH  16   6
ENDBRANCH   9  16
BRANCH  11  17
ATOM     17  C   UNL     1       3.712   1.137  22.836  0.00  0.00    +0.190 C 
BRANCH  17   3
ATOM      3  O   UNL     1       4.855   0.910  23.645  0.00  0.00    -0.392 OA
ATOM     29  H   UNL     1       5.496   1.613  23.440  0.00  0.00    +0.210 HD
ENDBRANCH  17   3
ENDBRANCH  11  17
TORSDOF 8
ENDMDL
