MODEL 1
REMARK VINA RESULT:      -5.9      0.000      0.000
REMARK  Name = 75536569
REMARK  8 active torsions:
REMARK  status: ('A' for Active; 'I' for Inactive)
REMARK    1  A    between atoms: O_2  and  C_8
REMARK    2  A    between atoms: N_4  and  C_16
REMARK    3  A    between atoms: N_5  and  C_10
REMARK    4  A    between atoms: N_5  and  C_18
REMARK    5  A    between atoms: C_7  and  C_16
REMARK    6  A    between atoms: C_9  and  C_17
REMARK    7  A    between atoms: C_18  and  C_19
REMARK    8  A    between atoms: C_22  and  C_25
REMARK                            x       y       z     vdW  Elec       q    Type
REMARK                         _______ _______ _______ _____ _____    ______ ____
ROOT
ATOM      1  O   UNL     1      -4.129   3.465  26.197  0.00  0.00    -0.371 OA
ATOM      7  C   UNL     1      -4.569   3.154  24.864  0.00  0.00    +0.165 C 
ATOM      8  C   UNL     1      -3.306   2.983  24.032  0.00  0.00    +0.164 C 
ATOM     10  C   UNL     1      -2.394   4.016  24.670  0.00  0.00    +0.111 C 
ATOM     15  C   UNL     1      -2.747   3.860  26.140  0.00  0.00    +0.181 C 
ENDROOT
BRANCH   8   2
ATOM      2  O   UNL     1      -3.540   3.235  22.660  0.00  0.00    -0.388 OA
ATOM     28  H   UNL     1      -2.858   2.774  22.143  0.00  0.00    +0.210 HD
ENDBRANCH   8   2
BRANCH  10   5
ATOM      5  N   UNL     1      -0.983   3.794  24.400  0.00  0.00    -0.305 NA
ATOM     27  H   UNL     1      -0.452   4.608  24.711  0.00  0.00    +0.123 HD
BRANCH   5  18
ATOM     18  C   UNL     1      -0.493   2.615  25.102  0.00  0.00    +0.116 C 
BRANCH  18  19
ATOM     19  C   UNL     1       0.147   1.628  24.161  0.00  0.00    -0.032 A 
ATOM     20  C   UNL     1       1.533   1.605  24.009  0.00  0.00    +0.023 A 
ATOM     21  C   UNL     1      -0.648   0.734  23.444  0.00  0.00    +0.005 A 
ATOM     22  C   UNL     1       2.124   0.689  23.140  0.00  0.00    +0.052 A 
ATOM     23  C   UNL     1      -0.057  -0.183  22.574  0.00  0.00    +0.002 A 
ATOM     24  C   UNL     1       1.330  -0.204  22.422  0.00  0.00    +0.019 A 
BRANCH  22  25
ATOM      6  N   UNL     1       4.698   0.646  22.856  0.00  0.00    -0.191 NA
ATOM     25  C   UNL     1       3.545   0.665  22.983  0.00  0.00    +0.099 C 
ENDBRANCH  22  25
ENDBRANCH  18  19
ENDBRANCH   5  18
ENDBRANCH  10   5
BRANCH   7  16
ATOM     16  C   UNL     1      -5.444   1.913  24.889  0.00  0.00    +0.138 C 
BRANCH  16   4
ATOM      3  O   UNL     1      -4.054  -0.252  23.542  0.00  0.00    -0.276 OA
ATOM      4  N   UNL     1      -4.761   0.806  25.494  0.00  0.00    -0.313 N 
ATOM     17  C   UNL     1      -4.119  -0.191  24.768  0.00  0.00    +0.216 C 
ATOM     26  H   UNL     1      -4.752   0.760  26.509  0.00  0.00    +0.149 HD
BRANCH  17   9
ATOM      9  C   UNL     1      -3.466  -1.214  25.646  0.00  0.00    +0.075 C 
ATOM     11  C   UNL     1      -3.413  -2.572  24.946  0.00  0.00    +0.013 C 
ATOM     12  C   UNL     1      -2.011  -0.821  25.929  0.00  0.00    +0.013 C 
ATOM     13  C   UNL     1      -1.999  -2.665  24.393  0.00  0.00    +0.001 C 
ATOM     14  C   UNL     1      -1.165  -2.006  25.476  0.00  0.00    +0.001 C 
ENDBRANCH  17   9
ENDBRANCH  16   4
ENDBRANCH   7  16
TORSDOF 8
ENDMDL
MODEL 2
REMARK VINA RESULT:      -5.0      2.438      5.428
REMARK  Name = 75536569
REMARK  8 active torsions:
REMARK  status: ('A' for Active; 'I' for Inactive)
REMARK    1  A    between atoms: O_2  and  C_8
REMARK    2  A    between atoms: N_4  and  C_16
REMARK    3  A    between atoms: N_5  and  C_10
REMARK    4  A    between atoms: N_5  and  C_18
REMARK    5  A    between atoms: C_7  and  C_16
REMARK    6  A    between atoms: C_9  and  C_17
REMARK    7  A    between atoms: C_18  and  C_19
REMARK    8  A    between atoms: C_22  and  C_25
REMARK                            x       y       z     vdW  Elec       q    Type
REMARK                         _______ _______ _______ _____ _____    ______ ____
ROOT
ATOM      1  O   UNL     1       0.607   2.425  23.684  0.00  0.00    -0.371 OA
ATOM      7  C   UNL     1       0.408   1.232  24.462  0.00  0.00    +0.165 C 
ATOM      8  C   UNL     1      -0.616   1.591  25.530  0.00  0.00    +0.164 C 
ATOM     10  C   UNL     1      -0.244   3.035  25.817  0.00  0.00    +0.111 C 
ATOM     15  C   UNL     1       0.084   3.542  24.423  0.00  0.00    +0.181 C 
ENDROOT
BRANCH   8   2
ATOM      2  O   UNL     1      -0.501   0.761  26.670  0.00  0.00    -0.388 OA
ATOM     28  H   UNL     1      -0.126   1.288  27.396  0.00  0.00    +0.210 HD
ENDBRANCH   8   2
BRANCH  10   5
ATOM      5  N   UNL     1      -1.304   3.793  26.461  0.00  0.00    -0.305 NA
ATOM     27  H   UNL     1      -0.887   4.485  27.085  0.00  0.00    +0.123 HD
BRANCH   5  18
ATOM     18  C   UNL     1      -2.130   4.481  25.477  0.00  0.00    +0.116 C 
BRANCH  18  19
ATOM     19  C   UNL     1      -3.301   3.641  25.042  0.00  0.00    -0.032 A 
ATOM     20  C   UNL     1      -4.242   3.215  25.978  0.00  0.00    +0.023 A 
ATOM     21  C   UNL     1      -3.445   3.289  23.699  0.00  0.00    +0.005 A 
ATOM     22  C   UNL     1      -5.328   2.438  25.573  0.00  0.00    +0.052 A 
ATOM     23  C   UNL     1      -4.530   2.513  23.293  0.00  0.00    +0.002 A 
ATOM     24  C   UNL     1      -5.471   2.087  24.231  0.00  0.00    +0.019 A 
BRANCH  22  25
ATOM      6  N   UNL     1      -7.077   1.647  27.311  0.00  0.00    -0.191 NA
ATOM     25  C   UNL     1      -6.293   2.001  26.532  0.00  0.00    +0.099 C 
ENDBRANCH  22  25
ENDBRANCH  18  19
ENDBRANCH   5  18
ENDBRANCH  10   5
BRANCH   7  16
ATOM     16  C   UNL     1      -0.042   0.098  23.557  0.00  0.00    +0.138 C 
BRANCH  16   4
ATOM      3  O   UNL     1      -0.174  -2.074  25.480  0.00  0.00    -0.276 OA
ATOM      4  N   UNL     1      -1.219  -0.542  24.069  0.00  0.00    -0.313 N 
ATOM     17  C   UNL     1      -1.189  -1.580  24.992  0.00  0.00    +0.216 C 
ATOM     26  H   UNL     1      -2.118  -0.208  23.731  0.00  0.00    +0.149 HD
BRANCH  17   9
ATOM      9  C   UNL     1      -2.559  -2.050  25.376  0.00  0.00    +0.075 C 
ATOM     11  C   UNL     1      -3.550  -0.886  25.367  0.00  0.00    +0.013 C 
ATOM     12  C   UNL     1      -3.080  -3.064  24.352  0.00  0.00    +0.013 C 
ATOM     13  C   UNL     1      -4.273  -1.006  24.033  0.00  0.00    +0.001 C 
ATOM     14  C   UNL     1      -4.408  -2.506  23.853  0.00  0.00    +0.001 C 
ENDBRANCH  17   9
ENDBRANCH  16   4
ENDBRANCH   7  16
TORSDOF 8
ENDMDL
MODEL 3
REMARK VINA RESULT:      -5.0      2.237      6.532
REMARK  Name = 75536569
REMARK  8 active torsions:
REMARK  status: ('A' for Active; 'I' for Inactive)
REMARK    1  A    between atoms: O_2  and  C_8
REMARK    2  A    between atoms: N_4  and  C_16
REMARK    3  A    between atoms: N_5  and  C_10
REMARK    4  A    between atoms: N_5  and  C_18
REMARK    5  A    between atoms: C_7  and  C_16
REMARK    6  A    between atoms: C_9  and  C_17
REMARK    7  A    between atoms: C_18  and  C_19
REMARK    8  A    between atoms: C_22  and  C_25
REMARK                            x       y       z     vdW  Elec       q    Type
REMARK                         _______ _______ _______ _____ _____    ______ ____
ROOT
ATOM      1  O   UNL     1      -0.214   0.384  25.158  0.00  0.00    -0.371 OA
ATOM      7  C   UNL     1      -0.250  -0.725  24.244  0.00  0.00    +0.165 C 
ATOM      8  C   UNL     1      -1.688  -1.225  24.245  0.00  0.00    +0.164 C 
ATOM     10  C   UNL     1      -2.078  -0.987  25.693  0.00  0.00    +0.111 C 
ATOM     15  C   UNL     1      -1.398   0.342  25.973  0.00  0.00    +0.181 C 
ENDROOT
BRANCH   8   2
ATOM      2  O   UNL     1      -1.774  -2.587  23.873  0.00  0.00    -0.388 OA
ATOM     28  H   UNL     1      -2.252  -3.065  24.572  0.00  0.00    +0.210 HD
ENDBRANCH   8   2
BRANCH  10   5
ATOM      5  N   UNL     1      -3.515  -0.946  25.911  0.00  0.00    -0.305 NA
ATOM     27  H   UNL     1      -3.707  -0.423  26.766  0.00  0.00    +0.123 HD
BRANCH   5  18
ATOM     18  C   UNL     1      -4.196  -0.297  24.798  0.00  0.00    +0.116 C 
BRANCH  18  19
ATOM     19  C   UNL     1      -4.414   1.171  25.052  0.00  0.00    -0.032 A 
ATOM     20  C   UNL     1      -3.338   2.057  24.994  0.00  0.00    +0.023 A 
ATOM     21  C   UNL     1      -5.693   1.645  25.344  0.00  0.00    +0.005 A 
ATOM     22  C   UNL     1      -3.542   3.417  25.227  0.00  0.00    +0.052 A 
ATOM     23  C   UNL     1      -5.897   3.005  25.577  0.00  0.00    +0.002 A 
ATOM     24  C   UNL     1      -4.821   3.891  25.519  0.00  0.00    +0.019 A 
BRANCH  22  25
ATOM      6  N   UNL     1      -1.547   5.064  25.120  0.00  0.00    -0.191 NA
ATOM     25  C   UNL     1      -2.440   4.326  25.168  0.00  0.00    +0.099 C 
ENDBRANCH  22  25
ENDBRANCH  18  19
ENDBRANCH   5  18
ENDBRANCH  10   5
BRANCH   7  16
ATOM     16  C   UNL     1       0.227  -0.276  22.874  0.00  0.00    +0.138 C 
BRANCH  16   4
ATOM      3  O   UNL     1       2.451   1.524  23.370  0.00  0.00    -0.276 OA
ATOM      4  N   UNL     1       1.625  -0.546  22.694  0.00  0.00    -0.313 N 
ATOM     17  C   UNL     1       2.627   0.380  22.958  0.00  0.00    +0.216 C 
ATOM     26  H   UNL     1       1.882  -1.470  22.356  0.00  0.00    +0.149 HD
BRANCH  17   9
ATOM      9  C   UNL     1       3.998  -0.168  22.708  0.00  0.00    +0.075 C 
ATOM     11  C   UNL     1       5.065   0.878  23.036  0.00  0.00    +0.013 C 
ATOM     12  C   UNL     1       4.271  -1.361  23.631  0.00  0.00    +0.013 C 
ATOM     13  C   UNL     1       5.557   0.503  24.426  0.00  0.00    +0.001 C 
ATOM     14  C   UNL     1       5.544  -1.014  24.395  0.00  0.00    +0.001 C 
ENDBRANCH  17   9
ENDBRANCH  16   4
ENDBRANCH   7  16
TORSDOF 8
ENDMDL
MODEL 4
REMARK VINA RESULT:      -4.2      2.113      4.737
REMARK  Name = 75536569
REMARK  8 active torsions:
REMARK  status: ('A' for Active; 'I' for Inactive)
REMARK    1  A    between atoms: O_2  and  C_8
REMARK    2  A    between atoms: N_4  and  C_16
REMARK    3  A    between atoms: N_5  and  C_10
REMARK    4  A    between atoms: N_5  and  C_18
REMARK    5  A    between atoms: C_7  and  C_16
REMARK    6  A    between atoms: C_9  and  C_17
REMARK    7  A    between atoms: C_18  and  C_19
REMARK    8  A    between atoms: C_22  and  C_25
REMARK                            x       y       z     vdW  Elec       q    Type
REMARK                         _______ _______ _______ _____ _____    ______ ____
ROOT
ATOM      1  O   UNL     1      -3.863   3.827  23.951  0.00  0.00    -0.371 OA
ATOM      7  C   UNL     1      -4.422   4.108  25.246  0.00  0.00    +0.165 C 
ATOM      8  C   UNL     1      -4.984   2.789  25.757  0.00  0.00    +0.164 C 
ATOM     10  C   UNL     1      -5.476   2.161  24.465  0.00  0.00    +0.111 C 
ATOM     15  C   UNL     1      -4.375   2.563  23.498  0.00  0.00    +0.181 C 
ENDROOT
BRANCH   8   2
ATOM      2  O   UNL     1      -6.021   2.987  26.698  0.00  0.00    -0.388 OA
ATOM     28  H   UNL     1      -5.822   2.457  27.488  0.00  0.00    +0.210 HD
ENDBRANCH   8   2
BRANCH  10   5
ATOM      5  N   UNL     1      -5.660   0.722  24.550  0.00  0.00    -0.305 NA
ATOM     27  H   UNL     1      -5.448   0.305  23.643  0.00  0.00    +0.123 HD
BRANCH   5  18
ATOM     18  C   UNL     1      -4.779   0.138  25.554  0.00  0.00    +0.116 C 
BRANCH  18  19
ATOM     19  C   UNL     1      -3.957  -0.991  24.991  0.00  0.00    -0.032 A 
ATOM     20  C   UNL     1      -2.626  -1.147  25.378  0.00  0.00    +0.023 A 
ATOM     21  C   UNL     1      -4.528  -1.883  24.083  0.00  0.00    +0.005 A 
ATOM     22  C   UNL     1      -1.866  -2.195  24.858  0.00  0.00    +0.052 A 
ATOM     23  C   UNL     1      -3.769  -2.931  23.562  0.00  0.00    +0.002 A 
ATOM     24  C   UNL     1      -2.437  -3.086  23.950  0.00  0.00    +0.019 A 
BRANCH  22  25
ATOM      6  N   UNL     1       0.604  -2.486  25.576  0.00  0.00    -0.191 NA
ATOM     25  C   UNL     1      -0.503  -2.356  25.254  0.00  0.00    +0.099 C 
ENDBRANCH  22  25
ENDBRANCH  18  19
ENDBRANCH   5  18
ENDBRANCH  10   5
BRANCH   7  16
ATOM     16  C   UNL     1      -3.353   4.696  26.150  0.00  0.00    +0.138 C 
BRANCH  16   4
ATOM      3  O   UNL     1      -0.975   5.486  24.682  0.00  0.00    -0.276 OA
ATOM      4  N   UNL     1      -2.118   3.973  26.036  0.00  0.00    -0.313 N 
ATOM     17  C   UNL     1      -1.025   4.430  25.308  0.00  0.00    +0.216 C 
ATOM     26  H   UNL     1      -2.052   3.082  26.520  0.00  0.00    +0.149 HD
BRANCH  17   9
ATOM      9  C   UNL     1       0.143   3.494  25.375  0.00  0.00    +0.075 C 
ATOM     11  C   UNL     1      -0.075   2.436  26.457  0.00  0.00    +0.013 C 
ATOM     12  C   UNL     1       0.289   2.731  24.053  0.00  0.00    +0.013 C 
ATOM     13  C   UNL     1      -0.560   1.207  25.702  0.00  0.00    +0.001 C 
ATOM     14  C   UNL     1       0.252   1.252  24.420  0.00  0.00    +0.001 C 
ENDBRANCH  17   9
ENDBRANCH  16   4
ENDBRANCH   7  16
TORSDOF 8
ENDMDL
MODEL 5
REMARK VINA RESULT:      -4.1      2.351      6.311
REMARK  Name = 75536569
REMARK  8 active torsions:
REMARK  status: ('A' for Active; 'I' for Inactive)
REMARK    1  A    between atoms: O_2  and  C_8
REMARK    2  A    between atoms: N_4  and  C_16
REMARK    3  A    between atoms: N_5  and  C_10
REMARK    4  A    between atoms: N_5  and  C_18
REMARK    5  A    between atoms: C_7  and  C_16
REMARK    6  A    between atoms: C_9  and  C_17
REMARK    7  A    between atoms: C_18  and  C_19
REMARK    8  A    between atoms: C_22  and  C_25
REMARK                            x       y       z     vdW  Elec       q    Type
REMARK                         _______ _______ _______ _____ _____    ______ ____
ROOT
ATOM      1  O   UNL     1       0.211   2.818  23.557  0.00  0.00    -0.371 OA
ATOM      7  C   UNL     1       0.296   1.619  24.347  0.00  0.00    +0.165 C 
ATOM      8  C   UNL     1      -0.792   1.733  25.405  0.00  0.00    +0.164 C 
ATOM     10  C   UNL     1      -0.778   3.226  25.678  0.00  0.00    +0.111 C 
ATOM     15  C   UNL     1      -0.569   3.785  24.280  0.00  0.00    +0.181 C 
ENDROOT
BRANCH   8   2
ATOM      2  O   UNL     1      -0.492   0.965  26.554  0.00  0.00    -0.388 OA
ATOM     28  H   UNL     1      -0.967   0.119  26.489  0.00  0.00    +0.210 HD
ENDBRANCH   8   2
BRANCH  10   5
ATOM      5  N   UNL     1      -1.993   3.716  26.308  0.00  0.00    -0.305 NA
ATOM     27  H   UNL     1      -1.777   4.559  26.840  0.00  0.00    +0.123 HD
BRANCH   5  18
ATOM     18  C   UNL     1      -3.010   4.033  25.313  0.00  0.00    +0.116 C 
BRANCH  18  19
ATOM     19  C   UNL     1      -4.067   2.964  25.230  0.00  0.00    -0.032 A 
ATOM     20  C   UNL     1      -3.735   1.687  24.779  0.00  0.00    +0.023 A 
ATOM     21  C   UNL     1      -5.379   3.252  25.605  0.00  0.00    +0.005 A 
ATOM     22  C   UNL     1      -4.714   0.697  24.705  0.00  0.00    +0.052 A 
ATOM     23  C   UNL     1      -6.359   2.262  25.531  0.00  0.00    +0.002 A 
ATOM     24  C   UNL     1      -6.026   0.985  25.080  0.00  0.00    +0.019 A 
BRANCH  22  25
ATOM      6  N   UNL     1      -4.100  -1.676  23.868  0.00  0.00    -0.191 NA
ATOM     25  C   UNL     1      -4.375  -0.612  24.243  0.00  0.00    +0.099 C 
ENDBRANCH  22  25
ENDBRANCH  18  19
ENDBRANCH   5  18
ENDBRANCH  10   5
BRANCH   7  16
ATOM     16  C   UNL     1       0.137   0.403  23.451  0.00  0.00    +0.138 C 
BRANCH  16   4
ATOM      3  O   UNL     1       2.688   1.764  23.181  0.00  0.00    -0.276 OA
ATOM      4  N   UNL     1       1.408  -0.182  23.135  0.00  0.00    -0.313 N 
ATOM     17  C   UNL     1       2.585   0.549  23.025  0.00  0.00    +0.216 C 
ATOM     26  H   UNL     1       1.437  -1.188  22.987  0.00  0.00    +0.149 HD
BRANCH  17   9
ATOM      9  C   UNL     1       3.771  -0.310  22.710  0.00  0.00    +0.075 C 
ATOM     11  C   UNL     1       5.052   0.525  22.689  0.00  0.00    +0.013 C 
ATOM     12  C   UNL     1       3.967  -1.367  23.802  0.00  0.00    +0.013 C 
ATOM     13  C   UNL     1       5.690   0.285  24.050  0.00  0.00    +0.001 C 
ATOM     14  C   UNL     1       5.391  -1.179  24.313  0.00  0.00    +0.001 C 
ENDBRANCH  17   9
ENDBRANCH  16   4
ENDBRANCH   7  16
TORSDOF 8
ENDMDL
MODEL 6
REMARK VINA RESULT:      -4.0      2.076      5.330
REMARK  Name = 75536569
REMARK  8 active torsions:
REMARK  status: ('A' for Active; 'I' for Inactive)
REMARK    1  A    between atoms: O_2  and  C_8
REMARK    2  A    between atoms: N_4  and  C_16
REMARK    3  A    between atoms: N_5  and  C_10
REMARK    4  A    between atoms: N_5  and  C_18
REMARK    5  A    between atoms: C_7  and  C_16
REMARK    6  A    between atoms: C_9  and  C_17
REMARK    7  A    between atoms: C_18  and  C_19
REMARK    8  A    between atoms: C_22  and  C_25
REMARK                            x       y       z     vdW  Elec       q    Type
REMARK                         _______ _______ _______ _____ _____    ______ ____
ROOT
ATOM      1  O   UNL     1      -1.092   1.929  22.897  0.00  0.00    -0.371 OA
ATOM      7  C   UNL     1      -0.822   2.690  24.087  0.00  0.00    +0.165 C 
ATOM      8  C   UNL     1      -2.130   2.732  24.865  0.00  0.00    +0.164 C 
ATOM     10  C   UNL     1      -3.141   2.792  23.734  0.00  0.00    +0.111 C 
ATOM     15  C   UNL     1      -2.517   1.844  22.724  0.00  0.00    +0.181 C 
ENDROOT
BRANCH   8   2
ATOM      2  O   UNL     1      -2.199   3.858  25.719  0.00  0.00    -0.388 OA
ATOM     28  H   UNL     1      -2.144   3.548  26.639  0.00  0.00    +0.210 HD
ENDBRANCH   8   2
BRANCH  10   5
ATOM      5  N   UNL     1      -4.482   2.396  24.130  0.00  0.00    -0.305 NA
ATOM     27  H   UNL     1      -4.927   1.904  23.355  0.00  0.00    +0.123 HD
BRANCH   5  18
ATOM     18  C   UNL     1      -4.449   1.514  25.290  0.00  0.00    +0.116 C 
BRANCH  18  19
ATOM     19  C   UNL     1      -3.990   0.126  24.928  0.00  0.00    -0.032 A 
ATOM     20  C   UNL     1      -2.740  -0.328  25.348  0.00  0.00    +0.023 A 
ATOM     21  C   UNL     1      -4.817  -0.705  24.174  0.00  0.00    +0.005 A 
ATOM     22  C   UNL     1      -2.317  -1.614  25.014  0.00  0.00    +0.052 A 
ATOM     23  C   UNL     1      -4.395  -1.992  23.839  0.00  0.00    +0.002 A 
ATOM     24  C   UNL     1      -3.144  -2.446  24.259  0.00  0.00    +0.019 A 
BRANCH  22  25
ATOM      6  N   UNL     1       0.003  -2.460  25.792  0.00  0.00    -0.191 NA
ATOM     25  C   UNL     1      -1.037  -2.081  25.443  0.00  0.00    +0.099 C 
ENDBRANCH  22  25
ENDBRANCH  18  19
ENDBRANCH   5  18
ENDBRANCH  10   5
BRANCH   7  16
ATOM     16  C   UNL     1       0.316   2.047  24.860  0.00  0.00    +0.138 C 
BRANCH  16   4
ATOM      3  O   UNL     1       0.632  -0.516  23.533  0.00  0.00    -0.276 OA
ATOM      4  N   UNL     1       1.379   1.644  23.985  0.00  0.00    -0.313 N 
ATOM     17  C   UNL     1       1.450   0.390  23.390  0.00  0.00    +0.216 C 
ATOM     26  H   UNL     1       2.112   2.322  23.797  0.00  0.00    +0.149 HD
BRANCH  17   9
ATOM      9  C   UNL     1       2.649   0.239  22.505  0.00  0.00    +0.075 C 
ATOM     11  C   UNL     1       3.590   1.435  22.663  0.00  0.00    +0.013 C 
ATOM     12  C   UNL     1       3.458  -0.998  22.911  0.00  0.00    +0.013 C 
ATOM     13  C   UNL     1       4.675   0.948  23.612  0.00  0.00    +0.001 C 
ATOM     14  C   UNL     1       4.870  -0.498  23.195  0.00  0.00    +0.001 C 
ENDBRANCH  17   9
ENDBRANCH  16   4
ENDBRANCH   7  16
TORSDOF 8
ENDMDL
MODEL 7
REMARK VINA RESULT:      -3.6      2.206      5.505
REMARK  Name = 75536569
REMARK  8 active torsions:
REMARK  status: ('A' for Active; 'I' for Inactive)
REMARK    1  A    between atoms: O_2  and  C_8
REMARK    2  A    between atoms: N_4  and  C_16
REMARK    3  A    between atoms: N_5  and  C_10
REMARK    4  A    between atoms: N_5  and  C_18
REMARK    5  A    between atoms: C_7  and  C_16
REMARK    6  A    between atoms: C_9  and  C_17
REMARK    7  A    between atoms: C_18  and  C_19
REMARK    8  A    between atoms: C_22  and  C_25
REMARK                            x       y       z     vdW  Elec       q    Type
REMARK                         _______ _______ _______ _____ _____    ______ ____
ROOT
ATOM      1  O   UNL     1      -1.217   0.640  22.768  0.00  0.00    -0.371 OA
ATOM      7  C   UNL     1       0.153   0.405  23.135  0.00  0.00    +0.165 C 
ATOM      8  C   UNL     1       0.523   1.510  24.114  0.00  0.00    +0.164 C 
ATOM     10  C   UNL     1      -0.276   2.674  23.556  0.00  0.00    +0.111 C 
ATOM     15  C   UNL     1      -1.565   1.983  23.145  0.00  0.00    +0.181 C 
ENDROOT
BRANCH   8   2
ATOM      2  O   UNL     1       1.916   1.760  24.127  0.00  0.00    -0.388 OA
ATOM     28  H   UNL     1       2.053   2.720  24.196  0.00  0.00    +0.210 HD
ENDBRANCH   8   2
BRANCH  10   5
ATOM      5  N   UNL     1      -0.488   3.748  24.512  0.00  0.00    -0.305 NA
ATOM     27  H   UNL     1      -1.069   4.468  24.082  0.00  0.00    +0.123 HD
BRANCH   5  18
ATOM     18  C   UNL     1      -1.155   3.259  25.712  0.00  0.00    +0.116 C 
BRANCH  18  19
ATOM     19  C   UNL     1      -2.616   3.624  25.731  0.00  0.00    -0.032 A 
ATOM     20  C   UNL     1      -3.575   2.688  25.345  0.00  0.00    +0.023 A 
ATOM     21  C   UNL     1      -3.009   4.900  26.135  0.00  0.00    +0.005 A 
ATOM     22  C   UNL     1      -4.928   3.027  25.365  0.00  0.00    +0.052 A 
ATOM     23  C   UNL     1      -4.362   5.239  26.155  0.00  0.00    +0.002 A 
ATOM     24  C   UNL     1      -5.321   4.302  25.769  0.00  0.00    +0.019 A 
BRANCH  22  25
ATOM      6  N   UNL     1      -6.710   1.289  24.651  0.00  0.00    -0.191 NA
ATOM     25  C   UNL     1      -5.912   2.068  24.971  0.00  0.00    +0.099 C 
ENDBRANCH  22  25
ENDBRANCH  18  19
ENDBRANCH   5  18
ENDBRANCH  10   5
BRANCH   7  16
ATOM     16  C   UNL     1       0.296  -0.989  23.722  0.00  0.00    +0.138 C 
BRANCH  16   4
ATOM      3  O   UNL     1      -0.940  -0.618  26.323  0.00  0.00    -0.276 OA
ATOM      4  N   UNL     1      -0.969  -1.499  24.167  0.00  0.00    -0.313 N 
ATOM     17  C   UNL     1      -1.486  -1.271  25.437  0.00  0.00    +0.216 C 
ATOM     26  H   UNL     1      -1.507  -2.054  23.507  0.00  0.00    +0.149 HD
BRANCH  17   9
ATOM      9  C   UNL     1      -2.833  -1.897  25.631  0.00  0.00    +0.075 C 
ATOM     11  C   UNL     1      -3.943  -0.876  25.381  0.00  0.00    +0.013 C 
ATOM     12  C   UNL     1      -3.048  -3.023  24.614  0.00  0.00    +0.013 C 
ATOM     13  C   UNL     1      -4.414  -1.159  23.961  0.00  0.00    +0.001 C 
ATOM     14  C   UNL     1      -4.333  -2.672  23.871  0.00  0.00    +0.001 C 
ENDBRANCH  17   9
ENDBRANCH  16   4
ENDBRANCH   7  16
TORSDOF 8
ENDMDL
MODEL 8
REMARK VINA RESULT:      -3.5      2.324      5.109
REMARK  Name = 75536569
REMARK  8 active torsions:
REMARK  status: ('A' for Active; 'I' for Inactive)
REMARK    1  A    between atoms: O_2  and  C_8
REMARK    2  A    between atoms: N_4  and  C_16
REMARK    3  A    between atoms: N_5  and  C_10
REMARK    4  A    between atoms: N_5  and  C_18
REMARK    5  A    between atoms: C_7  and  C_16
REMARK    6  A    between atoms: C_9  and  C_17
REMARK    7  A    between atoms: C_18  and  C_19
REMARK    8  A    between atoms: C_22  and  C_25
REMARK                            x       y       z     vdW  Elec       q    Type
REMARK                         _______ _______ _______ _____ _____    ______ ____
ROOT
ATOM      1  O   UNL     1      -0.298   3.111  26.271  0.00  0.00    -0.371 OA
ATOM      7  C   UNL     1      -0.271   4.033  25.168  0.00  0.00    +0.165 C 
ATOM      8  C   UNL     1      -0.399   3.186  23.909  0.00  0.00    +0.164 C 
ATOM     10  C   UNL     1       0.371   1.942  24.315  0.00  0.00    +0.111 C 
ATOM     15  C   UNL     1      -0.052   1.788  25.766  0.00  0.00    +0.181 C 
ENDROOT
BRANCH   8   2
ATOM      2  O   UNL     1       0.161   3.831  22.781  0.00  0.00    -0.388 OA
ATOM     28  H   UNL     1       1.094   3.569  22.711  0.00  0.00    +0.210 HD
ENDBRANCH   8   2
BRANCH  10   5
ATOM      5  N   UNL     1       0.059   0.775  23.507  0.00  0.00    -0.305 NA
ATOM     27  H   UNL     1       0.681   0.753  22.698  0.00  0.00    +0.123 HD
BRANCH   5  18
ATOM     18  C   UNL     1       0.236  -0.455  24.270  0.00  0.00    +0.116 C 
BRANCH  18  19
ATOM     19  C   UNL     1      -1.063  -0.944  24.854  0.00  0.00    -0.032 A 
ATOM     20  C   UNL     1      -2.005  -1.567  24.036  0.00  0.00    +0.023 A 
ATOM     21  C   UNL     1      -1.322  -0.776  26.214  0.00  0.00    +0.005 A 
ATOM     22  C   UNL     1      -3.207  -2.022  24.579  0.00  0.00    +0.052 A 
ATOM     23  C   UNL     1      -2.523  -1.230  26.757  0.00  0.00    +0.002 A 
ATOM     24  C   UNL     1      -3.466  -1.854  25.939  0.00  0.00    +0.019 A 
BRANCH  22  25
ATOM      6  N   UNL     1      -4.958  -3.180  23.063  0.00  0.00    -0.191 NA
ATOM     25  C   UNL     1      -4.173  -2.661  23.742  0.00  0.00    +0.099 C 
ENDBRANCH  22  25
ENDBRANCH  18  19
ENDBRANCH   5  18
ENDBRANCH  10   5
BRANCH   7  16
ATOM     16  C   UNL     1      -1.388   5.051  25.322  0.00  0.00    +0.138 C 
BRANCH  16   4
ATOM      3  O   UNL     1      -3.469   3.927  27.006  0.00  0.00    -0.276 OA
ATOM      4  N   UNL     1      -2.649   4.509  24.905  0.00  0.00    -0.313 N 
ATOM     17  C   UNL     1      -3.591   3.989  25.785  0.00  0.00    +0.216 C 
ATOM     26  H   UNL     1      -2.853   4.514  23.909  0.00  0.00    +0.149 HD
BRANCH  17   9
ATOM      9  C   UNL     1      -4.829   3.513  25.089  0.00  0.00    +0.075 C 
ATOM     11  C   UNL     1      -4.476   2.525  23.976  0.00  0.00    +0.013 C 
ATOM     12  C   UNL     1      -5.730   2.752  26.067  0.00  0.00    +0.013 C 
ATOM     13  C   UNL     1      -4.723   1.153  24.587  0.00  0.00    +0.001 C 
ATOM     14  C   UNL     1      -5.955   1.378  25.444  0.00  0.00    +0.001 C 
ENDBRANCH  17   9
ENDBRANCH  16   4
ENDBRANCH   7  16
TORSDOF 8
ENDMDL
MODEL 9
REMARK VINA RESULT:      -3.2     17.750     19.833
REMARK  Name = 75536569
REMARK  8 active torsions:
REMARK  status: ('A' for Active; 'I' for Inactive)
REMARK    1  A    between atoms: O_2  and  C_8
REMARK    2  A    between atoms: N_4  and  C_16
REMARK    3  A    between atoms: N_5  and  C_10
REMARK    4  A    between atoms: N_5  and  C_18
REMARK    5  A    between atoms: C_7  and  C_16
REMARK    6  A    between atoms: C_9  and  C_17
REMARK    7  A    between atoms: C_18  and  C_19
REMARK    8  A    between atoms: C_22  and  C_25
REMARK                            x       y       z     vdW  Elec       q    Type
REMARK                         _______ _______ _______ _____ _____    ______ ____
ROOT
ATOM      1  O   UNL     1      17.359  -5.810  27.444  0.00  0.00    -0.371 OA
ATOM      7  C   UNL     1      16.989  -6.830  26.502  0.00  0.00    +0.165 C 
ATOM      8  C   UNL     1      15.998  -7.732  27.225  0.00  0.00    +0.164 C 
ATOM     10  C   UNL     1      16.550  -7.696  28.639  0.00  0.00    +0.111 C 
ATOM     15  C   UNL     1      16.972  -6.242  28.759  0.00  0.00    +0.181 C 
ENDROOT
BRANCH   8   2
ATOM      2  O   UNL     1      15.978  -9.037  26.680  0.00  0.00    -0.388 OA
ATOM     28  H   UNL     1      16.222  -9.665  27.381  0.00  0.00    +0.210 HD
ENDBRANCH   8   2
BRANCH  10   5
ATOM      5  N   UNL     1      15.585  -8.092  29.651  0.00  0.00    -0.305 NA
ATOM     27  H   UNL     1      15.899  -7.755  30.562  0.00  0.00    +0.123 HD
BRANCH   5  18
ATOM     18  C   UNL     1      14.269  -7.533  29.370  0.00  0.00    +0.116 C 
BRANCH  18  19
ATOM     19  C   UNL     1      13.837  -6.553  30.429  0.00  0.00    -0.032 A 
ATOM     20  C   UNL     1      14.675  -5.498  30.787  0.00  0.00    +0.023 A 
ATOM     21  C   UNL     1      12.597  -6.701  31.050  0.00  0.00    +0.005 A 
ATOM     22  C   UNL     1      14.273  -4.590  31.766  0.00  0.00    +0.052 A 
ATOM     23  C   UNL     1      12.194  -5.794  32.030  0.00  0.00    +0.002 A 
ATOM     24  C   UNL     1      13.033  -4.738  32.388  0.00  0.00    +0.019 A 
BRANCH  22  25
ATOM      6  N   UNL     1      15.827  -2.629  32.433  0.00  0.00    -0.191 NA
ATOM     25  C   UNL     1      15.130  -3.507  32.134  0.00  0.00    +0.099 C 
ENDBRANCH  22  25
ENDBRANCH  18  19
ENDBRANCH   5  18
ENDBRANCH  10   5
BRANCH   7  16
ATOM     16  C   UNL     1      16.414  -6.190  25.250  0.00  0.00    +0.138 C 
BRANCH  16   4
ATOM      3  O   UNL     1      15.271  -3.780  24.101  0.00  0.00    -0.276 OA
ATOM      4  N   UNL     1      17.096  -4.969  24.929  0.00  0.00    -0.313 N 
ATOM     17  C   UNL     1      16.466  -3.859  24.378  0.00  0.00    +0.216 C 
ATOM     26  H   UNL     1      18.093  -4.926  25.121  0.00  0.00    +0.149 HD
BRANCH  17   9
ATOM      9  C   UNL     1      17.404  -2.711  24.164  0.00  0.00    +0.075 C 
ATOM     11  C   UNL     1      17.351  -2.234  22.712  0.00  0.00    +0.013 C 
ATOM     12  C   UNL     1      16.984  -1.513  25.023  0.00  0.00    +0.013 C 
ATOM     13  C   UNL     1      16.437  -1.017  22.740  0.00  0.00    +0.001 C 
ATOM     14  C   UNL     1      16.796  -0.351  24.055  0.00  0.00    +0.001 C 
ENDBRANCH  17   9
ENDBRANCH  16   4
ENDBRANCH   7  16
TORSDOF 8
ENDMDL
MODEL 10
REMARK VINA RESULT:      -3.2     17.033     19.689
REMARK  Name = 75536569
REMARK  8 active torsions:
REMARK  status: ('A' for Active; 'I' for Inactive)
REMARK    1  A    between atoms: O_2  and  C_8
REMARK    2  A    between atoms: N_4  and  C_16
REMARK    3  A    between atoms: N_5  and  C_10
REMARK    4  A    between atoms: N_5  and  C_18
REMARK    5  A    between atoms: C_7  and  C_16
REMARK    6  A    between atoms: C_9  and  C_17
REMARK    7  A    between atoms: C_18  and  C_19
REMARK    8  A    between atoms: C_22  and  C_25
REMARK                            x       y       z     vdW  Elec       q    Type
REMARK                         _______ _______ _______ _____ _____    ______ ____
ROOT
ATOM      1  O   UNL     1      17.057  -5.347  28.515  0.00  0.00    -0.371 OA
ATOM      7  C   UNL     1      16.842  -6.698  28.075  0.00  0.00    +0.165 C 
ATOM      8  C   UNL     1      15.428  -7.062  28.508  0.00  0.00    +0.164 C 
ATOM     10  C   UNL     1      15.323  -6.309  29.822  0.00  0.00    +0.111 C 
ATOM     15  C   UNL     1      16.050  -5.018  29.487  0.00  0.00    +0.181 C 
ENDROOT
BRANCH   8   2
ATOM      2  O   UNL     1      15.268  -8.459  28.665  0.00  0.00    -0.388 OA
ATOM     28  H   UNL     1      15.931  -8.773  29.302  0.00  0.00    +0.210 HD
ENDBRANCH   8   2
BRANCH  10   5
ATOM      5  N   UNL     1      13.955  -6.092  30.262  0.00  0.00    -0.305 NA
ATOM     27  H   UNL     1      13.322  -6.613  29.654  0.00  0.00    +0.123 HD
BRANCH   5  18
ATOM     18  C   UNL     1      13.767  -6.541  31.636  0.00  0.00    +0.116 C 
BRANCH  18  19
ATOM     19  C   UNL     1      12.810  -7.701  31.721  0.00  0.00    -0.032 A 
ATOM     20  C   UNL     1      11.454  -7.471  31.955  0.00  0.00    +0.023 A 
ATOM     21  C   UNL     1      13.279  -9.004  31.564  0.00  0.00    +0.005 A 
ATOM     22  C   UNL     1      10.568  -8.546  32.032  0.00  0.00    +0.052 A 
ATOM     23  C   UNL     1      12.394 -10.080  31.640  0.00  0.00    +0.002 A 
ATOM     24  C   UNL     1      11.038  -9.850  31.874  0.00  0.00    +0.019 A 
BRANCH  22  25
ATOM      6  N   UNL     1       8.051  -8.122  32.466  0.00  0.00    -0.191 NA
ATOM     25  C   UNL     1       9.179  -8.312  32.271  0.00  0.00    +0.099 C 
ENDBRANCH  22  25
ENDBRANCH  18  19
ENDBRANCH   5  18
ENDBRANCH  10   5
BRANCH   7  16
ATOM     16  C   UNL     1      17.050  -6.789  26.573  0.00  0.00    +0.138 C 
BRANCH  16   4
ATOM      3  O   UNL     1      17.160  -6.124  23.749  0.00  0.00    -0.276 OA
ATOM      4  N   UNL     1      17.212  -5.488  25.989  0.00  0.00    -0.313 N 
ATOM     17  C   UNL     1      17.253  -5.261  24.619  0.00  0.00    +0.216 C 
ATOM     26  H   UNL     1      17.297  -4.698  26.624  0.00  0.00    +0.149 HD
BRANCH  17   9
ATOM      9  C   UNL     1      17.405  -3.809  24.280  0.00  0.00    +0.075 C 
ATOM     11  C   UNL     1      17.146  -3.573  22.791  0.00  0.00    +0.013 C 
ATOM     12  C   UNL     1      16.363  -2.976  25.034  0.00  0.00    +0.013 C 
ATOM     13  C   UNL     1      15.711  -3.070  22.726  0.00  0.00    +0.001 C 
ATOM     14  C   UNL     1      15.596  -2.203  23.966  0.00  0.00    +0.001 C 
ENDBRANCH  17   9
ENDBRANCH  16   4
ENDBRANCH   7  16
TORSDOF 8
ENDMDL
