MODEL 1
REMARK VINA RESULT:       2.0      0.000      0.000
REMARK  Name = 7134523
REMARK  16 active torsions:
REMARK  status: ('A' for Active; 'I' for Inactive)
REMARK    1  A    between atoms: O_1  and  C_21
REMARK    2  A    between atoms: O_2  and  C_23
REMARK    3  A    between atoms: O_3  and  C_24
REMARK    4  A    between atoms: O_5  and  C_28
REMARK    5  A    between atoms: O_9  and  C_37
REMARK    6  A    between atoms: O_9  and  C_38
REMARK    7  A    between atoms: N_10  and  C_19
REMARK    8  A    between atoms: N_11  and  C_29
REMARK    9  A    between atoms: C_13  and  C_18
REMARK   10  A    between atoms: C_13  and  C_20
REMARK   11  A    between atoms: C_18  and  C_26
REMARK   12  A    between atoms: C_20  and  C_28
REMARK   13  A    between atoms: C_21  and  C_27
REMARK   14  A    between atoms: C_29  and  C_30
REMARK   15  A    between atoms: C_29  and  C_31
REMARK   16  A    between atoms: C_30  and  C_32
REMARK                            x       y       z     vdW  Elec       q    Type
REMARK                         _______ _______ _______ _____ _____    ______ ____
ROOT
ATOM     19  C   UNL     1       0.216   2.291  25.115  0.00  0.00    +0.107 C 
ATOM     21  C   UNL     1      -2.044   3.452  25.163  0.00  0.00    +0.146 C 
ATOM     22  C   UNL     1      -1.212   2.320  24.559  0.00  0.00    +0.069 C 
ATOM     23  C   UNL     1       0.231   2.253  26.648  0.00  0.00    +0.163 C 
ATOM     24  C   UNL     1      -0.618   3.369  27.259  0.00  0.00    +0.148 C 
ATOM     25  C   UNL     1      -2.038   3.389  26.690  0.00  0.00    +0.078 C 
ENDROOT
BRANCH  19  10
ATOM      4  O   UNL     1      -0.687   0.484  23.043  0.00  0.00    -0.276 OA
ATOM     10  N   UNL     1       0.930   1.158  24.569  0.00  0.00    -0.310 N 
ATOM     26  C   UNL     1       0.413   0.345  23.573  0.00  0.00    +0.214 C 
ATOM     39  H   UNL     1       1.822   0.919  24.992  0.00  0.00    +0.149 HD
BRANCH  26  18
ATOM     18  C   UNL     1       1.383  -0.760  23.197  0.00  0.00    +0.103 C 
BRANCH  18  13
ATOM     13  C   UNL     1       2.786  -0.232  22.890  0.00  0.00    -0.011 C 
ATOM     14  C   UNL     1       2.943   1.234  23.316  0.00  0.00    +0.008 C 
ATOM     15  C   UNL     1       3.038  -0.144  21.378  0.00  0.00    +0.008 C 
ATOM     16  C   UNL     1       4.091   1.773  22.466  0.00  0.00    +0.001 C 
ATOM     17  C   UNL     1       4.151   0.889  21.221  0.00  0.00    +0.001 C 
BRANCH  13  20
ATOM     20  C   UNL     1       3.827  -1.130  23.578  0.00  0.00    +0.127 C 
BRANCH  20  28
ATOM      7  O   UNL     1       6.095  -0.449  22.994  0.00  0.00    -0.251 OA
ATOM     28  C   UNL     1       5.135  -0.414  23.749  0.00  0.00    +0.305 C 
BRANCH  28   5
ATOM      5  O   UNL     1       5.107   0.305  24.901  0.00  0.00    -0.481 OA
ATOM     44  H   UNL     1       5.259   1.261  24.741  0.00  0.00    +0.295 HD
ENDBRANCH  28   5
ENDBRANCH  20  28
ENDBRANCH  13  20
ENDBRANCH  18  13
ENDBRANCH  26  18
ENDBRANCH  19  10
BRANCH  21  27
ATOM      6  O   UNL     1      -3.911   4.289  23.931  0.00  0.00    -0.273 OA
ATOM     11  N   UNL     1      -4.139   2.289  25.099  0.00  0.00    -0.301 N 
ATOM     27  C   UNL     1      -3.453   3.404  24.650  0.00  0.00    +0.246 C 
ATOM     43  H   UNL     1      -3.686   1.632  25.728  0.00  0.00    +0.150 HD
BRANCH  11  29
ATOM     29  C   UNL     1      -5.518   2.021  24.765  0.00  0.00    +0.163 C 
BRANCH  29  31
ATOM      8  O   UNL     1      -6.954   1.977  26.725  0.00  0.00    -0.274 OA
ATOM     12  N   UNL     1      -6.383   4.013  25.827  0.00  0.00    -0.328 N 
ATOM     31  C   UNL     1      -6.372   2.634  25.865  0.00  0.00    +0.231 C 
ATOM     45  H   UNL     1      -6.902   4.548  26.515  0.00  0.00    +0.145 HD
ATOM     46  H   UNL     1      -5.896   4.544  25.113  0.00  0.00    +0.145 HD
ENDBRANCH  29  31
BRANCH  29  30
ATOM     30  C   UNL     1      -5.804   0.520  24.642  0.00  0.00    +0.067 C 
BRANCH  30  32
ATOM     32  C   UNL     1      -4.554  -0.321  24.726  0.00  0.00    -0.045 A 
ATOM     33  C   UNL     1      -3.618  -0.084  25.733  0.00  0.00    +0.007 A 
ATOM     34  C   UNL     1      -4.334  -1.337  23.796  0.00  0.00    +0.007 A 
ATOM     35  C   UNL     1      -2.463  -0.861  25.809  0.00  0.00    +0.046 A 
ATOM     36  C   UNL     1      -3.179  -2.115  23.872  0.00  0.00    +0.046 A 
ATOM     37  C   UNL     1      -2.243  -1.877  24.879  0.00  0.00    +0.120 A 
BRANCH  37   9
ATOM      9  O   UNL     1      -1.116  -2.637  24.954  0.00  0.00    -0.495 OA
ATOM     38  C   UNL     1      -0.080  -2.178  25.821  0.00  0.00    +0.277 C 
ENDBRANCH  37   9
ENDBRANCH  30  32
ENDBRANCH  29  30
ENDBRANCH  11  29
ENDBRANCH  21  27
BRANCH  21   1
ATOM      1  O   UNL     1      -1.543   4.717  24.747  0.00  0.00    -0.379 OA
ATOM     40  H   UNL     1      -1.872   5.395  25.361  0.00  0.00    +0.211 HD
ENDBRANCH  21   1
BRANCH  23   2
ATOM      2  O   UNL     1       1.574   2.429  27.107  0.00  0.00    -0.387 OA
ATOM     41  H   UNL     1       1.556   2.477  28.079  0.00  0.00    +0.210 HD
ENDBRANCH  23   2
BRANCH  24   3
ATOM      3  O   UNL     1      -0.690   3.162  28.670  0.00  0.00    -0.389 OA
ATOM     42  H   UNL     1      -0.328   3.955  29.101  0.00  0.00    +0.210 HD
ENDBRANCH  24   3
TORSDOF 15
ENDMDL
MODEL 2
REMARK VINA RESULT:       2.4      1.654      4.447
REMARK  Name = 7134523
REMARK  16 active torsions:
REMARK  status: ('A' for Active; 'I' for Inactive)
REMARK    1  A    between atoms: O_1  and  C_21
REMARK    2  A    between atoms: O_2  and  C_23
REMARK    3  A    between atoms: O_3  and  C_24
REMARK    4  A    between atoms: O_5  and  C_28
REMARK    5  A    between atoms: O_9  and  C_37
REMARK    6  A    between atoms: O_9  and  C_38
REMARK    7  A    between atoms: N_10  and  C_19
REMARK    8  A    between atoms: N_11  and  C_29
REMARK    9  A    between atoms: C_13  and  C_18
REMARK   10  A    between atoms: C_13  and  C_20
REMARK   11  A    between atoms: C_18  and  C_26
REMARK   12  A    between atoms: C_20  and  C_28
REMARK   13  A    between atoms: C_21  and  C_27
REMARK   14  A    between atoms: C_29  and  C_30
REMARK   15  A    between atoms: C_29  and  C_31
REMARK   16  A    between atoms: C_30  and  C_32
REMARK                            x       y       z     vdW  Elec       q    Type
REMARK                         _______ _______ _______ _____ _____    ______ ____
ROOT
ATOM     19  C   UNL     1      -1.749  -1.326  25.371  0.00  0.00    +0.107 C 
ATOM     21  C   UNL     1      -3.901  -0.040  24.954  0.00  0.00    +0.146 C 
ATOM     22  C   UNL     1      -2.376   0.035  25.053  0.00  0.00    +0.069 C 
ATOM     23  C   UNL     1      -2.203  -2.408  24.383  0.00  0.00    +0.163 C 
ATOM     24  C   UNL     1      -3.727  -2.473  24.263  0.00  0.00    +0.148 C 
ATOM     25  C   UNL     1      -4.338  -1.106  23.951  0.00  0.00    +0.078 C 
ENDROOT
BRANCH  19  10
ATOM      4  O   UNL     1      -0.083  -0.104  23.345  0.00  0.00    -0.276 OA
ATOM     10  N   UNL     1      -0.308  -1.212  25.375  0.00  0.00    -0.310 N 
ATOM     26  C   UNL     1       0.407  -0.607  24.353  0.00  0.00    +0.214 C 
ATOM     39  H   UNL     1       0.196  -1.660  26.135  0.00  0.00    +0.149 HD
BRANCH  26  18
ATOM     18  C   UNL     1       1.899  -0.630  24.628  0.00  0.00    +0.103 C 
BRANCH  18  13
ATOM     13  C   UNL     1       2.734  -0.469  23.355  0.00  0.00    -0.011 C 
ATOM     14  C   UNL     1       3.189   0.983  23.158  0.00  0.00    +0.008 C 
ATOM     15  C   UNL     1       1.892  -0.705  22.093  0.00  0.00    +0.008 C 
ATOM     16  C   UNL     1       3.467   1.111  21.662  0.00  0.00    +0.001 C 
ATOM     17  C   UNL     1       2.634   0.029  20.979  0.00  0.00    +0.001 C 
BRANCH  13  20
ATOM     20  C   UNL     1       3.934  -1.429  23.412  0.00  0.00    +0.127 C 
BRANCH  20  28
ATOM      7  O   UNL     1       6.008  -0.230  22.954  0.00  0.00    -0.251 OA
ATOM     28  C   UNL     1       5.201  -0.697  23.745  0.00  0.00    +0.305 C 
BRANCH  28   5
ATOM      5  O   UNL     1       5.336  -0.621  25.094  0.00  0.00    -0.481 OA
ATOM     44  H   UNL     1       4.502  -0.347  25.530  0.00  0.00    +0.295 HD
ENDBRANCH  28   5
ENDBRANCH  20  28
ENDBRANCH  13  20
ENDBRANCH  18  13
ENDBRANCH  26  18
ENDBRANCH  19  10
BRANCH  21  27
ATOM      6  O   UNL     1      -5.542   1.694  25.023  0.00  0.00    -0.273 OA
ATOM     11  N   UNL     1      -3.672   1.967  23.663  0.00  0.00    -0.301 N 
ATOM     27  C   UNL     1      -4.471   1.294  24.572  0.00  0.00    +0.246 C 
ATOM     43  H   UNL     1      -2.823   1.534  23.314  0.00  0.00    +0.150 HD
BRANCH  11  29
ATOM     29  C   UNL     1      -4.010   3.262  23.120  0.00  0.00    +0.163 C 
BRANCH  29  31
ATOM      8  O   UNL     1      -4.263   3.915  20.793  0.00  0.00    -0.274 OA
ATOM     12  N   UNL     1      -2.667   2.351  21.328  0.00  0.00    -0.328 N 
ATOM     31  C   UNL     1      -3.696   3.219  21.632  0.00  0.00    +0.231 C 
ATOM     45  H   UNL     1      -2.348   2.240  20.371  0.00  0.00    +0.145 HD
ATOM     46  H   UNL     1      -2.205   1.784  22.030  0.00  0.00    +0.145 HD
ENDBRANCH  29  31
BRANCH  29  30
ATOM     30  C   UNL     1      -3.231   4.395  23.798  0.00  0.00    +0.067 C 
BRANCH  30  32
ATOM     32  C   UNL     1      -2.083   3.893  24.637  0.00  0.00    -0.045 A 
ATOM     33  C   UNL     1      -0.874   3.548  24.033  0.00  0.00    +0.007 A 
ATOM     34  C   UNL     1      -2.230   3.775  26.019  0.00  0.00    +0.007 A 
ATOM     35  C   UNL     1       0.187   3.084  24.810  0.00  0.00    +0.046 A 
ATOM     36  C   UNL     1      -1.168   3.312  26.797  0.00  0.00    +0.046 A 
ATOM     37  C   UNL     1       0.041   2.967  26.192  0.00  0.00    +0.120 A 
BRANCH  37   9
ATOM      9  O   UNL     1       1.077   2.515  26.951  0.00  0.00    -0.495 OA
ATOM     38  C   UNL     1       0.871   2.456  28.361  0.00  0.00    +0.277 C 
ENDBRANCH  37   9
ENDBRANCH  30  32
ENDBRANCH  29  30
ENDBRANCH  11  29
ENDBRANCH  21  27
BRANCH  21   1
ATOM      1  O   UNL     1      -4.469  -0.334  26.224  0.00  0.00    -0.379 OA
ATOM     40  H   UNL     1      -4.857   0.482  26.584  0.00  0.00    +0.211 HD
ENDBRANCH  21   1
BRANCH  23   2
ATOM      2  O   UNL     1      -1.751  -3.684  24.846  0.00  0.00    -0.387 OA
ATOM     41  H   UNL     1      -1.932  -3.740  25.801  0.00  0.00    +0.210 HD
ENDBRANCH  23   2
BRANCH  24   3
ATOM      3  O   UNL     1      -4.059  -3.378  23.209  0.00  0.00    -0.389 OA
ATOM     42  H   UNL     1      -3.237  -3.812  22.925  0.00  0.00    +0.210 HD
ENDBRANCH  24   3
TORSDOF 15
ENDMDL
MODEL 3
REMARK VINA RESULT:       3.7      2.179      4.427
REMARK  Name = 7134523
REMARK  16 active torsions:
REMARK  status: ('A' for Active; 'I' for Inactive)
REMARK    1  A    between atoms: O_1  and  C_21
REMARK    2  A    between atoms: O_2  and  C_23
REMARK    3  A    between atoms: O_3  and  C_24
REMARK    4  A    between atoms: O_5  and  C_28
REMARK    5  A    between atoms: O_9  and  C_37
REMARK    6  A    between atoms: O_9  and  C_38
REMARK    7  A    between atoms: N_10  and  C_19
REMARK    8  A    between atoms: N_11  and  C_29
REMARK    9  A    between atoms: C_13  and  C_18
REMARK   10  A    between atoms: C_13  and  C_20
REMARK   11  A    between atoms: C_18  and  C_26
REMARK   12  A    between atoms: C_20  and  C_28
REMARK   13  A    between atoms: C_21  and  C_27
REMARK   14  A    between atoms: C_29  and  C_30
REMARK   15  A    between atoms: C_29  and  C_31
REMARK   16  A    between atoms: C_30  and  C_32
REMARK                            x       y       z     vdW  Elec       q    Type
REMARK                         _______ _______ _______ _____ _____    ______ ____
ROOT
ATOM     19  C   UNL     1      -0.816  -0.720  25.234  0.00  0.00    +0.107 C 
ATOM     21  C   UNL     1      -3.339  -0.494  25.432  0.00  0.00    +0.146 C 
ATOM     22  C   UNL     1      -2.018   0.228  25.161  0.00  0.00    +0.069 C 
ATOM     23  C   UNL     1      -0.995  -1.939  24.321  0.00  0.00    +0.163 C 
ATOM     24  C   UNL     1      -2.325  -2.653  24.571  0.00  0.00    +0.148 C 
ATOM     25  C   UNL     1      -3.514  -1.693  24.502  0.00  0.00    +0.078 C 
ENDROOT
BRANCH  19  10
ATOM      4  O   UNL     1      -0.324   0.858  22.858  0.00  0.00    -0.276 OA
ATOM     10  N   UNL     1       0.394  -0.002  24.894  0.00  0.00    -0.310 N 
ATOM     26  C   UNL     1       0.536   0.730  23.725  0.00  0.00    +0.214 C 
ATOM     39  H   UNL     1       1.189  -0.104  25.516  0.00  0.00    +0.149 HD
BRANCH  26  18
ATOM     18  C   UNL     1       1.907   1.376  23.638  0.00  0.00    +0.103 C 
BRANCH  18  13
ATOM     13  C   UNL     1       2.974   0.420  23.099  0.00  0.00    -0.011 C 
ATOM     14  C   UNL     1       3.045  -0.871  23.925  0.00  0.00    +0.008 C 
ATOM     15  C   UNL     1       4.388   0.987  23.287  0.00  0.00    +0.008 C 
ATOM     16  C   UNL     1       4.446  -1.423  23.677  0.00  0.00    +0.001 C 
ATOM     17  C   UNL     1       5.309  -0.230  23.269  0.00  0.00    +0.001 C 
BRANCH  13  20
ATOM     20  C   UNL     1       2.686   0.122  21.618  0.00  0.00    +0.127 C 
BRANCH  20  28
ATOM      7  O   UNL     1       1.094  -1.611  22.261  0.00  0.00    -0.251 OA
ATOM     28  C   UNL     1       1.489  -0.771  21.465  0.00  0.00    +0.305 C 
BRANCH  28   5
ATOM      5  O   UNL     1       0.883  -0.512  20.279  0.00  0.00    -0.481 OA
ATOM     44  H   UNL     1       0.120  -1.108  20.119  0.00  0.00    +0.295 HD
ENDBRANCH  28   5
ENDBRANCH  20  28
ENDBRANCH  13  20
ENDBRANCH  18  13
ENDBRANCH  26  18
ENDBRANCH  19  10
BRANCH  21  27
ATOM      6  O   UNL     1      -5.344   0.301  24.405  0.00  0.00    -0.273 OA
ATOM     11  N   UNL     1      -4.461   1.475  26.211  0.00  0.00    -0.301 N 
ATOM     27  C   UNL     1      -4.496   0.450  25.282  0.00  0.00    +0.246 C 
ATOM     43  H   UNL     1      -3.693   1.538  26.872  0.00  0.00    +0.150 HD
BRANCH  11  29
ATOM     29  C   UNL     1      -5.449   2.528  26.265  0.00  0.00    +0.163 C 
BRANCH  29  31
ATOM      8  O   UNL     1      -7.423   1.329  27.020  0.00  0.00    -0.274 OA
ATOM     12  N   UNL     1      -7.315   1.992  24.823  0.00  0.00    -0.328 N 
ATOM     31  C   UNL     1      -6.812   1.871  26.102  0.00  0.00    +0.231 C 
ATOM     45  H   UNL     1      -8.224   1.611  24.584  0.00  0.00    +0.145 HD
ATOM     46  H   UNL     1      -6.801   2.444  24.075  0.00  0.00    +0.145 HD
ENDBRANCH  29  31
BRANCH  29  30
ATOM     30  C   UNL     1      -5.232   3.583  25.175  0.00  0.00    +0.067 C 
BRANCH  30  32
ATOM     32  C   UNL     1      -3.777   3.769  24.823  0.00  0.00    -0.045 A 
ATOM     33  C   UNL     1      -2.926   4.441  25.701  0.00  0.00    +0.007 A 
ATOM     34  C   UNL     1      -3.281   3.267  23.619  0.00  0.00    +0.007 A 
ATOM     35  C   UNL     1      -1.581   4.611  25.375  0.00  0.00    +0.046 A 
ATOM     36  C   UNL     1      -1.936   3.438  23.293  0.00  0.00    +0.046 A 
ATOM     37  C   UNL     1      -1.085   4.110  24.172  0.00  0.00    +0.120 A 
BRANCH  37   9
ATOM      9  O   UNL     1       0.228   4.276  23.854  0.00  0.00    -0.495 OA
ATOM     38  C   UNL     1       0.525   5.103  22.730  0.00  0.00    +0.277 C 
ENDBRANCH  37   9
ENDBRANCH  30  32
ENDBRANCH  29  30
ENDBRANCH  11  29
ENDBRANCH  21  27
BRANCH  21   1
ATOM      1  O   UNL     1      -3.397  -0.938  26.782  0.00  0.00    -0.379 OA
ATOM     40  H   UNL     1      -4.324  -1.137  27.000  0.00  0.00    +0.211 HD
ENDBRANCH  21   1
BRANCH  23   2
ATOM      2  O   UNL     1       0.054  -2.876  24.581  0.00  0.00    -0.387 OA
ATOM     41  H   UNL     1       0.627  -2.502  25.273  0.00  0.00    +0.210 HD
ENDBRANCH  23   2
BRANCH  24   3
ATOM      3  O   UNL     1      -2.490  -3.664  23.576  0.00  0.00    -0.389 OA
ATOM     42  H   UNL     1      -2.270  -4.518  23.986  0.00  0.00    +0.210 HD
ENDBRANCH  24   3
TORSDOF 15
ENDMDL
MODEL 4
REMARK VINA RESULT:       3.8      1.399      1.896
REMARK  Name = 7134523
REMARK  16 active torsions:
REMARK  status: ('A' for Active; 'I' for Inactive)
REMARK    1  A    between atoms: O_1  and  C_21
REMARK    2  A    between atoms: O_2  and  C_23
REMARK    3  A    between atoms: O_3  and  C_24
REMARK    4  A    between atoms: O_5  and  C_28
REMARK    5  A    between atoms: O_9  and  C_37
REMARK    6  A    between atoms: O_9  and  C_38
REMARK    7  A    between atoms: N_10  and  C_19
REMARK    8  A    between atoms: N_11  and  C_29
REMARK    9  A    between atoms: C_13  and  C_18
REMARK   10  A    between atoms: C_13  and  C_20
REMARK   11  A    between atoms: C_18  and  C_26
REMARK   12  A    between atoms: C_20  and  C_28
REMARK   13  A    between atoms: C_21  and  C_27
REMARK   14  A    between atoms: C_29  and  C_30
REMARK   15  A    between atoms: C_29  and  C_31
REMARK   16  A    between atoms: C_30  and  C_32
REMARK                            x       y       z     vdW  Elec       q    Type
REMARK                         _______ _______ _______ _____ _____    ______ ____
ROOT
ATOM     19  C   UNL     1       0.288   2.381  25.412  0.00  0.00    +0.107 C 
ATOM     21  C   UNL     1      -1.941   3.602  25.398  0.00  0.00    +0.146 C 
ATOM     22  C   UNL     1      -1.117   2.458  24.804  0.00  0.00    +0.069 C 
ATOM     23  C   UNL     1       0.244   2.315  26.944  0.00  0.00    +0.163 C 
ATOM     24  C   UNL     1      -0.597   3.444  27.543  0.00  0.00    +0.148 C 
ATOM     25  C   UNL     1      -1.994   3.512  26.922  0.00  0.00    +0.078 C 
ENDROOT
BRANCH  19  10
ATOM      4  O   UNL     1      -0.556   0.671  23.235  0.00  0.00    -0.276 OA
ATOM     10  N   UNL     1       0.992   1.238  24.872  0.00  0.00    -0.310 N 
ATOM     26  C   UNL     1       0.505   0.475  23.822  0.00  0.00    +0.214 C 
ATOM     39  H   UNL     1       1.848   0.953  25.338  0.00  0.00    +0.149 HD
BRANCH  26  18
ATOM     18  C   UNL     1       1.455  -0.654  23.468  0.00  0.00    +0.103 C 
BRANCH  18  13
ATOM     13  C   UNL     1       2.736  -0.155  22.796  0.00  0.00    -0.011 C 
ATOM     14  C   UNL     1       3.975  -0.887  23.329  0.00  0.00    +0.008 C 
ATOM     15  C   UNL     1       3.046   1.299  23.178  0.00  0.00    +0.008 C 
ATOM     16  C   UNL     1       5.144   0.054  23.046  0.00  0.00    +0.001 C 
ATOM     17  C   UNL     1       4.547   1.458  22.951  0.00  0.00    +0.001 C 
BRANCH  13  20
ATOM     20  C   UNL     1       2.605  -0.316  21.272  0.00  0.00    +0.127 C 
BRANCH  20  28
ATOM      7  O   UNL     1       0.965  -2.095  20.972  0.00  0.00    -0.251 OA
ATOM     28  C   UNL     1       1.281  -0.917  20.900  0.00  0.00    +0.305 C 
BRANCH  28   5
ATOM      5  O   UNL     1       0.451   0.061  20.456  0.00  0.00    -0.481 OA
ATOM     44  H   UNL     1       0.493   0.162  19.481  0.00  0.00    +0.295 HD
ENDBRANCH  28   5
ENDBRANCH  20  28
ENDBRANCH  13  20
ENDBRANCH  18  13
ENDBRANCH  26  18
ENDBRANCH  19  10
BRANCH  21  27
ATOM      6  O   UNL     1      -3.748   4.527  24.140  0.00  0.00    -0.273 OA
ATOM     11  N   UNL     1      -4.048   2.477  25.202  0.00  0.00    -0.301 N 
ATOM     27  C   UNL     1      -3.330   3.601  24.832  0.00  0.00    +0.246 C 
ATOM     43  H   UNL     1      -3.629   1.784  25.814  0.00  0.00    +0.150 HD
BRANCH  11  29
ATOM     29  C   UNL     1      -5.418   2.247  24.806  0.00  0.00    +0.163 C 
BRANCH  29  31
ATOM      8  O   UNL     1      -6.570   4.189  25.703  0.00  0.00    -0.274 OA
ATOM     12  N   UNL     1      -6.812   2.174  26.780  0.00  0.00    -0.328 N 
ATOM     31  C   UNL     1      -6.301   2.993  25.794  0.00  0.00    +0.231 C 
ATOM     45  H   UNL     1      -7.429   2.543  27.494  0.00  0.00    +0.145 HD
ATOM     46  H   UNL     1      -6.583   1.187  26.842  0.00  0.00    +0.145 HD
ENDBRANCH  29  31
BRANCH  29  30
ATOM     30  C   UNL     1      -5.775   0.757  24.791  0.00  0.00    +0.067 C 
BRANCH  30  32
ATOM     32  C   UNL     1      -4.558  -0.135  24.805  0.00  0.00    -0.045 A 
ATOM     33  C   UNL     1      -3.583   0.027  25.789  0.00  0.00    +0.007 A 
ATOM     34  C   UNL     1      -4.408  -1.124  23.832  0.00  0.00    +0.007 A 
ATOM     35  C   UNL     1      -2.459  -0.798  25.801  0.00  0.00    +0.046 A 
ATOM     36  C   UNL     1      -3.283  -1.949  23.844  0.00  0.00    +0.046 A 
ATOM     37  C   UNL     1      -2.309  -1.786  24.829  0.00  0.00    +0.120 A 
BRANCH  37   9
ATOM      9  O   UNL     1      -1.212  -2.592  24.841  0.00  0.00    -0.495 OA
ATOM     38  C   UNL     1      -0.180  -2.270  25.772  0.00  0.00    +0.277 C 
ENDBRANCH  37   9
ENDBRANCH  30  32
ENDBRANCH  29  30
ENDBRANCH  11  29
ENDBRANCH  21  27
BRANCH  21   1
ATOM      1  O   UNL     1      -1.391   4.859  25.024  0.00  0.00    -0.379 OA
ATOM     40  H   UNL     1      -0.904   5.220  25.785  0.00  0.00    +0.211 HD
ENDBRANCH  21   1
BRANCH  23   2
ATOM      2  O   UNL     1       1.574   2.447  27.455  0.00  0.00    -0.387 OA
ATOM     41  H   UNL     1       1.608   3.253  28.001  0.00  0.00    +0.210 HD
ENDBRANCH  23   2
BRANCH  24   3
ATOM      3  O   UNL     1      -0.727   3.215  28.946  0.00  0.00    -0.389 OA
ATOM     42  H   UNL     1      -1.662   3.346  29.180  0.00  0.00    +0.210 HD
ENDBRANCH  24   3
TORSDOF 15
ENDMDL
MODEL 5
REMARK VINA RESULT:       3.9      1.941      2.576
REMARK  Name = 7134523
REMARK  16 active torsions:
REMARK  status: ('A' for Active; 'I' for Inactive)
REMARK    1  A    between atoms: O_1  and  C_21
REMARK    2  A    between atoms: O_2  and  C_23
REMARK    3  A    between atoms: O_3  and  C_24
REMARK    4  A    between atoms: O_5  and  C_28
REMARK    5  A    between atoms: O_9  and  C_37
REMARK    6  A    between atoms: O_9  and  C_38
REMARK    7  A    between atoms: N_10  and  C_19
REMARK    8  A    between atoms: N_11  and  C_29
REMARK    9  A    between atoms: C_13  and  C_18
REMARK   10  A    between atoms: C_13  and  C_20
REMARK   11  A    between atoms: C_18  and  C_26
REMARK   12  A    between atoms: C_20  and  C_28
REMARK   13  A    between atoms: C_21  and  C_27
REMARK   14  A    between atoms: C_29  and  C_30
REMARK   15  A    between atoms: C_29  and  C_31
REMARK   16  A    between atoms: C_30  and  C_32
REMARK                            x       y       z     vdW  Elec       q    Type
REMARK                         _______ _______ _______ _____ _____    ______ ____
ROOT
ATOM     19  C   UNL     1      -1.111   2.783  23.257  0.00  0.00    +0.107 C 
ATOM     21  C   UNL     1      -3.328   3.772  24.007  0.00  0.00    +0.146 C 
ATOM     22  C   UNL     1      -2.509   2.495  23.815  0.00  0.00    +0.069 C 
ATOM     23  C   UNL     1      -0.361   3.819  24.103  0.00  0.00    +0.163 C 
ATOM     24  C   UNL     1      -1.185   5.091  24.317  0.00  0.00    +0.148 C 
ATOM     25  C   UNL     1      -2.579   4.786  24.869  0.00  0.00    +0.078 C 
ENDROOT
BRANCH  19  10
ATOM      4  O   UNL     1       0.876   1.813  25.123  0.00  0.00    -0.276 OA
ATOM     10  N   UNL     1      -0.356   1.553  23.170  0.00  0.00    -0.310 N 
ATOM     26  C   UNL     1       0.581   1.171  24.118  0.00  0.00    +0.214 C 
ATOM     39  H   UNL     1      -0.479   0.985  22.337  0.00  0.00    +0.149 HD
BRANCH  26  18
ATOM     18  C   UNL     1       1.213  -0.164  23.770  0.00  0.00    +0.103 C 
BRANCH  18  13
ATOM     13  C   UNL     1       2.541  -0.010  23.026  0.00  0.00    -0.011 C 
ATOM     14  C   UNL     1       3.631  -0.910  23.623  0.00  0.00    +0.008 C 
ATOM     15  C   UNL     1       3.145   1.387  23.231  0.00  0.00    +0.008 C 
ATOM     16  C   UNL     1       4.950  -0.259  23.215  0.00  0.00    +0.001 C 
ATOM     17  C   UNL     1       4.638   1.216  22.965  0.00  0.00    +0.001 C 
BRANCH  13  20
ATOM     20  C   UNL     1       2.324  -0.309  21.533  0.00  0.00    +0.127 C 
BRANCH  20  28
ATOM      7  O   UNL     1       0.151  -1.261  22.101  0.00  0.00    -0.251 OA
ATOM     28  C   UNL     1       0.933  -0.812  21.276  0.00  0.00    +0.305 C 
BRANCH  28   5
ATOM      5  O   UNL     1       0.652  -0.699  19.953  0.00  0.00    -0.481 OA
ATOM     44  H   UNL     1       0.656   0.236  19.656  0.00  0.00    +0.295 HD
ENDBRANCH  28   5
ENDBRANCH  20  28
ENDBRANCH  13  20
ENDBRANCH  18  13
ENDBRANCH  26  18
ENDBRANCH  19  10
BRANCH  21  27
ATOM      6  O   UNL     1      -5.351   4.325  25.151  0.00  0.00    -0.273 OA
ATOM     11  N   UNL     1      -4.975   2.112  24.533  0.00  0.00    -0.301 N 
ATOM     27  C   UNL     1      -4.661   3.457  24.621  0.00  0.00    +0.246 C 
ATOM     43  H   UNL     1      -4.318   1.462  24.112  0.00  0.00    +0.150 HD
BRANCH  11  29
ATOM     29  C   UNL     1      -6.193   1.548  25.068  0.00  0.00    +0.163 C 
BRANCH  29  31
ATOM      8  O   UNL     1      -5.497   2.724  27.077  0.00  0.00    -0.274 OA
ATOM     12  N   UNL     1      -7.224   1.217  27.229  0.00  0.00    -0.328 N 
ATOM     31  C   UNL     1      -6.234   1.895  26.549  0.00  0.00    +0.231 C 
ATOM     45  H   UNL     1      -7.370   1.369  28.221  0.00  0.00    +0.145 HD
ATOM     46  H   UNL     1      -7.829   0.537  26.780  0.00  0.00    +0.145 HD
ENDBRANCH  29  31
BRANCH  29  30
ATOM     30  C   UNL     1      -6.262   0.029  24.874  0.00  0.00    +0.067 C 
BRANCH  30  32
ATOM     32  C   UNL     1      -4.899  -0.616  24.828  0.00  0.00    -0.045 A 
ATOM     33  C   UNL     1      -3.912  -0.232  25.736  0.00  0.00    +0.007 A 
ATOM     34  C   UNL     1      -4.625  -1.598  23.875  0.00  0.00    +0.007 A 
ATOM     35  C   UNL     1      -2.653  -0.829  25.692  0.00  0.00    +0.046 A 
ATOM     36  C   UNL     1      -3.365  -2.196  23.832  0.00  0.00    +0.046 A 
ATOM     37  C   UNL     1      -2.379  -1.811  24.741  0.00  0.00    +0.120 A 
BRANCH  37   9
ATOM      9  O   UNL     1      -1.150  -2.394  24.699  0.00  0.00    -0.495 OA
ATOM     38  C   UNL     1      -0.246  -2.083  25.759  0.00  0.00    +0.277 C 
ENDBRANCH  37   9
ENDBRANCH  30  32
ENDBRANCH  29  30
ENDBRANCH  11  29
ENDBRANCH  21  27
BRANCH  21   1
ATOM      1  O   UNL     1      -3.632   4.363  22.750  0.00  0.00    -0.379 OA
ATOM     40  H   UNL     1      -3.510   3.692  22.057  0.00  0.00    +0.211 HD
ENDBRANCH  21   1
BRANCH  23   2
ATOM      2  O   UNL     1       0.843   4.192  23.426  0.00  0.00    -0.387 OA
ATOM     41  H   UNL     1       0.652   4.234  22.473  0.00  0.00    +0.210 HD
ENDBRANCH  23   2
BRANCH  24   3
ATOM      3  O   UNL     1      -0.494   5.926  25.246  0.00  0.00    -0.389 OA
ATOM     42  H   UNL     1      -0.325   5.399  26.046  0.00  0.00    +0.210 HD
ENDBRANCH  24   3
TORSDOF 15
ENDMDL
MODEL 6
REMARK VINA RESULT:       4.2      1.769      4.139
REMARK  Name = 7134523
REMARK  16 active torsions:
REMARK  status: ('A' for Active; 'I' for Inactive)
REMARK    1  A    between atoms: O_1  and  C_21
REMARK    2  A    between atoms: O_2  and  C_23
REMARK    3  A    between atoms: O_3  and  C_24
REMARK    4  A    between atoms: O_5  and  C_28
REMARK    5  A    between atoms: O_9  and  C_37
REMARK    6  A    between atoms: O_9  and  C_38
REMARK    7  A    between atoms: N_10  and  C_19
REMARK    8  A    between atoms: N_11  and  C_29
REMARK    9  A    between atoms: C_13  and  C_18
REMARK   10  A    between atoms: C_13  and  C_20
REMARK   11  A    between atoms: C_18  and  C_26
REMARK   12  A    between atoms: C_20  and  C_28
REMARK   13  A    between atoms: C_21  and  C_27
REMARK   14  A    between atoms: C_29  and  C_30
REMARK   15  A    between atoms: C_29  and  C_31
REMARK   16  A    between atoms: C_30  and  C_32
REMARK                            x       y       z     vdW  Elec       q    Type
REMARK                         _______ _______ _______ _____ _____    ______ ____
ROOT
ATOM     19  C   UNL     1      -1.123  -1.072  25.434  0.00  0.00    +0.107 C 
ATOM     21  C   UNL     1      -3.629  -0.649  25.467  0.00  0.00    +0.146 C 
ATOM     22  C   UNL     1      -2.238  -0.024  25.347  0.00  0.00    +0.069 C 
ATOM     23  C   UNL     1      -1.327  -2.207  24.422  0.00  0.00    +0.163 C 
ATOM     24  C   UNL     1      -2.724  -2.821  24.522  0.00  0.00    +0.148 C 
ATOM     25  C   UNL     1      -3.825  -1.763  24.440  0.00  0.00    +0.078 C 
ENDROOT
BRANCH  19  10
ATOM      4  O   UNL     1      -0.389   0.781  23.335  0.00  0.00    -0.276 OA
ATOM     10  N   UNL     1       0.161  -0.437  25.236  0.00  0.00    -0.310 N 
ATOM     26  C   UNL     1       0.419   0.441  24.195  0.00  0.00    +0.214 C 
ATOM     39  H   UNL     1       0.918  -0.708  25.856  0.00  0.00    +0.149 HD
BRANCH  26  18
ATOM     18  C   UNL     1       1.848   0.953  24.240  0.00  0.00    +0.103 C 
BRANCH  18  13
ATOM     13  C   UNL     1       2.732   0.323  23.161  0.00  0.00    -0.011 C 
ATOM     14  C   UNL     1       3.546   1.384  22.408  0.00  0.00    +0.008 C 
ATOM     15  C   UNL     1       1.894  -0.287  22.029  0.00  0.00    +0.008 C 
ATOM     16  C   UNL     1       3.891   0.741  21.067  0.00  0.00    +0.001 C 
ATOM     17  C   UNL     1       2.829  -0.331  20.823  0.00  0.00    +0.001 C 
BRANCH  13  20
ATOM     20  C   UNL     1       3.647  -0.730  23.807  0.00  0.00    +0.127 C 
BRANCH  20  28
ATOM      7  O   UNL     1       5.987  -0.517  23.152  0.00  0.00    -0.251 OA
ATOM     28  C   UNL     1       5.062  -0.237  23.901  0.00  0.00    +0.305 C 
BRANCH  28   5
ATOM      5  O   UNL     1       5.181   0.591  24.970  0.00  0.00    -0.481 OA
ATOM     44  H   UNL     1       4.643   1.405  24.864  0.00  0.00    +0.295 HD
ENDBRANCH  28   5
ENDBRANCH  20  28
ENDBRANCH  13  20
ENDBRANCH  18  13
ENDBRANCH  26  18
ENDBRANCH  19  10
BRANCH  21  27
ATOM      6  O   UNL     1      -5.538   0.328  24.416  0.00  0.00    -0.273 OA
ATOM     11  N   UNL     1      -4.579   1.411  26.240  0.00  0.00    -0.301 N 
ATOM     27  C   UNL     1      -4.693   0.396  25.306  0.00  0.00    +0.246 C 
ATOM     43  H   UNL     1      -3.818   1.400  26.912  0.00  0.00    +0.150 HD
BRANCH  11  29
ATOM     29  C   UNL     1      -5.468   2.548  26.286  0.00  0.00    +0.163 C 
BRANCH  29  31
ATOM      8  O   UNL     1      -7.515   1.619  27.209  0.00  0.00    -0.274 OA
ATOM     12  N   UNL     1      -7.423   2.048  24.954  0.00  0.00    -0.328 N 
ATOM     31  C   UNL     1      -6.889   2.008  26.226  0.00  0.00    +0.231 C 
ATOM     45  H   UNL     1      -8.371   1.731  24.778  0.00  0.00    +0.145 HD
ATOM     46  H   UNL     1      -6.897   2.374  24.151  0.00  0.00    +0.145 HD
ENDBRANCH  29  31
BRANCH  29  30
ATOM     30  C   UNL     1      -5.219   3.525  25.131  0.00  0.00    +0.067 C 
BRANCH  30  32
ATOM     32  C   UNL     1      -3.756   3.671  24.795  0.00  0.00    -0.045 A 
ATOM     33  C   UNL     1      -2.902   4.344  25.669  0.00  0.00    +0.007 A 
ATOM     34  C   UNL     1      -3.256   3.133  23.609  0.00  0.00    +0.007 A 
ATOM     35  C   UNL     1      -1.549   4.478  25.358  0.00  0.00    +0.046 A 
ATOM     36  C   UNL     1      -1.903   3.266  23.298  0.00  0.00    +0.046 A 
ATOM     37  C   UNL     1      -1.050   3.940  24.173  0.00  0.00    +0.120 A 
BRANCH  37   9
ATOM      9  O   UNL     1       0.271   4.070  23.869  0.00  0.00    -0.495 OA
ATOM     38  C   UNL     1       0.616   5.023  22.865  0.00  0.00    +0.277 C 
ENDBRANCH  37   9
ENDBRANCH  30  32
ENDBRANCH  29  30
ENDBRANCH  11  29
ENDBRANCH  21  27
BRANCH  21   1
ATOM      1  O   UNL     1      -3.826  -1.179  26.772  0.00  0.00    -0.379 OA
ATOM     40  H   UNL     1      -4.233  -2.058  26.689  0.00  0.00    +0.211 HD
ENDBRANCH  21   1
BRANCH  23   2
ATOM      2  O   UNL     1      -0.377  -3.244  24.685  0.00  0.00    -0.387 OA
ATOM     41  H   UNL     1      -0.250  -3.752  23.865  0.00  0.00    +0.210 HD
ENDBRANCH  23   2
BRANCH  24   3
ATOM      3  O   UNL     1      -2.890  -3.744  23.445  0.00  0.00    -0.389 OA
ATOM     42  H   UNL     1      -3.387  -4.507  23.786  0.00  0.00    +0.210 HD
ENDBRANCH  24   3
TORSDOF 15
ENDMDL
MODEL 7
REMARK VINA RESULT:       5.3      2.042      6.027
REMARK  Name = 7134523
REMARK  16 active torsions:
REMARK  status: ('A' for Active; 'I' for Inactive)
REMARK    1  A    between atoms: O_1  and  C_21
REMARK    2  A    between atoms: O_2  and  C_23
REMARK    3  A    between atoms: O_3  and  C_24
REMARK    4  A    between atoms: O_5  and  C_28
REMARK    5  A    between atoms: O_9  and  C_37
REMARK    6  A    between atoms: O_9  and  C_38
REMARK    7  A    between atoms: N_10  and  C_19
REMARK    8  A    between atoms: N_11  and  C_29
REMARK    9  A    between atoms: C_13  and  C_18
REMARK   10  A    between atoms: C_13  and  C_20
REMARK   11  A    between atoms: C_18  and  C_26
REMARK   12  A    between atoms: C_20  and  C_28
REMARK   13  A    between atoms: C_21  and  C_27
REMARK   14  A    between atoms: C_29  and  C_30
REMARK   15  A    between atoms: C_29  and  C_31
REMARK   16  A    between atoms: C_30  and  C_32
REMARK                            x       y       z     vdW  Elec       q    Type
REMARK                         _______ _______ _______ _____ _____    ______ ____
ROOT
ATOM     19  C   UNL     1      -4.564   2.703  24.686  0.00  0.00    +0.107 C 
ATOM     21  C   UNL     1      -4.749   0.169  24.639  0.00  0.00    +0.146 C 
ATOM     22  C   UNL     1      -3.811   1.375  24.558  0.00  0.00    +0.069 C 
ATOM     23  C   UNL     1      -5.438   2.744  25.946  0.00  0.00    +0.163 C 
ATOM     24  C   UNL     1      -6.362   1.530  26.044  0.00  0.00    +0.148 C 
ATOM     25  C   UNL     1      -5.597   0.212  25.908  0.00  0.00    +0.078 C 
ENDROOT
BRANCH  19  10
ATOM      4  O   UNL     1      -3.444   4.059  26.984  0.00  0.00    -0.276 OA
ATOM     10  N   UNL     1      -3.623   3.802  24.682  0.00  0.00    -0.310 N 
ATOM     26  C   UNL     1      -3.141   4.390  25.841  0.00  0.00    +0.214 C 
ATOM     39  H   UNL     1      -3.365   4.194  23.781  0.00  0.00    +0.149 HD
BRANCH  26  18
ATOM     18  C   UNL     1      -2.169   5.513  25.531  0.00  0.00    +0.103 C 
BRANCH  18  13
ATOM     13  C   UNL     1      -0.888   5.014  24.859  0.00  0.00    -0.011 C 
ATOM     14  C   UNL     1      -0.200   6.127  24.057  0.00  0.00    +0.008 C 
ATOM     15  C   UNL     1      -1.190   3.982  23.763  0.00  0.00    +0.008 C 
ATOM     16  C   UNL     1       0.658   5.399  23.025  0.00  0.00    +0.001 C 
ATOM     17  C   UNL     1       0.022   4.023  22.835  0.00  0.00    +0.001 C 
BRANCH  13  20
ATOM     20  C   UNL     1       0.052   4.432  25.928  0.00  0.00    +0.127 C 
BRANCH  20  28
ATOM      7  O   UNL     1      -1.157   2.317  25.813  0.00  0.00    -0.251 OA
ATOM     28  C   UNL     1      -0.149   2.953  26.083  0.00  0.00    +0.305 C 
BRANCH  28   5
ATOM      5  O   UNL     1       0.983   2.396  26.585  0.00  0.00    -0.481 OA
ATOM     44  H   UNL     1       1.425   1.812  25.932  0.00  0.00    +0.295 HD
ENDBRANCH  28   5
ENDBRANCH  20  28
ENDBRANCH  13  20
ENDBRANCH  18  13
ENDBRANCH  26  18
ENDBRANCH  19  10
BRANCH  21  27
ATOM      6  O   UNL     1      -4.524  -2.206  24.519  0.00  0.00    -0.273 OA
ATOM     11  N   UNL     1      -2.602  -0.897  24.631  0.00  0.00    -0.301 N 
ATOM     27  C   UNL     1      -3.968  -1.111  24.581  0.00  0.00    +0.246 C 
ATOM     43  H   UNL     1      -2.238   0.046  24.725  0.00  0.00    +0.150 HD
BRANCH  11  29
ATOM     29  C   UNL     1      -1.632  -1.967  24.613  0.00  0.00    +0.163 C 
BRANCH  29  31
ATOM      8  O   UNL     1       0.303  -2.428  26.008  0.00  0.00    -0.274 OA
ATOM     12  N   UNL     1      -0.961  -0.566  26.465  0.00  0.00    -0.328 N 
ATOM     31  C   UNL     1      -0.665  -1.714  25.761  0.00  0.00    +0.231 C 
ATOM     45  H   UNL     1      -0.385  -0.272  27.247  0.00  0.00    +0.145 HD
ATOM     46  H   UNL     1      -1.763   0.017  26.249  0.00  0.00    +0.145 HD
ENDBRANCH  29  31
BRANCH  29  30
ATOM     30  C   UNL     1      -0.874  -2.041  23.283  0.00  0.00    +0.067 C 
BRANCH  30  32
ATOM     32  C   UNL     1       0.295  -1.089  23.224  0.00  0.00    -0.045 A 
ATOM     33  C   UNL     1       0.105   0.269  23.480  0.00  0.00    +0.007 A 
ATOM     34  C   UNL     1       1.567  -1.568  22.912  0.00  0.00    +0.007 A 
ATOM     35  C   UNL     1       1.187   1.147  23.425  0.00  0.00    +0.046 A 
ATOM     36  C   UNL     1       2.650  -0.690  22.858  0.00  0.00    +0.046 A 
ATOM     37  C   UNL     1       2.459   0.668  23.114  0.00  0.00    +0.120 A 
BRANCH  37   9
ATOM      9  O   UNL     1       3.515   1.526  23.062  0.00  0.00    -0.495 OA
ATOM     38  C   UNL     1       4.819   0.958  23.175  0.00  0.00    +0.277 C 
ENDBRANCH  37   9
ENDBRANCH  30  32
ENDBRANCH  29  30
ENDBRANCH  11  29
ENDBRANCH  21  27
BRANCH  21   1
ATOM      1  O   UNL     1      -5.608   0.129  23.505  0.00  0.00    -0.379 OA
ATOM     40  H   UNL     1      -6.424  -0.337  23.755  0.00  0.00    +0.211 HD
ENDBRANCH  21   1
BRANCH  23   2
ATOM      2  O   UNL     1      -6.261   3.913  25.906  0.00  0.00    -0.387 OA
ATOM     41  H   UNL     1      -7.048   3.747  26.455  0.00  0.00    +0.210 HD
ENDBRANCH  23   2
BRANCH  24   3
ATOM      3  O   UNL     1      -7.011   1.556  27.316  0.00  0.00    -0.389 OA
ATOM     42  H   UNL     1      -7.866   2.006  27.200  0.00  0.00    +0.210 HD
ENDBRANCH  24   3
TORSDOF 15
ENDMDL
