MODEL 1
REMARK VINA RESULT:       4.1      0.000      0.000
REMARK  Name = 26742482
REMARK  9 active torsions:
REMARK  status: ('A' for Active; 'I' for Inactive)
REMARK    1  A    between atoms: N_4  and  C_15
REMARK    2  A    between atoms: N_7  and  C_29
REMARK    3  A    between atoms: N_7  and  C_32
REMARK    4  A    between atoms: N_7  and  C_33
REMARK    5  A    between atoms: C_9  and  C_16
REMARK    6  A    between atoms: C_10  and  C_15
REMARK    7  A    between atoms: C_18  and  C_21
REMARK    8  A    between atoms: C_19  and  C_22
REMARK    9  A    between atoms: C_20  and  C_23
REMARK                            x       y       z     vdW  Elec       q    Type
REMARK                         _______ _______ _______ _____ _____    ______ ____
ROOT
ATOM      3  N   UNL     1      -3.992   3.558  25.933  0.00  0.00    -0.297 NA
ATOM      8  C   UNL     1      -5.011   1.963  24.145  0.00  0.00    +0.002 C 
ATOM      9  C   UNL     1      -4.295   1.147  25.257  0.00  0.00    +0.055 C 
ATOM     10  C   UNL     1      -3.592   3.999  24.571  0.00  0.00    +0.074 C 
ATOM     11  C   UNL     1      -4.011   2.955  23.515  0.00  0.00    +0.024 C 
ATOM     12  C   UNL     1      -6.103   2.801  24.843  0.00  0.00    +0.019 C 
ATOM     13  C   UNL     1      -3.545   2.162  26.167  0.00  0.00    +0.094 C 
ATOM     14  C   UNL     1      -5.472   3.590  26.004  0.00  0.00    +0.085 C 
ENDROOT
BRANCH   9  16
ATOM      5  N   UNL     1      -4.002  -1.221  24.716  0.00  0.00    -0.237 NA
ATOM      6  N   UNL     1      -1.864  -2.139  24.088  0.00  0.00    -0.232 NA
ATOM     16  C   UNL     1      -3.406  -0.016  24.836  0.00  0.00    +0.050 A 
ATOM     17  C   UNL     1      -2.064   0.204  24.603  0.00  0.00    +0.052 A 
ATOM     18  C   UNL     1      -1.335  -0.906  24.228  0.00  0.00    +0.075 A 
ATOM     19  C   UNL     1      -3.184  -2.223  24.344  0.00  0.00    +0.127 A 
ATOM     22  C   UNL     1      -3.804  -3.571  24.202  0.00  0.00    +0.088 C 
BRANCH  18  21
ATOM     21  C   UNL     1       0.079  -0.810  23.956  0.00  0.00    +0.001 A 
ATOM     24  C   UNL     1       0.972  -1.677  24.585  0.00  0.00    +0.012 A 
ATOM     25  C   UNL     1       0.554   0.152  23.063  0.00  0.00    +0.012 A 
ATOM     27  C   UNL     1       2.338  -1.585  24.322  0.00  0.00    +0.024 A 
ATOM     28  C   UNL     1       1.921   0.245  22.800  0.00  0.00    +0.024 A 
ATOM     29  C   UNL     1       2.812  -0.623  23.429  0.00  0.00    +0.029 A 
BRANCH  29   7
ATOM      7  N   UNL     1       4.194  -0.529  23.163  0.00  0.00    -0.336 N 
ATOM     32  C   UNL     1       4.699   0.469  22.243  0.00  0.00    +0.129 C 
ATOM     33  C   UNL     1       5.129  -1.427  23.814  0.00  0.00    +0.129 C 
ENDBRANCH  29   7
ENDBRANCH  18  21
ENDBRANCH   9  16
BRANCH  10  15
ATOM     15  C   UNL     1      -2.102   4.335  24.482  0.00  0.00    +0.123 C 
BRANCH  15   4
ATOM      1  O   UNL     1       0.301   2.775  24.667  0.00  0.00    -0.267 OA
ATOM      4  N   UNL     1      -1.420   3.954  25.681  0.00  0.00    -0.307 N 
ATOM     20  C   UNL     1      -0.254   3.191  25.681  0.00  0.00    +0.279 C 
ATOM     34  H   UNL     1      -1.814   4.247  26.571  0.00  0.00    +0.149 HD
BRANCH  20  23
ATOM      2  O   UNL     1       1.638   3.104  27.216  0.00  0.00    -0.458 OA
ATOM     23  C   UNL     1       0.317   2.857  27.010  0.00  0.00    +0.189 A 
ATOM     26  C   UNL     1      -0.254   2.319  28.140  0.00  0.00    +0.054 A 
ATOM     30  C   UNL     1       0.781   2.230  29.100  0.00  0.00    +0.042 A 
ATOM     31  C   UNL     1       1.912   2.720  28.489  0.00  0.00    +0.196 A 
ENDBRANCH  20  23
ENDBRANCH  15   4
ENDBRANCH  10  15
TORSDOF 6
ENDMDL
MODEL 2
REMARK VINA RESULT:       7.0      2.001      4.310
REMARK  Name = 26742482
REMARK  9 active torsions:
REMARK  status: ('A' for Active; 'I' for Inactive)
REMARK    1  A    between atoms: N_4  and  C_15
REMARK    2  A    between atoms: N_7  and  C_29
REMARK    3  A    between atoms: N_7  and  C_32
REMARK    4  A    between atoms: N_7  and  C_33
REMARK    5  A    between atoms: C_9  and  C_16
REMARK    6  A    between atoms: C_10  and  C_15
REMARK    7  A    between atoms: C_18  and  C_21
REMARK    8  A    between atoms: C_19  and  C_22
REMARK    9  A    between atoms: C_20  and  C_23
REMARK                            x       y       z     vdW  Elec       q    Type
REMARK                         _______ _______ _______ _____ _____    ______ ____
ROOT
ATOM      3  N   UNL     1      -3.897  -1.356  25.982  0.00  0.00    -0.297 NA
ATOM      8  C   UNL     1      -2.701  -2.120  23.799  0.00  0.00    +0.002 C 
ATOM      9  C   UNL     1      -1.699  -1.400  24.745  0.00  0.00    +0.055 C 
ATOM     10  C   UNL     1      -4.677  -0.918  24.795  0.00  0.00    +0.074 C 
ATOM     11  C   UNL     1      -3.884  -1.178  23.496  0.00  0.00    +0.024 C 
ATOM     12  C   UNL     1      -3.267  -3.323  24.584  0.00  0.00    +0.019 C 
ATOM     13  C   UNL     1      -2.522  -0.801  25.921  0.00  0.00    +0.094 C 
ATOM     14  C   UNL     1      -3.802  -2.835  25.942  0.00  0.00    +0.085 C 
ENDROOT
BRANCH   9  16
ATOM      5  N   UNL     1      -1.278   0.763  23.683  0.00  0.00    -0.237 NA
ATOM      6  N   UNL     1       0.933   1.467  23.037  0.00  0.00    -0.232 NA
ATOM     16  C   UNL     1      -0.739  -0.387  24.138  0.00  0.00    +0.050 A 
ATOM     17  C   UNL     1       0.609  -0.678  24.078  0.00  0.00    +0.052 A 
ATOM     18  C   UNL     1       1.405   0.296  23.511  0.00  0.00    +0.075 A 
ATOM     19  C   UNL     1      -0.398   1.632  23.153  0.00  0.00    +0.127 A 
ATOM     22  C   UNL     1      -0.957   2.915  22.636  0.00  0.00    +0.088 C 
BRANCH  18  21
ATOM     21  C   UNL     1       2.831   0.113  23.389  0.00  0.00    +0.001 A 
ATOM     24  C   UNL     1       3.623   1.131  22.859  0.00  0.00    +0.012 A 
ATOM     25  C   UNL     1       3.419  -1.084  23.800  0.00  0.00    +0.012 A 
ATOM     27  C   UNL     1       5.001   0.955  22.741  0.00  0.00    +0.024 A 
ATOM     28  C   UNL     1       4.798  -1.262  23.681  0.00  0.00    +0.024 A 
ATOM     29  C   UNL     1       5.588  -0.242  23.152  0.00  0.00    +0.029 A 
BRANCH  29   7
ATOM      7  N   UNL     1       6.982  -0.421  23.032  0.00  0.00    -0.336 N 
ATOM     32  C   UNL     1       7.899   0.450  23.739  0.00  0.00    +0.129 C 
ATOM     33  C   UNL     1       7.516  -1.486  22.205  0.00  0.00    +0.129 C 
ENDBRANCH  29   7
ENDBRANCH  18  21
ENDBRANCH   9  16
BRANCH  10  15
ATOM     15  C   UNL     1      -5.133   0.538  24.903  0.00  0.00    +0.123 C 
BRANCH  15   4
ATOM      1  O   UNL     1      -5.167   3.285  25.738  0.00  0.00    -0.267 OA
ATOM      4  N   UNL     1      -4.010   1.420  24.988  0.00  0.00    -0.307 N 
ATOM     20  C   UNL     1      -4.116   2.746  25.404  0.00  0.00    +0.279 C 
ATOM     34  H   UNL     1      -3.097   1.061  24.721  0.00  0.00    +0.149 HD
BRANCH  20  23
ATOM      2  O   UNL     1      -1.739   2.949  25.906  0.00  0.00    -0.458 OA
ATOM     23  C   UNL     1      -2.860   3.538  25.411  0.00  0.00    +0.189 A 
ATOM     26  C   UNL     1      -2.586   4.820  24.993  0.00  0.00    +0.054 A 
ATOM     30  C   UNL     1      -1.210   5.031  25.247  0.00  0.00    +0.042 A 
ATOM     31  C   UNL     1      -0.740   3.864  25.802  0.00  0.00    +0.196 A 
ENDBRANCH  20  23
ENDBRANCH  15   4
ENDBRANCH  10  15
TORSDOF 6
ENDMDL
MODEL 3
REMARK VINA RESULT:       7.1      2.578      4.498
REMARK  Name = 26742482
REMARK  9 active torsions:
REMARK  status: ('A' for Active; 'I' for Inactive)
REMARK    1  A    between atoms: N_4  and  C_15
REMARK    2  A    between atoms: N_7  and  C_29
REMARK    3  A    between atoms: N_7  and  C_32
REMARK    4  A    between atoms: N_7  and  C_33
REMARK    5  A    between atoms: C_9  and  C_16
REMARK    6  A    between atoms: C_10  and  C_15
REMARK    7  A    between atoms: C_18  and  C_21
REMARK    8  A    between atoms: C_19  and  C_22
REMARK    9  A    between atoms: C_20  and  C_23
REMARK                            x       y       z     vdW  Elec       q    Type
REMARK                         _______ _______ _______ _____ _____    ______ ____
ROOT
ATOM      3  N   UNL     1      -2.784   4.461  23.870  0.00  0.00    -0.297 NA
ATOM      8  C   UNL     1      -1.351   3.370  25.751  0.00  0.00    +0.002 C 
ATOM      9  C   UNL     1      -0.663   3.190  24.369  0.00  0.00    +0.055 C 
ATOM     10  C   UNL     1      -3.635   3.578  24.710  0.00  0.00    +0.074 C 
ATOM     11  C   UNL     1      -2.770   2.766  25.697  0.00  0.00    +0.024 C 
ATOM     12  C   UNL     1      -1.513   4.889  25.973  0.00  0.00    +0.019 C 
ATOM     13  C   UNL     1      -1.664   3.681  23.285  0.00  0.00    +0.094 C 
ATOM     14  C   UNL     1      -2.210   5.508  24.748  0.00  0.00    +0.085 C 
ENDROOT
BRANCH   9  16
ATOM      5  N   UNL     1      -0.941   0.807  23.894  0.00  0.00    -0.237 NA
ATOM      6  N   UNL     1       0.931  -0.638  23.433  0.00  0.00    -0.232 NA
ATOM     16  C   UNL     1      -0.071   1.828  24.033  0.00  0.00    +0.050 A 
ATOM     17  C   UNL     1       1.295   1.697  23.889  0.00  0.00    +0.052 A 
ATOM     18  C   UNL     1       1.744   0.428  23.586  0.00  0.00    +0.075 A 
ATOM     19  C   UNL     1      -0.380  -0.381  23.598  0.00  0.00    +0.127 A 
ATOM     22  C   UNL     1      -1.310  -1.536  23.439  0.00  0.00    +0.088 C 
BRANCH  18  21
ATOM     21  C   UNL     1       3.151   0.157  23.411  0.00  0.00    +0.001 A 
ATOM     24  C   UNL     1       3.694  -1.042  23.869  0.00  0.00    +0.012 A 
ATOM     25  C   UNL     1       3.968   1.098  22.782  0.00  0.00    +0.012 A 
ATOM     27  C   UNL     1       5.053  -1.303  23.700  0.00  0.00    +0.024 A 
ATOM     28  C   UNL     1       5.328   0.837  22.613  0.00  0.00    +0.024 A 
ATOM     29  C   UNL     1       5.870  -0.363  23.071  0.00  0.00    +0.029 A 
BRANCH  29   7
ATOM      7  N   UNL     1       7.245  -0.626  22.900  0.00  0.00    -0.336 N 
ATOM     32  C   UNL     1       7.685  -1.720  22.058  0.00  0.00    +0.129 C 
ATOM     33  C   UNL     1       8.238   0.199  23.559  0.00  0.00    +0.129 C 
ENDBRANCH  29   7
ENDBRANCH  18  21
ENDBRANCH   9  16
BRANCH  10  15
ATOM     15  C   UNL     1      -4.544   2.677  23.872  0.00  0.00    +0.123 C 
BRANCH  15   4
ATOM      1  O   UNL     1      -5.595   0.810  25.783  0.00  0.00    -0.267 OA
ATOM      4  N   UNL     1      -4.174   1.302  24.017  0.00  0.00    -0.307 N 
ATOM     20  C   UNL     1      -4.736   0.462  24.977  0.00  0.00    +0.279 C 
ATOM     34  H   UNL     1      -3.461   0.929  23.396  0.00  0.00    +0.149 HD
BRANCH  20  23
ATOM      2  O   UNL     1      -4.539  -1.753  23.978  0.00  0.00    -0.458 OA
ATOM     23  C   UNL     1      -4.225  -0.931  25.015  0.00  0.00    +0.189 A 
ATOM     26  C   UNL     1      -3.453  -1.595  25.940  0.00  0.00    +0.054 A 
ATOM     30  C   UNL     1      -3.282  -2.908  25.440  0.00  0.00    +0.042 A 
ATOM     31  C   UNL     1      -3.961  -2.953  24.245  0.00  0.00    +0.196 A 
ENDBRANCH  20  23
ENDBRANCH  15   4
ENDBRANCH  10  15
TORSDOF 6
ENDMDL
