MODEL 1
REMARK VINA RESULT:      -2.2      0.000      0.000
REMARK  Name = 51136660
REMARK  10 active torsions:
REMARK  status: ('A' for Active; 'I' for Inactive)
REMARK    1  A    between atoms: O_2  and  C_18
REMARK    2  A    between atoms: O_4  and  C_22
REMARK    3  A    between atoms: O_4  and  C_27
REMARK    4  A    between atoms: O_5  and  C_26
REMARK    5  A    between atoms: O_5  and  C_28
REMARK    6  A    between atoms: C_8  and  C_13
REMARK    7  A    between atoms: C_9  and  C_14
REMARK    8  A    between atoms: C_13  and  C_15
REMARK    9  A    between atoms: C_14  and  C_18
REMARK   10  A    between atoms: C_16  and  C_22
REMARK                            x       y       z     vdW  Elec       q    Type
REMARK                         _______ _______ _______ _____ _____    ______ ____
ROOT
ATOM      1  O   UNL     1      -3.398  -3.061  24.675  0.00  0.00    -0.273 OA
ATOM      6  N   UNL     1      -1.542  -1.711  25.032  0.00  0.00    -0.299 N 
ATOM      8  C   UNL     1      -0.161   0.288  24.508  0.00  0.00    +0.016 C 
ATOM      9  C   UNL     1       0.832  -0.641  23.763  0.00  0.00    +0.006 C 
ATOM     10  C   UNL     1       0.137  -1.908  23.238  0.00  0.00    +0.023 C 
ATOM     11  C   UNL     1      -0.909  -0.510  25.592  0.00  0.00    +0.112 C 
ATOM     12  C   UNL     1      -0.625  -2.624  24.350  0.00  0.00    +0.108 C 
ATOM     16  C   UNL     1      -2.895  -2.032  25.132  0.00  0.00    +0.241 C 
ENDROOT
BRANCH   8  13
ATOM     13  C   UNL     1      -1.160   0.998  23.586  0.00  0.00    +0.061 C 
BRANCH  13  15
ATOM      7  N   UNL     1      -0.281   3.196  23.998  0.00  0.00    -0.287 NA
ATOM     15  C   UNL     1      -1.326   2.435  24.021  0.00  0.00    +0.044 C 
ATOM     17  C   UNL     1      -2.667   2.899  24.459  0.00  0.00    -0.001 A 
ATOM     19  C   UNL     1      -2.711   4.083  25.206  0.00  0.00    -0.033 A 
ATOM     20  C   UNL     1      -1.424   4.784  25.524  0.00  0.00    +0.059 C 
ATOM     21  C   UNL     1      -0.455   4.607  24.362  0.00  0.00    +0.146 C 
ATOM     23  C   UNL     1      -3.840   2.202  24.165  0.00  0.00    +0.013 A 
ATOM     24  C   UNL     1      -3.939   4.552  25.683  0.00  0.00    +0.050 A 
ATOM     25  C   UNL     1      -5.062   2.687  24.632  0.00  0.00    +0.046 A 
ATOM     26  C   UNL     1      -5.112   3.856  25.390  0.00  0.00    +0.120 A 
BRANCH  26   5
ATOM      5  O   UNL     1      -6.308   4.319  25.850  0.00  0.00    -0.495 OA
ATOM     28  C   UNL     1      -6.676   5.645  25.477  0.00  0.00    +0.277 C 
ENDBRANCH  26   5
ENDBRANCH  13  15
ENDBRANCH   8  13
BRANCH   9  14
ATOM     14  C   UNL     1       1.586   0.066  22.637  0.00  0.00    +0.124 C 
BRANCH  14  18
ATOM      3  O   UNL     1       3.723   1.223  22.821  0.00  0.00    -0.251 OA
ATOM     18  C   UNL     1       3.048   0.214  22.954  0.00  0.00    +0.305 C 
BRANCH  18   2
ATOM      2  O   UNL     1       3.536  -0.963  23.426  0.00  0.00    -0.481 OA
ATOM     29  H   UNL     1       4.488  -0.901  23.647  0.00  0.00    +0.295 HD
ENDBRANCH  18   2
ENDBRANCH  14  18
ENDBRANCH   9  14
BRANCH  16  22
ATOM     22  C   UNL     1      -3.775  -1.037  25.847  0.00  0.00    +0.255 C 
BRANCH  22   4
ATOM      4  O   UNL     1      -4.723  -0.591  24.909  0.00  0.00    -0.374 OA
ATOM     27  C   UNL     1      -4.351  -0.920  23.572  0.00  0.00    +0.194 C 
ENDBRANCH  22   4
ENDBRANCH  16  22
TORSDOF 8
ENDMDL
MODEL 2
REMARK VINA RESULT:      -1.2      2.192      7.363
REMARK  Name = 51136660
REMARK  10 active torsions:
REMARK  status: ('A' for Active; 'I' for Inactive)
REMARK    1  A    between atoms: O_2  and  C_18
REMARK    2  A    between atoms: O_4  and  C_22
REMARK    3  A    between atoms: O_4  and  C_27
REMARK    4  A    between atoms: O_5  and  C_26
REMARK    5  A    between atoms: O_5  and  C_28
REMARK    6  A    between atoms: C_8  and  C_13
REMARK    7  A    between atoms: C_9  and  C_14
REMARK    8  A    between atoms: C_13  and  C_15
REMARK    9  A    between atoms: C_14  and  C_18
REMARK   10  A    between atoms: C_16  and  C_22
REMARK                            x       y       z     vdW  Elec       q    Type
REMARK                         _______ _______ _______ _____ _____    ______ ____
ROOT
ATOM      1  O   UNL     1      -0.573   5.678  24.503  0.00  0.00    -0.273 OA
ATOM      6  N   UNL     1      -2.110   4.369  25.653  0.00  0.00    -0.299 N 
ATOM      8  C   UNL     1      -3.886   2.632  25.715  0.00  0.00    +0.016 C 
ATOM      9  C   UNL     1      -4.933   3.763  25.885  0.00  0.00    +0.006 C 
ATOM     10  C   UNL     1      -4.438   5.088  25.281  0.00  0.00    +0.023 C 
ATOM     11  C   UNL     1      -2.522   3.097  26.259  0.00  0.00    +0.112 C 
ATOM     12  C   UNL     1      -3.063   5.466  25.824  0.00  0.00    +0.108 C 
ATOM     16  C   UNL     1      -0.908   4.592  24.981  0.00  0.00    +0.241 C 
ENDROOT
BRANCH   8  13
ATOM     13  C   UNL     1      -3.741   2.131  24.273  0.00  0.00    +0.061 C 
BRANCH  13  15
ATOM      7  N   UNL     1      -4.227  -0.206  24.551  0.00  0.00    -0.287 NA
ATOM     15  C   UNL     1      -3.325   0.679  24.275  0.00  0.00    +0.044 C 
ATOM     17  C   UNL     1      -1.912   0.339  23.972  0.00  0.00    -0.001 A 
ATOM     19  C   UNL     1      -1.474  -0.936  24.354  0.00  0.00    -0.033 A 
ATOM     20  C   UNL     1      -2.438  -1.853  25.047  0.00  0.00    +0.059 C 
ATOM     21  C   UNL     1      -3.838  -1.619  24.493  0.00  0.00    +0.146 C 
ATOM     23  C   UNL     1      -1.037   1.232  23.350  0.00  0.00    +0.013 A 
ATOM     24  C   UNL     1      -0.143  -1.302  24.134  0.00  0.00    +0.050 A 
ATOM     25  C   UNL     1       0.285   0.850  23.120  0.00  0.00    +0.046 A 
ATOM     26  C   UNL     1       0.732  -0.411  23.512  0.00  0.00    +0.120 A 
BRANCH  26   5
ATOM      5  O   UNL     1       2.026  -0.773  23.292  0.00  0.00    -0.495 OA
ATOM     28  C   UNL     1       2.823   0.115  22.509  0.00  0.00    +0.277 C 
ENDBRANCH  26   5
ENDBRANCH  13  15
ENDBRANCH   8  13
BRANCH   9  14
ATOM     14  C   UNL     1      -6.309   3.397  25.328  0.00  0.00    +0.124 C 
BRANCH  14  18
ATOM      3  O   UNL     1      -6.648   1.497  26.816  0.00  0.00    -0.251 OA
ATOM     18  C   UNL     1      -6.705   1.997  25.702  0.00  0.00    +0.305 C 
BRANCH  18   2
ATOM      2  O   UNL     1      -7.150   1.336  24.602  0.00  0.00    -0.481 OA
ATOM     29  H   UNL     1      -8.128   1.349  24.539  0.00  0.00    +0.295 HD
ENDBRANCH  18   2
ENDBRANCH  14  18
ENDBRANCH   9  14
BRANCH  16  22
ATOM     22  C   UNL     1       0.018   3.410  24.844  0.00  0.00    +0.255 C 
BRANCH  22   4
ATOM      4  O   UNL     1       0.647   3.244  26.091  0.00  0.00    -0.374 OA
ATOM     27  C   UNL     1       0.242   2.040  26.740  0.00  0.00    +0.194 C 
ENDBRANCH  22   4
ENDBRANCH  16  22
TORSDOF 8
ENDMDL
MODEL 3
REMARK VINA RESULT:      -1.1      1.868      6.346
REMARK  Name = 51136660
REMARK  10 active torsions:
REMARK  status: ('A' for Active; 'I' for Inactive)
REMARK    1  A    between atoms: O_2  and  C_18
REMARK    2  A    between atoms: O_4  and  C_22
REMARK    3  A    between atoms: O_4  and  C_27
REMARK    4  A    between atoms: O_5  and  C_26
REMARK    5  A    between atoms: O_5  and  C_28
REMARK    6  A    between atoms: C_8  and  C_13
REMARK    7  A    between atoms: C_9  and  C_14
REMARK    8  A    between atoms: C_13  and  C_15
REMARK    9  A    between atoms: C_14  and  C_18
REMARK   10  A    between atoms: C_16  and  C_22
REMARK                            x       y       z     vdW  Elec       q    Type
REMARK                         _______ _______ _______ _____ _____    ______ ____
ROOT
ATOM      1  O   UNL     1      -5.764   4.197  24.961  0.00  0.00    -0.273 OA
ATOM      6  N   UNL     1      -4.949   2.119  25.604  0.00  0.00    -0.299 N 
ATOM      8  C   UNL     1      -3.471   0.151  25.260  0.00  0.00    +0.016 C 
ATOM      9  C   UNL     1      -4.708  -0.644  24.766  0.00  0.00    +0.006 C 
ATOM     10  C   UNL     1      -5.781   0.288  24.179  0.00  0.00    +0.023 C 
ATOM     11  C   UNL     1      -3.919   1.271  26.217  0.00  0.00    +0.112 C 
ATOM     12  C   UNL     1      -6.143   1.403  25.156  0.00  0.00    +0.108 C 
ATOM     16  C   UNL     1      -4.873   3.503  25.456  0.00  0.00    +0.241 C 
ENDROOT
BRANCH   8  13
ATOM     13  C   UNL     1      -2.610   0.728  24.130  0.00  0.00    +0.061 C 
BRANCH  13  15
ATOM      7  N   UNL     1      -1.346   1.955  25.763  0.00  0.00    -0.287 NA
ATOM     15  C   UNL     1      -1.303   1.235  24.690  0.00  0.00    +0.044 C 
ATOM     17  C   UNL     1      -0.042   0.895  23.983  0.00  0.00    -0.001 A 
ATOM     19  C   UNL     1       1.081   1.677  24.285  0.00  0.00    -0.033 A 
ATOM     20  C   UNL     1       0.936   2.797  25.271  0.00  0.00    +0.059 C 
ATOM     21  C   UNL     1      -0.072   2.397  26.342  0.00  0.00    +0.146 C 
ATOM     23  C   UNL     1       0.045  -0.139  23.049  0.00  0.00    +0.013 A 
ATOM     24  C   UNL     1       2.288   1.434  23.623  0.00  0.00    +0.050 A 
ATOM     25  C   UNL     1       1.259  -0.384  22.407  0.00  0.00    +0.046 A 
ATOM     26  C   UNL     1       2.376   0.401  22.690  0.00  0.00    +0.120 A 
BRANCH  26   5
ATOM      5  O   UNL     1       3.555   0.161  22.052  0.00  0.00    -0.495 OA
ATOM     28  C   UNL     1       4.749   0.323  22.815  0.00  0.00    +0.277 C 
ENDBRANCH  26   5
ENDBRANCH  13  15
ENDBRANCH   8  13
BRANCH   9  14
ATOM     14  C   UNL     1      -4.354  -1.751  23.774  0.00  0.00    +0.124 C 
BRANCH  14  18
ATOM      3  O   UNL     1      -2.107  -2.695  23.804  0.00  0.00    -0.251 OA
ATOM     18  C   UNL     1      -3.230  -2.611  24.280  0.00  0.00    +0.305 C 
BRANCH  18   2
ATOM      2  O   UNL     1      -3.640  -3.306  25.373  0.00  0.00    -0.481 OA
ATOM     29  H   UNL     1      -3.338  -4.238  25.348  0.00  0.00    +0.295 HD
ENDBRANCH  18   2
ENDBRANCH  14  18
ENDBRANCH   9  14
BRANCH  16  22
ATOM     22  C   UNL     1      -3.607   4.166  25.940  0.00  0.00    +0.255 C 
BRANCH  22   4
ATOM      4  O   UNL     1      -2.835   4.441  24.796  0.00  0.00    -0.374 OA
ATOM     27  C   UNL     1      -1.747   5.318  25.082  0.00  0.00    +0.194 C 
ENDBRANCH  22   4
ENDBRANCH  16  22
TORSDOF 8
ENDMDL
MODEL 4
REMARK VINA RESULT:      -0.9      1.137      4.605
REMARK  Name = 51136660
REMARK  10 active torsions:
REMARK  status: ('A' for Active; 'I' for Inactive)
REMARK    1  A    between atoms: O_2  and  C_18
REMARK    2  A    between atoms: O_4  and  C_22
REMARK    3  A    between atoms: O_4  and  C_27
REMARK    4  A    between atoms: O_5  and  C_26
REMARK    5  A    between atoms: O_5  and  C_28
REMARK    6  A    between atoms: C_8  and  C_13
REMARK    7  A    between atoms: C_9  and  C_14
REMARK    8  A    between atoms: C_13  and  C_15
REMARK    9  A    between atoms: C_14  and  C_18
REMARK   10  A    between atoms: C_16  and  C_22
REMARK                            x       y       z     vdW  Elec       q    Type
REMARK                         _______ _______ _______ _____ _____    ______ ____
ROOT
ATOM      1  O   UNL     1       3.544  -1.221  23.618  0.00  0.00    -0.273 OA
ATOM      6  N   UNL     1       1.319  -0.700  23.198  0.00  0.00    -0.299 N 
ATOM      8  C   UNL     1      -0.812   0.426  23.801  0.00  0.00    +0.016 C 
ATOM      9  C   UNL     1      -1.365  -0.948  24.257  0.00  0.00    +0.006 C 
ATOM     10  C   UNL     1      -0.236  -1.898  24.688  0.00  0.00    +0.023 C 
ATOM     11  C   UNL     1       0.276   0.222  22.731  0.00  0.00    +0.112 C 
ATOM     12  C   UNL     1       0.833  -2.018  23.605  0.00  0.00    +0.108 C 
ATOM     16  C   UNL     1       2.684  -0.419  23.245  0.00  0.00    +0.241 C 
ENDROOT
BRANCH   8  13
ATOM     13  C   UNL     1      -0.276   1.293  24.947  0.00  0.00    +0.061 C 
BRANCH  13  15
ATOM      7  N   UNL     1       0.113   3.612  24.457  0.00  0.00    -0.287 NA
ATOM     15  C   UNL     1      -0.758   2.714  24.784  0.00  0.00    +0.044 C 
ATOM     17  C   UNL     1      -2.194   3.013  25.012  0.00  0.00    -0.001 A 
ATOM     19  C   UNL     1      -2.532   4.354  25.234  0.00  0.00    -0.033 A 
ATOM     20  C   UNL     1      -1.439   5.381  25.243  0.00  0.00    +0.059 C 
ATOM     21  C   UNL     1      -0.366   4.982  24.239  0.00  0.00    +0.146 C 
ATOM     23  C   UNL     1      -3.179   2.023  25.023  0.00  0.00    +0.013 A 
ATOM     24  C   UNL     1      -3.862   4.696  25.496  0.00  0.00    +0.050 A 
ATOM     25  C   UNL     1      -4.506   2.377  25.270  0.00  0.00    +0.046 A 
ATOM     26  C   UNL     1      -4.847   3.708  25.507  0.00  0.00    +0.120 A 
BRANCH  26   5
ATOM      5  O   UNL     1      -6.143   4.044  25.755  0.00  0.00    -0.495 OA
ATOM     28  C   UNL     1      -6.546   5.369  25.412  0.00  0.00    +0.277 C 
ENDBRANCH  26   5
ENDBRANCH  13  15
ENDBRANCH   8  13
BRANCH   9  14
ATOM     14  C   UNL     1      -2.424  -0.836  25.354  0.00  0.00    +0.124 C 
BRANCH  14  18
ATOM      3  O   UNL     1      -4.660  -1.109  24.424  0.00  0.00    -0.251 OA
ATOM     18  C   UNL     1      -3.681  -1.574  24.991  0.00  0.00    +0.305 C 
BRANCH  18   2
ATOM      2  O   UNL     1      -3.584  -2.869  25.387  0.00  0.00    -0.481 OA
ATOM     29  H   UNL     1      -2.713  -3.063  25.793  0.00  0.00    +0.295 HD
ENDBRANCH  18   2
ENDBRANCH  14  18
ENDBRANCH   9  14
BRANCH  16  22
ATOM     22  C   UNL     1       3.105   0.963  22.812  0.00  0.00    +0.255 C 
BRANCH  22   4
ATOM      4  O   UNL     1       4.472   0.886  22.488  0.00  0.00    -0.374 OA
ATOM     27  C   UNL     1       5.282   0.641  23.636  0.00  0.00    +0.194 C 
ENDBRANCH  22   4
ENDBRANCH  16  22
TORSDOF 8
ENDMDL
MODEL 5
REMARK VINA RESULT:       0.0      2.050      6.155
REMARK  Name = 51136660
REMARK  10 active torsions:
REMARK  status: ('A' for Active; 'I' for Inactive)
REMARK    1  A    between atoms: O_2  and  C_18
REMARK    2  A    between atoms: O_4  and  C_22
REMARK    3  A    between atoms: O_4  and  C_27
REMARK    4  A    between atoms: O_5  and  C_26
REMARK    5  A    between atoms: O_5  and  C_28
REMARK    6  A    between atoms: C_8  and  C_13
REMARK    7  A    between atoms: C_9  and  C_14
REMARK    8  A    between atoms: C_13  and  C_15
REMARK    9  A    between atoms: C_14  and  C_18
REMARK   10  A    between atoms: C_16  and  C_22
REMARK                            x       y       z     vdW  Elec       q    Type
REMARK                         _______ _______ _______ _____ _____    ______ ____
ROOT
ATOM      1  O   UNL     1      -6.527   1.244  26.415  0.00  0.00    -0.273 OA
ATOM      6  N   UNL     1      -4.888   2.144  25.036  0.00  0.00    -0.299 N 
ATOM      8  C   UNL     1      -2.528   2.764  24.566  0.00  0.00    +0.016 C 
ATOM      9  C   UNL     1      -2.899   4.242  24.854  0.00  0.00    +0.006 C 
ATOM     10  C   UNL     1      -4.101   4.348  25.807  0.00  0.00    +0.023 C 
ATOM     11  C   UNL     1      -3.775   1.996  24.090  0.00  0.00    +0.112 C 
ATOM     12  C   UNL     1      -5.284   3.526  25.304  0.00  0.00    +0.108 C 
ATOM     16  C   UNL     1      -5.577   1.094  25.643  0.00  0.00    +0.241 C 
ENDROOT
BRANCH   8  13
ATOM     13  C   UNL     1      -1.880   2.043  25.755  0.00  0.00    +0.061 C 
BRANCH  13  15
ATOM      7  N   UNL     1      -2.156  -0.344  25.742  0.00  0.00    -0.287 NA
ATOM     15  C   UNL     1      -1.445   0.658  25.338  0.00  0.00    +0.044 C 
ATOM     17  C   UNL     1      -0.229   0.512  24.500  0.00  0.00    -0.001 A 
ATOM     19  C   UNL     1       0.359  -0.759  24.457  0.00  0.00    -0.033 A 
ATOM     20  C   UNL     1      -0.258  -1.867  25.259  0.00  0.00    +0.059 C 
ATOM     21  C   UNL     1      -1.770  -1.684  25.288  0.00  0.00    +0.146 C 
ATOM     23  C   UNL     1       0.330   1.575  23.789  0.00  0.00    +0.013 A 
ATOM     24  C   UNL     1       1.529  -0.953  23.717  0.00  0.00    +0.050 A 
ATOM     25  C   UNL     1       1.490   1.367  23.041  0.00  0.00    +0.046 A 
ATOM     26  C   UNL     1       2.089   0.109  23.007  0.00  0.00    +0.120 A 
BRANCH  26   5
ATOM      5  O   UNL     1       3.226  -0.084  22.282  0.00  0.00    -0.495 OA
ATOM     28  C   UNL     1       4.398   0.600  22.720  0.00  0.00    +0.277 C 
ENDBRANCH  26   5
ENDBRANCH  13  15
ENDBRANCH   8  13
BRANCH   9  14
ATOM     14  C   UNL     1      -1.722   5.066  25.375  0.00  0.00    +0.124 C 
BRANCH  14  18
ATOM      3  O   UNL     1      -0.140   4.959  23.524  0.00  0.00    -0.251 OA
ATOM     18  C   UNL     1      -0.439   4.703  24.681  0.00  0.00    +0.305 C 
BRANCH  18   2
ATOM      2  O   UNL     1       0.372   4.032  25.539  0.00  0.00    -0.481 OA
ATOM     29  H   UNL     1       1.312   4.283  25.424  0.00  0.00    +0.295 HD
ENDBRANCH  18   2
ENDBRANCH  14  18
ENDBRANCH   9  14
BRANCH  16  22
ATOM     22  C   UNL     1      -5.106  -0.301  25.318  0.00  0.00    +0.255 C 
BRANCH  22   4
ATOM      4  O   UNL     1      -4.885  -0.339  23.929  0.00  0.00    -0.374 OA
ATOM     27  C   UNL     1      -4.431  -1.619  23.493  0.00  0.00    +0.194 C 
ENDBRANCH  22   4
ENDBRANCH  16  22
TORSDOF 8
ENDMDL
MODEL 6
REMARK VINA RESULT:       0.3      1.590      5.918
REMARK  Name = 51136660
REMARK  10 active torsions:
REMARK  status: ('A' for Active; 'I' for Inactive)
REMARK    1  A    between atoms: O_2  and  C_18
REMARK    2  A    between atoms: O_4  and  C_22
REMARK    3  A    between atoms: O_4  and  C_27
REMARK    4  A    between atoms: O_5  and  C_26
REMARK    5  A    between atoms: O_5  and  C_28
REMARK    6  A    between atoms: C_8  and  C_13
REMARK    7  A    between atoms: C_9  and  C_14
REMARK    8  A    between atoms: C_13  and  C_15
REMARK    9  A    between atoms: C_14  and  C_18
REMARK   10  A    between atoms: C_16  and  C_22
REMARK                            x       y       z     vdW  Elec       q    Type
REMARK                         _______ _______ _______ _____ _____    ______ ____
ROOT
ATOM      1  O   UNL     1      -3.915  -3.298  24.790  0.00  0.00    -0.273 OA
ATOM      6  N   UNL     1      -4.020  -1.116  23.997  0.00  0.00    -0.299 N 
ATOM      8  C   UNL     1      -3.548   1.313  24.219  0.00  0.00    +0.016 C 
ATOM      9  C   UNL     1      -5.036   1.529  24.600  0.00  0.00    +0.006 C 
ATOM     10  C   UNL     1      -5.647   0.266  25.229  0.00  0.00    +0.023 C 
ATOM     11  C   UNL     1      -3.410   0.051  23.349  0.00  0.00    +0.112 C 
ATOM     12  C   UNL     1      -5.433  -0.957  24.341  0.00  0.00    +0.108 C 
ATOM     16  C   UNL     1      -3.373  -2.322  24.267  0.00  0.00    +0.241 C 
ENDROOT
BRANCH   8  13
ATOM     13  C   UNL     1      -2.602   1.235  25.424  0.00  0.00    +0.061 C 
BRANCH  13  15
ATOM      7  N   UNL     1      -1.436   3.327  25.624  0.00  0.00    -0.287 NA
ATOM     15  C   UNL     1      -1.395   2.111  25.185  0.00  0.00    +0.044 C 
ATOM     17  C   UNL     1      -0.233   1.543  24.457  0.00  0.00    -0.001 A 
ATOM     19  C   UNL     1       0.682   2.458  23.919  0.00  0.00    -0.033 A 
ATOM     20  C   UNL     1       0.425   3.925  24.096  0.00  0.00    +0.059 C 
ATOM     21  C   UNL     1      -0.241   4.158  25.446  0.00  0.00    +0.146 C 
ATOM     23  C   UNL     1      -0.044   0.170  24.290  0.00  0.00    +0.013 A 
ATOM     24  C   UNL     1       1.777   1.988  23.187  0.00  0.00    +0.050 A 
ATOM     25  C   UNL     1       1.061  -0.289  23.572  0.00  0.00    +0.046 A 
ATOM     26  C   UNL     1       1.967   0.617  23.020  0.00  0.00    +0.120 A 
BRANCH  26   5
ATOM      5  O   UNL     1       3.038   0.161  22.313  0.00  0.00    -0.495 OA
ATOM     28  C   UNL     1       4.332   0.471  22.826  0.00  0.00    +0.277 C 
ENDBRANCH  26   5
ENDBRANCH  13  15
ENDBRANCH   8  13
BRANCH   9  14
ATOM     14  C   UNL     1      -5.255   2.742  25.504  0.00  0.00    +0.124 C 
BRANCH  14  18
ATOM      3  O   UNL     1      -4.275   4.296  23.903  0.00  0.00    -0.251 OA
ATOM     18  C   UNL     1      -4.442   3.923  25.055  0.00  0.00    +0.305 C 
BRANCH  18   2
ATOM      2  O   UNL     1      -3.900   4.544  26.134  0.00  0.00    -0.481 OA
ATOM     29  H   UNL     1      -3.491   5.402  25.895  0.00  0.00    +0.295 HD
ENDBRANCH  18   2
ENDBRANCH  14  18
ENDBRANCH   9  14
BRANCH  16  22
ATOM     22  C   UNL     1      -1.915  -2.406  23.886  0.00  0.00    +0.255 C 
BRANCH  22   4
ATOM      4  O   UNL     1      -1.222  -2.821  25.037  0.00  0.00    -0.374 OA
ATOM     27  C   UNL     1      -1.102  -1.775  25.999  0.00  0.00    +0.194 C 
ENDBRANCH  22   4
ENDBRANCH  16  22
TORSDOF 8
ENDMDL
MODEL 7
REMARK VINA RESULT:       0.6      1.682      5.475
REMARK  Name = 51136660
REMARK  10 active torsions:
REMARK  status: ('A' for Active; 'I' for Inactive)
REMARK    1  A    between atoms: O_2  and  C_18
REMARK    2  A    between atoms: O_4  and  C_22
REMARK    3  A    between atoms: O_4  and  C_27
REMARK    4  A    between atoms: O_5  and  C_26
REMARK    5  A    between atoms: O_5  and  C_28
REMARK    6  A    between atoms: C_8  and  C_13
REMARK    7  A    between atoms: C_9  and  C_14
REMARK    8  A    between atoms: C_13  and  C_15
REMARK    9  A    between atoms: C_14  and  C_18
REMARK   10  A    between atoms: C_16  and  C_22
REMARK                            x       y       z     vdW  Elec       q    Type
REMARK                         _______ _______ _______ _____ _____    ______ ____
ROOT
ATOM      1  O   UNL     1      -3.570   5.146  26.630  0.00  0.00    -0.273 OA
ATOM      6  N   UNL     1      -2.617   3.775  25.015  0.00  0.00    -0.299 N 
ATOM      8  C   UNL     1      -1.298   1.776  24.348  0.00  0.00    +0.016 C 
ATOM      9  C   UNL     1      -0.096   2.713  24.062  0.00  0.00    +0.006 C 
ATOM     10  C   UNL     1      -0.164   3.996  24.906  0.00  0.00    +0.023 C 
ATOM     11  C   UNL     1      -2.616   2.558  24.194  0.00  0.00    +0.112 C 
ATOM     12  C   UNL     1      -1.512   4.695  24.746  0.00  0.00    +0.108 C 
ATOM     16  C   UNL     1      -3.578   4.104  25.971  0.00  0.00    +0.241 C 
ENDROOT
BRANCH   8  13
ATOM     13  C   UNL     1      -1.242   1.093  25.720  0.00  0.00    +0.061 C 
BRANCH  13  15
ATOM      7  N   UNL     1      -0.142  -1.037  25.882  0.00  0.00    -0.287 NA
ATOM     15  C   UNL     1      -1.220  -0.407  25.545  0.00  0.00    +0.044 C 
ATOM     17  C   UNL     1      -2.421  -1.079  24.991  0.00  0.00    -0.001 A 
ATOM     19  C   UNL     1      -2.243  -2.374  24.485  0.00  0.00    -0.033 A 
ATOM     20  C   UNL     1      -0.871  -2.979  24.520  0.00  0.00    +0.059 C 
ATOM     21  C   UNL     1      -0.142  -2.499  25.769  0.00  0.00    +0.146 C 
ATOM     23  C   UNL     1      -3.677  -0.470  24.952  0.00  0.00    +0.013 A 
ATOM     24  C   UNL     1      -3.327  -3.046  23.912  0.00  0.00    +0.050 A 
ATOM     25  C   UNL     1      -4.756  -1.157  24.392  0.00  0.00    +0.046 A 
ATOM     26  C   UNL     1      -4.582  -2.439  23.872  0.00  0.00    +0.120 A 
BRANCH  26   5
ATOM      5  O   UNL     1      -5.638  -3.098  23.321  0.00  0.00    -0.495 OA
ATOM     28  C   UNL     1      -5.355  -3.985  22.240  0.00  0.00    +0.277 C 
ENDBRANCH  26   5
ENDBRANCH  13  15
ENDBRANCH   8  13
BRANCH   9  14
ATOM     14  C   UNL     1       1.257   2.023  24.237  0.00  0.00    +0.124 C 
BRANCH  14  18
ATOM      3  O   UNL     1       0.606   0.148  22.823  0.00  0.00    -0.251 OA
ATOM     18  C   UNL     1       1.456   0.927  23.229  0.00  0.00    +0.305 C 
BRANCH  18   2
ATOM      2  O   UNL     1       2.749   0.915  22.813  0.00  0.00    -0.481 OA
ATOM     29  H   UNL     1       3.329   0.429  23.436  0.00  0.00    +0.295 HD
ENDBRANCH  18   2
ENDBRANCH  14  18
ENDBRANCH   9  14
BRANCH  16  22
ATOM     22  C   UNL     1      -4.683   3.102  26.192  0.00  0.00    +0.255 C 
BRANCH  22   4
ATOM      4  O   UNL     1      -5.618   3.299  25.160  0.00  0.00    -0.374 OA
ATOM     27  C   UNL     1      -6.326   2.102  24.841  0.00  0.00    +0.194 C 
ENDBRANCH  22   4
ENDBRANCH  16  22
TORSDOF 8
ENDMDL
MODEL 8
REMARK VINA RESULT:       1.3      1.932      7.314
REMARK  Name = 51136660
REMARK  10 active torsions:
REMARK  status: ('A' for Active; 'I' for Inactive)
REMARK    1  A    between atoms: O_2  and  C_18
REMARK    2  A    between atoms: O_4  and  C_22
REMARK    3  A    between atoms: O_4  and  C_27
REMARK    4  A    between atoms: O_5  and  C_26
REMARK    5  A    between atoms: O_5  and  C_28
REMARK    6  A    between atoms: C_8  and  C_13
REMARK    7  A    between atoms: C_9  and  C_14
REMARK    8  A    between atoms: C_13  and  C_15
REMARK    9  A    between atoms: C_14  and  C_18
REMARK   10  A    between atoms: C_16  and  C_22
REMARK                            x       y       z     vdW  Elec       q    Type
REMARK                         _______ _______ _______ _____ _____    ______ ____
ROOT
ATOM      1  O   UNL     1       0.488   4.393  23.621  0.00  0.00    -0.273 OA
ATOM      6  N   UNL     1      -1.160   3.558  25.030  0.00  0.00    -0.299 N 
ATOM      8  C   UNL     1      -3.276   2.313  25.419  0.00  0.00    +0.016 C 
ATOM      9  C   UNL     1      -3.995   3.673  25.613  0.00  0.00    +0.006 C 
ATOM     10  C   UNL     1      -3.279   4.805  24.858  0.00  0.00    +0.023 C 
ATOM     11  C   UNL     1      -1.784   2.457  25.774  0.00  0.00    +0.112 C 
ATOM     12  C   UNL     1      -1.797   4.861  25.217  0.00  0.00    +0.108 C 
ATOM     16  C   UNL     1      -0.033   3.446  24.216  0.00  0.00    +0.241 C 
ENDROOT
BRANCH   8  13
ATOM     13  C   UNL     1      -3.434   1.720  24.014  0.00  0.00    +0.061 C 
BRANCH  13  15
ATOM      7  N   UNL     1      -4.696  -0.321  23.908  0.00  0.00    -0.287 NA
ATOM     15  C   UNL     1      -3.536   0.216  24.101  0.00  0.00    +0.044 C 
ATOM     17  C   UNL     1      -2.313  -0.567  24.410  0.00  0.00    -0.001 A 
ATOM     19  C   UNL     1      -2.502  -1.880  24.860  0.00  0.00    -0.033 A 
ATOM     20  C   UNL     1      -3.902  -2.395  25.015  0.00  0.00    +0.059 C 
ATOM     21  C   UNL     1      -4.785  -1.785  23.933  0.00  0.00    +0.146 C 
ATOM     23  C   UNL     1      -1.026  -0.041  24.278  0.00  0.00    +0.013 A 
ATOM     24  C   UNL     1      -1.392  -2.657  25.206  0.00  0.00    +0.050 A 
ATOM     25  C   UNL     1       0.075  -0.831  24.611  0.00  0.00    +0.046 A 
ATOM     26  C   UNL     1      -0.107  -2.133  25.076  0.00  0.00    +0.120 A 
BRANCH  26   5
ATOM      5  O   UNL     1       0.973  -2.894  25.407  0.00  0.00    -0.495 OA
ATOM     28  C   UNL     1       2.235  -2.493  24.876  0.00  0.00    +0.277 C 
ENDBRANCH  26   5
ENDBRANCH  13  15
ENDBRANCH   8  13
BRANCH   9  14
ATOM     14  C   UNL     1      -5.477   3.627  25.239  0.00  0.00    +0.124 C 
BRANCH  14  18
ATOM      3  O   UNL     1      -6.233   2.208  27.070  0.00  0.00    -0.251 OA
ATOM     18  C   UNL     1      -6.175   2.458  25.875  0.00  0.00    +0.305 C 
BRANCH  18   2
ATOM      2  O   UNL     1      -6.753   1.691  24.915  0.00  0.00    -0.481 OA
ATOM     29  H   UNL     1      -7.707   1.547  25.088  0.00  0.00    +0.295 HD
ENDBRANCH  18   2
ENDBRANCH  14  18
ENDBRANCH   9  14
BRANCH  16  22
ATOM     22  C   UNL     1       0.562   2.068  24.072  0.00  0.00    +0.255 C 
BRANCH  22   4
ATOM      4  O   UNL     1       1.883   2.245  23.621  0.00  0.00    -0.374 OA
ATOM     27  C   UNL     1       2.446   1.034  23.120  0.00  0.00    +0.194 C 
ENDBRANCH  22   4
ENDBRANCH  16  22
TORSDOF 8
ENDMDL
