MODEL 1
REMARK VINA RESULT:      -4.9      0.000      0.000
REMARK  Name = 75536524
REMARK  13 active torsions:
REMARK  status: ('A' for Active; 'I' for Inactive)
REMARK    1  A    between atoms: O_2  and  C_9
REMARK    2  A    between atoms: O_4  and  C_26
REMARK    3  A    between atoms: N_6  and  C_8
REMARK    4  A    between atoms: N_6  and  C_14
REMARK    5  A    between atoms: N_7  and  C_12
REMARK    6  A    between atoms: C_10  and  C_12
REMARK    7  A    between atoms: C_13  and  C_15
REMARK    8  A    between atoms: C_13  and  C_17
REMARK    9  A    between atoms: C_13  and  C_18
REMARK   10  A    between atoms: C_13  and  C_19
REMARK   11  A    between atoms: C_14  and  C_20
REMARK   12  A    between atoms: C_15  and  C_16
REMARK   13  A    between atoms: C_25  and  C_26
REMARK                            x       y       z     vdW  Elec       q    Type
REMARK                         _______ _______ _______ _____ _____    ______ ____
ROOT
ATOM      1  O   UNL     1       0.161   3.623  23.611  0.00  0.00    -0.371 OA
ATOM      8  C   UNL     1      -1.321   3.899  25.447  0.00  0.00    +0.111 C 
ATOM      9  C   UNL     1      -0.827   2.465  25.421  0.00  0.00    +0.164 C 
ATOM     10  C   UNL     1       0.439   2.605  24.587  0.00  0.00    +0.165 C 
ATOM     11  C   UNL     1      -1.007   4.351  24.029  0.00  0.00    +0.181 C 
ENDROOT
BRANCH   9   2
ATOM      2  O   UNL     1      -0.555   1.958  26.713  0.00  0.00    -0.388 OA
ATOM     29  H   UNL     1      -1.311   1.415  26.994  0.00  0.00    +0.210 HD
ENDBRANCH   9   2
BRANCH   8   6
ATOM      6  N   UNL     1      -2.731   4.025  25.781  0.00  0.00    -0.305 NA
ATOM     27  H   UNL     1      -2.928   4.994  26.030  0.00  0.00    +0.123 HD
BRANCH   6  14
ATOM     14  C   UNL     1      -3.574   3.647  24.652  0.00  0.00    +0.116 C 
BRANCH  14  20
ATOM     20  C   UNL     1      -3.703   2.152  24.525  0.00  0.00    -0.034 A 
ATOM     21  C   UNL     1      -4.448   1.436  25.461  0.00  0.00    +0.006 A 
ATOM     22  C   UNL     1      -3.075   1.485  23.473  0.00  0.00    +0.006 A 
ATOM     23  C   UNL     1      -4.567   0.050  25.344  0.00  0.00    +0.015 A 
ATOM     24  C   UNL     1      -3.194   0.100  23.356  0.00  0.00    +0.015 A 
ATOM     25  C   UNL     1      -3.940  -0.617  24.292  0.00  0.00    +0.059 A 
BRANCH  25  26
ATOM      5  O   UNL     1      -4.627  -2.655  23.243  0.00  0.00    -0.245 OA
ATOM     26  C   UNL     1      -4.065  -2.060  24.169  0.00  0.00    +0.337 C 
BRANCH  26   4
ATOM      4  O   UNL     1      -3.483  -2.724  25.206  0.00  0.00    -0.477 OA
ATOM     30  H   UNL     1      -2.653  -3.172  24.934  0.00  0.00    +0.295 HD
ENDBRANCH  26   4
ENDBRANCH  25  26
ENDBRANCH  14  20
ENDBRANCH   6  14
ENDBRANCH   8   6
BRANCH  10  12
ATOM     12  C   UNL     1       0.842   1.319  23.888  0.00  0.00    +0.138 C 
BRANCH  12   7
ATOM      3  O   UNL     1       2.177  -0.197  21.811  0.00  0.00    -0.276 OA
ATOM      7  N   UNL     1       2.256   1.305  23.583  0.00  0.00    -0.313 N 
ATOM     16  C   UNL     1       2.805   0.544  22.565  0.00  0.00    +0.214 C 
ATOM     28  H   UNL     1       2.862   1.894  24.145  0.00  0.00    +0.149 HD
BRANCH  16  15
ATOM     15  C   UNL     1       4.313   0.697  22.455  0.00  0.00    +0.102 C 
BRANCH  15  13
ATOM     13  C   UNL     1       5.125  -0.161  23.456  0.00  0.00    -0.029 C 
ATOM     17  C   UNL     1       5.422   0.615  24.750  0.00  0.00    +0.011 C 
ATOM     18  C   UNL     1       6.465  -0.530  22.789  0.00  0.00    +0.011 C 
ATOM     19  C   UNL     1       4.380  -1.460  23.803  0.00  0.00    +0.011 C 
ENDBRANCH  15  13
ENDBRANCH  16  15
ENDBRANCH  12   7
ENDBRANCH  10  12
TORSDOF 10
ENDMDL
MODEL 2
REMARK VINA RESULT:      -4.9      2.645      6.184
REMARK  Name = 75536524
REMARK  13 active torsions:
REMARK  status: ('A' for Active; 'I' for Inactive)
REMARK    1  A    between atoms: O_2  and  C_9
REMARK    2  A    between atoms: O_4  and  C_26
REMARK    3  A    between atoms: N_6  and  C_8
REMARK    4  A    between atoms: N_6  and  C_14
REMARK    5  A    between atoms: N_7  and  C_12
REMARK    6  A    between atoms: C_10  and  C_12
REMARK    7  A    between atoms: C_13  and  C_15
REMARK    8  A    between atoms: C_13  and  C_17
REMARK    9  A    between atoms: C_13  and  C_18
REMARK   10  A    between atoms: C_13  and  C_19
REMARK   11  A    between atoms: C_14  and  C_20
REMARK   12  A    between atoms: C_15  and  C_16
REMARK   13  A    between atoms: C_25  and  C_26
REMARK                            x       y       z     vdW  Elec       q    Type
REMARK                         _______ _______ _______ _____ _____    ______ ____
ROOT
ATOM      1  O   UNL     1      -5.162   3.510  26.454  0.00  0.00    -0.371 OA
ATOM      8  C   UNL     1      -3.207   4.361  25.407  0.00  0.00    +0.111 C 
ATOM      9  C   UNL     1      -3.776   3.243  24.556  0.00  0.00    +0.164 C 
ATOM     10  C   UNL     1      -5.215   3.200  25.051  0.00  0.00    +0.165 C 
ATOM     11  C   UNL     1      -3.880   4.095  26.745  0.00  0.00    +0.181 C 
ENDROOT
BRANCH   9   2
ATOM      2  O   UNL     1      -3.703   3.520  23.170  0.00  0.00    -0.388 OA
ATOM     29  H   UNL     1      -4.334   2.942  22.709  0.00  0.00    +0.210 HD
ENDBRANCH   9   2
BRANCH   8   6
ATOM      6  N   UNL     1      -1.755   4.349  25.493  0.00  0.00    -0.305 NA
ATOM     27  H   UNL     1      -1.447   5.158  26.030  0.00  0.00    +0.123 HD
BRANCH   6  14
ATOM     14  C   UNL     1      -1.278   3.137  26.151  0.00  0.00    +0.116 C 
BRANCH  14  20
ATOM     20  C   UNL     1      -0.478   2.270  25.215  0.00  0.00    -0.034 A 
ATOM     21  C   UNL     1       0.449   2.851  24.350  0.00  0.00    +0.006 A 
ATOM     22  C   UNL     1      -0.664   0.888  25.213  0.00  0.00    +0.006 A 
ATOM     23  C   UNL     1       1.190   2.048  23.482  0.00  0.00    +0.015 A 
ATOM     24  C   UNL     1       0.077   0.086  24.346  0.00  0.00    +0.015 A 
ATOM     25  C   UNL     1       1.005   0.666  23.480  0.00  0.00    +0.059 A 
BRANCH  25  26
ATOM      5  O   UNL     1       1.413  -0.544  21.457  0.00  0.00    -0.245 OA
ATOM     26  C   UNL     1       1.778  -0.171  22.577  0.00  0.00    +0.337 C 
BRANCH  26   4
ATOM      4  O   UNL     1       2.987  -0.520  23.097  0.00  0.00    -0.477 OA
ATOM     30  H   UNL     1       3.425   0.237  23.543  0.00  0.00    +0.295 HD
ENDBRANCH  26   4
ENDBRANCH  25  26
ENDBRANCH  14  20
ENDBRANCH   6  14
ENDBRANCH   8   6
BRANCH  10  12
ATOM     12  C   UNL     1      -5.880   1.850  24.848  0.00  0.00    +0.138 C 
BRANCH  12   7
ATOM      3  O   UNL     1      -3.741   0.387  23.553  0.00  0.00    -0.276 OA
ATOM      7  N   UNL     1      -5.084   0.780  25.408  0.00  0.00    -0.313 N 
ATOM     16  C   UNL     1      -4.077   0.137  24.708  0.00  0.00    +0.214 C 
ATOM     28  H   UNL     1      -5.278   0.504  26.366  0.00  0.00    +0.149 HD
BRANCH  16  15
ATOM     15  C   UNL     1      -3.397  -0.957  25.515  0.00  0.00    +0.102 C 
BRANCH  15  13
ATOM     13  C   UNL     1      -3.218  -2.299  24.763  0.00  0.00    -0.029 C 
ATOM     17  C   UNL     1      -4.317  -2.504  23.707  0.00  0.00    +0.011 C 
ATOM     18  C   UNL     1      -3.314  -3.439  25.795  0.00  0.00    +0.011 C 
ATOM     19  C   UNL     1      -1.841  -2.373  24.084  0.00  0.00    +0.011 C 
ENDBRANCH  15  13
ENDBRANCH  16  15
ENDBRANCH  12   7
ENDBRANCH  10  12
TORSDOF 10
ENDMDL
MODEL 3
REMARK VINA RESULT:      -4.3      3.164      7.472
REMARK  Name = 75536524
REMARK  13 active torsions:
REMARK  status: ('A' for Active; 'I' for Inactive)
REMARK    1  A    between atoms: O_2  and  C_9
REMARK    2  A    between atoms: O_4  and  C_26
REMARK    3  A    between atoms: N_6  and  C_8
REMARK    4  A    between atoms: N_6  and  C_14
REMARK    5  A    between atoms: N_7  and  C_12
REMARK    6  A    between atoms: C_10  and  C_12
REMARK    7  A    between atoms: C_13  and  C_15
REMARK    8  A    between atoms: C_13  and  C_17
REMARK    9  A    between atoms: C_13  and  C_18
REMARK   10  A    between atoms: C_13  and  C_19
REMARK   11  A    between atoms: C_14  and  C_20
REMARK   12  A    between atoms: C_15  and  C_16
REMARK   13  A    between atoms: C_25  and  C_26
REMARK                            x       y       z     vdW  Elec       q    Type
REMARK                         _______ _______ _______ _____ _____    ______ ____
ROOT
ATOM      1  O   UNL     1      -2.719  -2.877  23.666  0.00  0.00    -0.371 OA
ATOM      8  C   UNL     1      -1.102  -2.187  25.264  0.00  0.00    +0.111 C 
ATOM      9  C   UNL     1      -2.373  -1.383  25.467  0.00  0.00    +0.164 C 
ATOM     10  C   UNL     1      -3.398  -2.276  24.782  0.00  0.00    +0.165 C 
ATOM     11  C   UNL     1      -1.302  -2.715  23.852  0.00  0.00    +0.181 C 
ENDROOT
BRANCH   9   2
ATOM      2  O   UNL     1      -2.678  -1.180  26.833  0.00  0.00    -0.388 OA
ATOM     29  H   UNL     1      -3.199  -0.363  26.912  0.00  0.00    +0.210 HD
ENDBRANCH   9   2
BRANCH   8   6
ATOM      6  N   UNL     1       0.114  -1.403  25.408  0.00  0.00    -0.305 NA
ATOM     27  H   UNL     1       0.911  -2.035  25.478  0.00  0.00    +0.123 HD
BRANCH   6  14
ATOM     14  C   UNL     1       0.310  -0.523  24.261  0.00  0.00    +0.116 C 
BRANCH  14  20
ATOM     20  C   UNL     1      -0.177   0.875  24.539  0.00  0.00    -0.034 A 
ATOM     21  C   UNL     1      -0.475   1.732  23.479  0.00  0.00    +0.006 A 
ATOM     22  C   UNL     1      -0.329   1.313  25.855  0.00  0.00    +0.006 A 
ATOM     23  C   UNL     1      -0.925   3.027  23.736  0.00  0.00    +0.015 A 
ATOM     24  C   UNL     1      -0.780   2.607  26.110  0.00  0.00    +0.015 A 
ATOM     25  C   UNL     1      -1.078   3.465  25.051  0.00  0.00    +0.059 A 
BRANCH  25  26
ATOM      5  O   UNL     1      -1.037   5.852  24.882  0.00  0.00    -0.245 OA
ATOM     26  C   UNL     1      -1.549   4.814  25.319  0.00  0.00    +0.337 C 
BRANCH  26   4
ATOM      4  O   UNL     1      -2.645   4.833  26.124  0.00  0.00    -0.477 OA
ATOM     30  H   UNL     1      -3.479   4.854  25.607  0.00  0.00    +0.295 HD
ENDBRANCH  26   4
ENDBRANCH  25  26
ENDBRANCH  14  20
ENDBRANCH   6  14
ENDBRANCH   8   6
BRANCH  10  12
ATOM     12  C   UNL     1      -4.620  -1.520  24.292  0.00  0.00    +0.138 C 
BRANCH  12   7
ATOM      3  O   UNL     1      -3.539   0.922  23.169  0.00  0.00    -0.276 OA
ATOM      7  N   UNL     1      -4.682  -0.191  24.859  0.00  0.00    -0.313 N 
ATOM     16  C   UNL     1      -4.133   0.922  24.245  0.00  0.00    +0.214 C 
ATOM     28  H   UNL     1      -5.163  -0.083  25.746  0.00  0.00    +0.149 HD
BRANCH  16  15
ATOM     15  C   UNL     1      -4.324   2.199  25.047  0.00  0.00    +0.102 C 
BRANCH  15  13
ATOM     13  C   UNL     1      -5.790   2.503  25.439  0.00  0.00    -0.029 C 
ATOM     17  C   UNL     1      -6.779   1.929  24.411  0.00  0.00    +0.011 C 
ATOM     18  C   UNL     1      -5.964   4.034  25.481  0.00  0.00    +0.011 C 
ATOM     19  C   UNL     1      -6.120   1.938  26.831  0.00  0.00    +0.011 C 
ENDBRANCH  15  13
ENDBRANCH  16  15
ENDBRANCH  12   7
ENDBRANCH  10  12
TORSDOF 10
ENDMDL
MODEL 4
REMARK VINA RESULT:      -4.0      2.896      5.319
REMARK  Name = 75536524
REMARK  13 active torsions:
REMARK  status: ('A' for Active; 'I' for Inactive)
REMARK    1  A    between atoms: O_2  and  C_9
REMARK    2  A    between atoms: O_4  and  C_26
REMARK    3  A    between atoms: N_6  and  C_8
REMARK    4  A    between atoms: N_6  and  C_14
REMARK    5  A    between atoms: N_7  and  C_12
REMARK    6  A    between atoms: C_10  and  C_12
REMARK    7  A    between atoms: C_13  and  C_15
REMARK    8  A    between atoms: C_13  and  C_17
REMARK    9  A    between atoms: C_13  and  C_18
REMARK   10  A    between atoms: C_13  and  C_19
REMARK   11  A    between atoms: C_14  and  C_20
REMARK   12  A    between atoms: C_15  and  C_16
REMARK   13  A    between atoms: C_25  and  C_26
REMARK                            x       y       z     vdW  Elec       q    Type
REMARK                         _______ _______ _______ _____ _____    ______ ____
ROOT
ATOM      1  O   UNL     1      -0.699  -0.694  25.847  0.00  0.00    -0.371 OA
ATOM      8  C   UNL     1      -2.489  -2.186  25.386  0.00  0.00    +0.111 C 
ATOM      9  C   UNL     1      -1.613  -2.069  24.153  0.00  0.00    +0.164 C 
ATOM     10  C   UNL     1      -0.315  -1.556  24.762  0.00  0.00    +0.165 C 
ATOM     11  C   UNL     1      -2.079  -0.947  26.166  0.00  0.00    +0.181 C 
ENDROOT
BRANCH   9   2
ATOM      2  O   UNL     1      -1.434  -3.306  23.492  0.00  0.00    -0.388 OA
ATOM     29  H   UNL     1      -1.525  -4.019  24.147  0.00  0.00    +0.210 HD
ENDBRANCH   9   2
BRANCH   8   6
ATOM      6  N   UNL     1      -3.912  -2.222  25.090  0.00  0.00    -0.305 NA
ATOM     27  H   UNL     1      -4.427  -1.842  25.884  0.00  0.00    +0.123 HD
BRANCH   6  14
ATOM     14  C   UNL     1      -4.222  -1.429  23.905  0.00  0.00    +0.116 C 
BRANCH  14  20
ATOM     20  C   UNL     1      -4.476   0.015  24.248  0.00  0.00    -0.034 A 
ATOM     21  C   UNL     1      -5.216   0.340  25.386  0.00  0.00    +0.006 A 
ATOM     22  C   UNL     1      -3.973   1.026  23.429  0.00  0.00    +0.006 A 
ATOM     23  C   UNL     1      -5.452   1.678  25.703  0.00  0.00    +0.015 A 
ATOM     24  C   UNL     1      -4.209   2.363  23.748  0.00  0.00    +0.015 A 
ATOM     25  C   UNL     1      -4.949   2.689  24.885  0.00  0.00    +0.059 A 
BRANCH  25  26
ATOM      5  O   UNL     1      -4.416   5.019  24.999  0.00  0.00    -0.245 OA
ATOM     26  C   UNL     1      -5.194   4.083  25.217  0.00  0.00    +0.337 C 
BRANCH  26   4
ATOM      4  O   UNL     1      -6.403   4.273  25.813  0.00  0.00    -0.477 OA
ATOM     30  H   UNL     1      -6.316   4.421  26.779  0.00  0.00    +0.295 HD
ENDBRANCH  26   4
ENDBRANCH  25  26
ENDBRANCH  14  20
ENDBRANCH   6  14
ENDBRANCH   8   6
BRANCH  10  12
ATOM     12  C   UNL     1       0.548  -0.789  23.777  0.00  0.00    +0.138 C 
BRANCH  12   7
ATOM      3  O   UNL     1      -1.189   1.269  22.709  0.00  0.00    -0.276 OA
ATOM      7  N   UNL     1       0.571   0.624  24.083  0.00  0.00    -0.313 N 
ATOM     16  C   UNL     1      -0.305   1.536  23.519  0.00  0.00    +0.214 C 
ATOM     28  H   UNL     1       1.262   0.947  24.753  0.00  0.00    +0.149 HD
BRANCH  16  15
ATOM     15  C   UNL     1      -0.069   2.960  23.997  0.00  0.00    +0.102 C 
BRANCH  15  13
ATOM     13  C   UNL     1      -0.641   3.274  25.401  0.00  0.00    -0.029 C 
ATOM     17  C   UNL     1      -1.881   2.418  25.709  0.00  0.00    +0.011 C 
ATOM     18  C   UNL     1      -1.054   4.759  25.426  0.00  0.00    +0.011 C 
ATOM     19  C   UNL     1       0.417   3.046  26.493  0.00  0.00    +0.011 C 
ENDBRANCH  15  13
ENDBRANCH  16  15
ENDBRANCH  12   7
ENDBRANCH  10  12
TORSDOF 10
ENDMDL
MODEL 5
REMARK VINA RESULT:      -3.8      2.838      3.845
REMARK  Name = 75536524
REMARK  13 active torsions:
REMARK  status: ('A' for Active; 'I' for Inactive)
REMARK    1  A    between atoms: O_2  and  C_9
REMARK    2  A    between atoms: O_4  and  C_26
REMARK    3  A    between atoms: N_6  and  C_8
REMARK    4  A    between atoms: N_6  and  C_14
REMARK    5  A    between atoms: N_7  and  C_12
REMARK    6  A    between atoms: C_10  and  C_12
REMARK    7  A    between atoms: C_13  and  C_15
REMARK    8  A    between atoms: C_13  and  C_17
REMARK    9  A    between atoms: C_13  and  C_18
REMARK   10  A    between atoms: C_13  and  C_19
REMARK   11  A    between atoms: C_14  and  C_20
REMARK   12  A    between atoms: C_15  and  C_16
REMARK   13  A    between atoms: C_25  and  C_26
REMARK                            x       y       z     vdW  Elec       q    Type
REMARK                         _______ _______ _______ _____ _____    ______ ____
ROOT
ATOM      1  O   UNL     1      -2.956   4.379  23.847  0.00  0.00    -0.371 OA
ATOM      8  C   UNL     1      -4.563   3.806  25.499  0.00  0.00    +0.111 C 
ATOM      9  C   UNL     1      -3.253   4.151  26.183  0.00  0.00    +0.164 C 
ATOM     10  C   UNL     1      -2.563   4.968  25.099  0.00  0.00    +0.165 C 
ATOM     11  C   UNL     1      -4.099   3.537  24.076  0.00  0.00    +0.181 C 
ENDROOT
BRANCH   9   2
ATOM      2  O   UNL     1      -3.438   4.898  27.370  0.00  0.00    -0.388 OA
ATOM     29  H   UNL     1      -2.620   4.845  27.894  0.00  0.00    +0.210 HD
ENDBRANCH   9   2
BRANCH   8   6
ATOM      6  N   UNL     1      -5.250   2.670  26.094  0.00  0.00    -0.305 NA
ATOM     27  H   UNL     1      -6.026   3.010  26.662  0.00  0.00    +0.123 HD
BRANCH   6  14
ATOM     14  C   UNL     1      -5.775   1.777  25.067  0.00  0.00    +0.116 C 
BRANCH  14  20
ATOM     20  C   UNL     1      -4.939   0.532  24.928  0.00  0.00    -0.034 A 
ATOM     21  C   UNL     1      -4.269   0.015  26.037  0.00  0.00    +0.006 A 
ATOM     22  C   UNL     1      -4.833  -0.103  23.690  0.00  0.00    +0.006 A 
ATOM     23  C   UNL     1      -3.494  -1.137  25.908  0.00  0.00    +0.015 A 
ATOM     24  C   UNL     1      -4.059  -1.256  23.562  0.00  0.00    +0.015 A 
ATOM     25  C   UNL     1      -3.388  -1.773  24.672  0.00  0.00    +0.059 A 
BRANCH  25  26
ATOM      5  O   UNL     1      -1.387  -3.075  24.840  0.00  0.00    -0.245 OA
ATOM     26  C   UNL     1      -2.582  -2.975  24.537  0.00  0.00    +0.337 C 
BRANCH  26   4
ATOM      4  O   UNL     1      -3.287  -4.022  24.028  0.00  0.00    -0.477 OA
ATOM     30  H   UNL     1      -3.624  -4.614  24.735  0.00  0.00    +0.295 HD
ENDBRANCH  26   4
ENDBRANCH  25  26
ENDBRANCH  14  20
ENDBRANCH   6  14
ENDBRANCH   8   6
BRANCH  10  12
ATOM     12  C   UNL     1      -1.050   4.963  25.216  0.00  0.00    +0.138 C 
BRANCH  12   7
ATOM      3  O   UNL     1       0.467   2.783  26.374  0.00  0.00    -0.276 OA
ATOM      7  N   UNL     1      -0.469   3.834  24.525  0.00  0.00    -0.313 N 
ATOM     16  C   UNL     1       0.243   2.836  25.166  0.00  0.00    +0.214 C 
ATOM     28  H   UNL     1      -0.608   3.779  23.520  0.00  0.00    +0.149 HD
BRANCH  16  15
ATOM     15  C   UNL     1       0.757   1.766  24.216  0.00  0.00    +0.102 C 
BRANCH  15  13
ATOM     13  C   UNL     1      -0.234   0.607  23.951  0.00  0.00    -0.029 C 
ATOM     17  C   UNL     1      -1.492   1.098  23.216  0.00  0.00    +0.011 C 
ATOM     18  C   UNL     1      -0.660   0.024  25.313  0.00  0.00    +0.011 C 
ATOM     19  C   UNL     1       0.429  -0.512  23.130  0.00  0.00    +0.011 C 
ENDBRANCH  15  13
ENDBRANCH  16  15
ENDBRANCH  12   7
ENDBRANCH  10  12
TORSDOF 10
ENDMDL
MODEL 6
REMARK VINA RESULT:      -3.5      3.338      5.148
REMARK  Name = 75536524
REMARK  13 active torsions:
REMARK  status: ('A' for Active; 'I' for Inactive)
REMARK    1  A    between atoms: O_2  and  C_9
REMARK    2  A    between atoms: O_4  and  C_26
REMARK    3  A    between atoms: N_6  and  C_8
REMARK    4  A    between atoms: N_6  and  C_14
REMARK    5  A    between atoms: N_7  and  C_12
REMARK    6  A    between atoms: C_10  and  C_12
REMARK    7  A    between atoms: C_13  and  C_15
REMARK    8  A    between atoms: C_13  and  C_17
REMARK    9  A    between atoms: C_13  and  C_18
REMARK   10  A    between atoms: C_13  and  C_19
REMARK   11  A    between atoms: C_14  and  C_20
REMARK   12  A    between atoms: C_15  and  C_16
REMARK   13  A    between atoms: C_25  and  C_26
REMARK                            x       y       z     vdW  Elec       q    Type
REMARK                         _______ _______ _______ _____ _____    ______ ____
ROOT
ATOM      1  O   UNL     1      -0.539   1.329  24.102  0.00  0.00    -0.371 OA
ATOM      8  C   UNL     1      -0.001   3.506  24.885  0.00  0.00    +0.111 C 
ATOM      9  C   UNL     1      -0.116   2.568  26.072  0.00  0.00    +0.164 C 
ATOM     10  C   UNL     1       0.074   1.217  25.397  0.00  0.00    +0.165 C 
ATOM     11  C   UNL     1      -0.738   2.724  23.809  0.00  0.00    +0.181 C 
ENDROOT
BRANCH   9   2
ATOM      2  O   UNL     1       0.871   2.810  27.056  0.00  0.00    -0.388 OA
ATOM     29  H   UNL     1       1.277   3.675  26.875  0.00  0.00    +0.210 HD
ENDBRANCH   9   2
BRANCH   8   6
ATOM      6  N   UNL     1      -0.576   4.821  25.122  0.00  0.00    -0.305 NA
ATOM     27  H   UNL     1       0.129   5.532  24.930  0.00  0.00    +0.123 HD
BRANCH   6  14
ATOM     14  C   UNL     1      -1.728   5.054  24.257  0.00  0.00    +0.116 C 
BRANCH  14  20
ATOM     20  C   UNL     1      -2.929   4.260  24.699  0.00  0.00    -0.034 A 
ATOM     21  C   UNL     1      -3.327   4.285  26.036  0.00  0.00    +0.006 A 
ATOM     22  C   UNL     1      -3.641   3.498  23.772  0.00  0.00    +0.006 A 
ATOM     23  C   UNL     1      -4.439   3.549  26.445  0.00  0.00    +0.015 A 
ATOM     24  C   UNL     1      -4.752   2.763  24.182  0.00  0.00    +0.015 A 
ATOM     25  C   UNL     1      -5.151   2.788  25.519  0.00  0.00    +0.059 A 
BRANCH  25  26
ATOM      5  O   UNL     1      -6.578   1.714  27.113  0.00  0.00    -0.245 OA
ATOM     26  C   UNL     1      -6.311   2.021  25.946  0.00  0.00    +0.337 C 
BRANCH  26   4
ATOM      4  O   UNL     1      -7.108   1.658  24.903  0.00  0.00    -0.477 OA
ATOM     30  H   UNL     1      -8.056   1.645  25.155  0.00  0.00    +0.295 HD
ENDBRANCH  26   4
ENDBRANCH  25  26
ENDBRANCH  14  20
ENDBRANCH   6  14
ENDBRANCH   8   6
BRANCH  10  12
ATOM     12  C   UNL     1      -0.555   0.069  26.165  0.00  0.00    +0.138 C 
BRANCH  12   7
ATOM      3  O   UNL     1      -0.196  -2.665  25.276  0.00  0.00    -0.276 OA
ATOM      7  N   UNL     1      -1.443  -0.705  25.326  0.00  0.00    -0.313 N 
ATOM     16  C   UNL     1      -1.186  -2.012  24.952  0.00  0.00    +0.214 C 
ATOM     28  H   UNL     1      -2.299  -0.257  25.012  0.00  0.00    +0.149 HD
BRANCH  16  15
ATOM     15  C   UNL     1      -2.268  -2.600  24.061  0.00  0.00    +0.102 C 
BRANCH  15  13
ATOM     13  C   UNL     1      -3.650  -1.913  24.182  0.00  0.00    -0.029 C 
ATOM     17  C   UNL     1      -3.682  -0.576  23.422  0.00  0.00    +0.011 C 
ATOM     18  C   UNL     1      -3.913  -1.632  25.674  0.00  0.00    +0.011 C 
ATOM     19  C   UNL     1      -4.770  -2.824  23.653  0.00  0.00    +0.011 C 
ENDBRANCH  15  13
ENDBRANCH  16  15
ENDBRANCH  12   7
ENDBRANCH  10  12
TORSDOF 10
ENDMDL
MODEL 7
REMARK VINA RESULT:      -3.3      2.537      5.811
REMARK  Name = 75536524
REMARK  13 active torsions:
REMARK  status: ('A' for Active; 'I' for Inactive)
REMARK    1  A    between atoms: O_2  and  C_9
REMARK    2  A    between atoms: O_4  and  C_26
REMARK    3  A    between atoms: N_6  and  C_8
REMARK    4  A    between atoms: N_6  and  C_14
REMARK    5  A    between atoms: N_7  and  C_12
REMARK    6  A    between atoms: C_10  and  C_12
REMARK    7  A    between atoms: C_13  and  C_15
REMARK    8  A    between atoms: C_13  and  C_17
REMARK    9  A    between atoms: C_13  and  C_18
REMARK   10  A    between atoms: C_13  and  C_19
REMARK   11  A    between atoms: C_14  and  C_20
REMARK   12  A    between atoms: C_15  and  C_16
REMARK   13  A    between atoms: C_25  and  C_26
REMARK                            x       y       z     vdW  Elec       q    Type
REMARK                         _______ _______ _______ _____ _____    ______ ____
ROOT
ATOM      1  O   UNL     1      -6.208   2.460  25.197  0.00  0.00    -0.371 OA
ATOM      8  C   UNL     1      -4.086   3.502  25.422  0.00  0.00    +0.111 C 
ATOM      9  C   UNL     1      -3.884   2.041  25.065  0.00  0.00    +0.164 C 
ATOM     10  C   UNL     1      -5.238   1.697  24.460  0.00  0.00    +0.165 C 
ATOM     11  C   UNL     1      -5.521   3.495  25.922  0.00  0.00    +0.181 C 
ENDROOT
BRANCH   9   2
ATOM      2  O   UNL     1      -2.828   1.844  24.145  0.00  0.00    -0.388 OA
ATOM     29  H   UNL     1      -2.538   2.715  23.823  0.00  0.00    +0.210 HD
ENDBRANCH   9   2
BRANCH   8   6
ATOM      6  N   UNL     1      -3.143   3.996  26.413  0.00  0.00    -0.305 NA
ATOM     27  H   UNL     1      -2.777   3.207  26.945  0.00  0.00    +0.123 HD
BRANCH   6  14
ATOM     14  C   UNL     1      -2.031   4.694  25.778  0.00  0.00    +0.116 C 
BRANCH  14  20
ATOM     20  C   UNL     1      -1.045   3.735  25.165  0.00  0.00    -0.034 A 
ATOM     21  C   UNL     1      -0.435   2.762  25.957  0.00  0.00    +0.006 A 
ATOM     22  C   UNL     1      -0.741   3.820  23.806  0.00  0.00    +0.006 A 
ATOM     23  C   UNL     1       0.479   1.874  25.390  0.00  0.00    +0.015 A 
ATOM     24  C   UNL     1       0.172   2.932  23.239  0.00  0.00    +0.015 A 
ATOM     25  C   UNL     1       0.783   1.959  24.031  0.00  0.00    +0.059 A 
BRANCH  25  26
ATOM      5  O   UNL     1       1.482  -0.124  23.083  0.00  0.00    -0.245 OA
ATOM     26  C   UNL     1       1.734   1.033  23.439  0.00  0.00    +0.337 C 
BRANCH  26   4
ATOM      4  O   UNL     1       2.976   1.574  23.307  0.00  0.00    -0.477 OA
ATOM     30  H   UNL     1       3.540   1.391  24.089  0.00  0.00    +0.295 HD
ENDBRANCH  26   4
ENDBRANCH  25  26
ENDBRANCH  14  20
ENDBRANCH   6  14
ENDBRANCH   8   6
BRANCH  10  12
ATOM     12  C   UNL     1      -5.575   0.219  24.543  0.00  0.00    +0.138 C 
BRANCH  12   7
ATOM      3  O   UNL     1      -4.604  -2.320  23.543  0.00  0.00    -0.276 OA
ATOM      7  N   UNL     1      -4.457  -0.551  25.041  0.00  0.00    -0.313 N 
ATOM     16  C   UNL     1      -4.065  -1.760  24.495  0.00  0.00    +0.214 C 
ATOM     28  H   UNL     1      -3.937  -0.167  25.825  0.00  0.00    +0.149 HD
BRANCH  16  15
ATOM     15  C   UNL     1      -2.869  -2.374  25.204  0.00  0.00    +0.102 C 
BRANCH  15  13
ATOM     13  C   UNL     1      -1.550  -1.576  25.056  0.00  0.00    -0.029 C 
ATOM     17  C   UNL     1      -0.322  -2.496  25.149  0.00  0.00    +0.011 C 
ATOM     18  C   UNL     1      -1.481  -0.552  26.206  0.00  0.00    +0.011 C 
ATOM     19  C   UNL     1      -1.512  -0.812  23.722  0.00  0.00    +0.011 C 
ENDBRANCH  15  13
ENDBRANCH  16  15
ENDBRANCH  12   7
ENDBRANCH  10  12
TORSDOF 10
ENDMDL
MODEL 8
REMARK VINA RESULT:      -3.0      2.845      5.247
REMARK  Name = 75536524
REMARK  13 active torsions:
REMARK  status: ('A' for Active; 'I' for Inactive)
REMARK    1  A    between atoms: O_2  and  C_9
REMARK    2  A    between atoms: O_4  and  C_26
REMARK    3  A    between atoms: N_6  and  C_8
REMARK    4  A    between atoms: N_6  and  C_14
REMARK    5  A    between atoms: N_7  and  C_12
REMARK    6  A    between atoms: C_10  and  C_12
REMARK    7  A    between atoms: C_13  and  C_15
REMARK    8  A    between atoms: C_13  and  C_17
REMARK    9  A    between atoms: C_13  and  C_18
REMARK   10  A    between atoms: C_13  and  C_19
REMARK   11  A    between atoms: C_14  and  C_20
REMARK   12  A    between atoms: C_15  and  C_16
REMARK   13  A    between atoms: C_25  and  C_26
REMARK                            x       y       z     vdW  Elec       q    Type
REMARK                         _______ _______ _______ _____ _____    ______ ____
ROOT
ATOM      1  O   UNL     1      -0.958   0.976  22.933  0.00  0.00    -0.371 OA
ATOM      8  C   UNL     1       0.035   2.946  23.814  0.00  0.00    +0.111 C 
ATOM      9  C   UNL     1       0.990   1.783  24.006  0.00  0.00    +0.164 C 
ATOM     10  C   UNL     1       0.468   0.801  22.966  0.00  0.00    +0.165 C 
ATOM     11  C   UNL     1      -1.281   2.221  23.578  0.00  0.00    +0.181 C 
ENDROOT
BRANCH   9   2
ATOM      2  O   UNL     1       2.338   2.138  23.767  0.00  0.00    -0.388 OA
ATOM     29  H   UNL     1       2.760   2.327  24.622  0.00  0.00    +0.210 HD
ENDBRANCH   9   2
BRANCH   8   6
ATOM      6  N   UNL     1      -0.015   3.854  24.949  0.00  0.00    -0.305 NA
ATOM     27  H   UNL     1       0.859   4.376  24.995  0.00  0.00    +0.123 HD
BRANCH   6  14
ATOM     14  C   UNL     1      -1.121   4.796  24.819  0.00  0.00    +0.116 C 
BRANCH  14  20
ATOM     20  C   UNL     1      -2.454   4.126  25.025  0.00  0.00    -0.034 A 
ATOM     21  C   UNL     1      -3.253   3.815  23.925  0.00  0.00    +0.006 A 
ATOM     22  C   UNL     1      -2.890   3.819  26.314  0.00  0.00    +0.006 A 
ATOM     23  C   UNL     1      -4.489   3.195  24.115  0.00  0.00    +0.015 A 
ATOM     24  C   UNL     1      -4.124   3.199  26.503  0.00  0.00    +0.015 A 
ATOM     25  C   UNL     1      -4.924   2.887  25.403  0.00  0.00    +0.059 A 
BRANCH  25  26
ATOM      5  O   UNL     1      -6.947   1.818  24.702  0.00  0.00    -0.245 OA
ATOM     26  C   UNL     1      -6.211   2.240  25.601  0.00  0.00    +0.337 C 
BRANCH  26   4
ATOM      4  O   UNL     1      -6.545   2.137  26.917  0.00  0.00    -0.477 OA
ATOM     30  H   UNL     1      -7.498   1.933  27.037  0.00  0.00    +0.295 HD
ENDBRANCH  26   4
ENDBRANCH  25  26
ENDBRANCH  14  20
ENDBRANCH   6  14
ENDBRANCH   8   6
BRANCH  10  12
ATOM     12  C   UNL     1       0.801  -0.646  23.287  0.00  0.00    +0.138 C 
BRANCH  12   7
ATOM      3  O   UNL     1      -0.631  -1.062  25.770  0.00  0.00    -0.276 OA
ATOM      7  N   UNL     1      -0.397  -1.431  23.488  0.00  0.00    -0.313 N 
ATOM     16  C   UNL     1      -1.013  -1.572  24.719  0.00  0.00    +0.214 C 
ATOM     28  H   UNL     1      -0.799  -1.887  22.675  0.00  0.00    +0.149 HD
BRANCH  16  15
ATOM     15  C   UNL     1      -2.249  -2.455  24.667  0.00  0.00    +0.102 C 
BRANCH  15  13
ATOM     13  C   UNL     1      -3.590  -1.686  24.577  0.00  0.00    -0.029 C 
ATOM     17  C   UNL     1      -3.452  -0.412  23.727  0.00  0.00    +0.011 C 
ATOM     18  C   UNL     1      -4.002  -1.279  26.005  0.00  0.00    +0.011 C 
ATOM     19  C   UNL     1      -4.698  -2.573  23.985  0.00  0.00    +0.011 C 
ENDBRANCH  15  13
ENDBRANCH  16  15
ENDBRANCH  12   7
ENDBRANCH  10  12
TORSDOF 10
ENDMDL
MODEL 9
REMARK VINA RESULT:      -2.9      2.247      7.394
REMARK  Name = 75536524
REMARK  13 active torsions:
REMARK  status: ('A' for Active; 'I' for Inactive)
REMARK    1  A    between atoms: O_2  and  C_9
REMARK    2  A    between atoms: O_4  and  C_26
REMARK    3  A    between atoms: N_6  and  C_8
REMARK    4  A    between atoms: N_6  and  C_14
REMARK    5  A    between atoms: N_7  and  C_12
REMARK    6  A    between atoms: C_10  and  C_12
REMARK    7  A    between atoms: C_13  and  C_15
REMARK    8  A    between atoms: C_13  and  C_17
REMARK    9  A    between atoms: C_13  and  C_18
REMARK   10  A    between atoms: C_13  and  C_19
REMARK   11  A    between atoms: C_14  and  C_20
REMARK   12  A    between atoms: C_15  and  C_16
REMARK   13  A    between atoms: C_25  and  C_26
REMARK                            x       y       z     vdW  Elec       q    Type
REMARK                         _______ _______ _______ _____ _____    ______ ____
ROOT
ATOM      1  O   UNL     1      -4.208  -1.787  24.438  0.00  0.00    -0.371 OA
ATOM      8  C   UNL     1      -1.854  -1.833  24.754  0.00  0.00    +0.111 C 
ATOM      9  C   UNL     1      -2.350  -0.410  24.934  0.00  0.00    +0.164 C 
ATOM     10  C   UNL     1      -3.825  -0.648  25.226  0.00  0.00    +0.165 C 
ATOM     11  C   UNL     1      -3.015  -2.464  24.003  0.00  0.00    +0.181 C 
ENDROOT
BRANCH   9   2
ATOM      2  O   UNL     1      -1.702   0.263  25.996  0.00  0.00    -0.388 OA
ATOM     29  H   UNL     1      -1.017   0.841  25.619  0.00  0.00    +0.210 HD
ENDBRANCH   9   2
BRANCH   8   6
ATOM      6  N   UNL     1      -0.595  -1.926  24.032  0.00  0.00    -0.305 NA
ATOM     27  H   UNL     1      -0.682  -2.633  23.303  0.00  0.00    +0.123 HD
BRANCH   6  14
ATOM     14  C   UNL     1      -0.250  -0.651  23.413  0.00  0.00    +0.116 C 
BRANCH  14  20
ATOM     20  C   UNL     1       1.238  -0.426  23.386  0.00  0.00    -0.034 A 
ATOM     21  C   UNL     1       2.104  -1.451  23.769  0.00  0.00    +0.006 A 
ATOM     22  C   UNL     1       1.751   0.806  22.982  0.00  0.00    +0.006 A 
ATOM     23  C   UNL     1       3.483  -1.243  23.746  0.00  0.00    +0.015 A 
ATOM     24  C   UNL     1       3.130   1.014  22.958  0.00  0.00    +0.015 A 
ATOM     25  C   UNL     1       3.997  -0.011  23.341  0.00  0.00    +0.059 A 
BRANCH  25  26
ATOM      5  O   UNL     1       6.219  -0.289  22.498  0.00  0.00    -0.245 OA
ATOM     26  C   UNL     1       5.434   0.206  23.315  0.00  0.00    +0.337 C 
BRANCH  26   4
ATOM      4  O   UNL     1       5.854   1.034  24.310  0.00  0.00    -0.477 OA
ATOM     30  H   UNL     1       5.346   1.874  24.326  0.00  0.00    +0.295 HD
ENDBRANCH  26   4
ENDBRANCH  25  26
ENDBRANCH  14  20
ENDBRANCH   6  14
ENDBRANCH   8   6
BRANCH  10  12
ATOM     12  C   UNL     1      -4.705   0.539  24.877  0.00  0.00    +0.138 C 
BRANCH  12   7
ATOM      3  O   UNL     1      -5.053   3.298  25.686  0.00  0.00    -0.276 OA
ATOM      7  N   UNL     1      -3.915   1.679  24.468  0.00  0.00    -0.313 N 
ATOM     16  C   UNL     1      -4.159   2.968  24.910  0.00  0.00    +0.214 C 
ATOM     28  H   UNL     1      -3.142   1.509  23.832  0.00  0.00    +0.149 HD
BRANCH  16  15
ATOM     15  C   UNL     1      -3.195   3.989  24.328  0.00  0.00    +0.102 C 
BRANCH  15  13
ATOM     13  C   UNL     1      -1.800   4.017  24.997  0.00  0.00    -0.029 C 
ATOM     17  C   UNL     1      -1.869   3.557  26.463  0.00  0.00    +0.011 C 
ATOM     18  C   UNL     1      -1.285   5.469  24.965  0.00  0.00    +0.011 C 
ATOM     19  C   UNL     1      -0.801   3.131  24.234  0.00  0.00    +0.011 C 
ENDBRANCH  15  13
ENDBRANCH  16  15
ENDBRANCH  12   7
ENDBRANCH  10  12
TORSDOF 10
ENDMDL
MODEL 10
REMARK VINA RESULT:      -2.7      2.929      5.620
REMARK  Name = 75536524
REMARK  13 active torsions:
REMARK  status: ('A' for Active; 'I' for Inactive)
REMARK    1  A    between atoms: O_2  and  C_9
REMARK    2  A    between atoms: O_4  and  C_26
REMARK    3  A    between atoms: N_6  and  C_8
REMARK    4  A    between atoms: N_6  and  C_14
REMARK    5  A    between atoms: N_7  and  C_12
REMARK    6  A    between atoms: C_10  and  C_12
REMARK    7  A    between atoms: C_13  and  C_15
REMARK    8  A    between atoms: C_13  and  C_17
REMARK    9  A    between atoms: C_13  and  C_18
REMARK   10  A    between atoms: C_13  and  C_19
REMARK   11  A    between atoms: C_14  and  C_20
REMARK   12  A    between atoms: C_15  and  C_16
REMARK   13  A    between atoms: C_25  and  C_26
REMARK                            x       y       z     vdW  Elec       q    Type
REMARK                         _______ _______ _______ _____ _____    ______ ____
ROOT
ATOM      1  O   UNL     1      -3.182  -1.463  26.089  0.00  0.00    -0.371 OA
ATOM      8  C   UNL     1      -5.069  -0.675  24.881  0.00  0.00    +0.111 C 
ATOM      9  C   UNL     1      -4.286  -1.634  24.004  0.00  0.00    +0.164 C 
ATOM     10  C   UNL     1      -3.493  -2.406  25.050  0.00  0.00    +0.165 C 
ATOM     11  C   UNL     1      -4.033  -0.314  25.933  0.00  0.00    +0.181 C 
ENDROOT
BRANCH   9   2
ATOM      2  O   UNL     1      -5.122  -2.484  23.242  0.00  0.00    -0.388 OA
ATOM     29  H   UNL     1      -5.317  -2.043  22.398  0.00  0.00    +0.210 HD
ENDBRANCH   9   2
BRANCH   8   6
ATOM      6  N   UNL     1      -5.579   0.485  24.167  0.00  0.00    -0.305 NA
ATOM     27  H   UNL     1      -6.463   0.240  23.723  0.00  0.00    +0.123 HD
BRANCH   6  14
ATOM     14  C   UNL     1      -5.801   1.605  25.075  0.00  0.00    +0.116 C 
BRANCH  14  20
ATOM     20  C   UNL     1      -4.650   2.576  25.057  0.00  0.00    -0.034 A 
ATOM     21  C   UNL     1      -4.232   3.182  26.242  0.00  0.00    +0.006 A 
ATOM     22  C   UNL     1      -4.005   2.872  23.856  0.00  0.00    +0.006 A 
ATOM     23  C   UNL     1      -3.167   4.083  26.226  0.00  0.00    +0.015 A 
ATOM     24  C   UNL     1      -2.940   3.772  23.841  0.00  0.00    +0.015 A 
ATOM     25  C   UNL     1      -2.521   4.378  25.026  0.00  0.00    +0.059 A 
BRANCH  25  26
ATOM      5  O   UNL     1      -1.512   6.548  25.015  0.00  0.00    -0.245 OA
ATOM     26  C   UNL     1      -1.411   5.316  25.009  0.00  0.00    +0.337 C 
BRANCH  26   4
ATOM      4  O   UNL     1      -0.201   4.692  24.984  0.00  0.00    -0.477 OA
ATOM     30  H   UNL     1       0.314   4.925  24.181  0.00  0.00    +0.295 HD
ENDBRANCH  26   4
ENDBRANCH  25  26
ENDBRANCH  14  20
ENDBRANCH   6  14
ENDBRANCH   8   6
BRANCH  10  12
ATOM     12  C   UNL     1      -2.211  -3.011  24.505  0.00  0.00    +0.138 C 
BRANCH  12   7
ATOM      3  O   UNL     1       0.135  -1.891  25.782  0.00  0.00    -0.276 OA
ATOM      7  N   UNL     1      -1.328  -1.993  23.980  0.00  0.00    -0.313 N 
ATOM     16  C   UNL     1      -0.225  -1.518  24.668  0.00  0.00    +0.214 C 
ATOM     28  H   UNL     1      -1.535  -1.626  23.056  0.00  0.00    +0.149 HD
BRANCH  16  15
ATOM     15  C   UNL     1       0.535  -0.445  23.905  0.00  0.00    +0.102 C 
BRANCH  15  13
ATOM     13  C   UNL     1      -0.067   0.976  24.017  0.00  0.00    -0.029 C 
ATOM     17  C   UNL     1      -1.127   1.226  22.931  0.00  0.00    +0.011 C 
ATOM     18  C   UNL     1       1.075   1.993  23.827  0.00  0.00    +0.011 C 
ATOM     19  C   UNL     1      -0.696   1.205  25.401  0.00  0.00    +0.011 C 
ENDBRANCH  15  13
ENDBRANCH  16  15
ENDBRANCH  12   7
ENDBRANCH  10  12
TORSDOF 10
ENDMDL
