MODEL 1
REMARK VINA RESULT:       4.9      0.000      0.000
REMARK  Name = 28959825
REMARK  9 active torsions:
REMARK  status: ('A' for Active; 'I' for Inactive)
REMARK    1  A    between atoms: O_3  and  C_29
REMARK    2  A    between atoms: O_5  and  C_30
REMARK    3  A    between atoms: O_5  and  C_31
REMARK    4  A    between atoms: N_6  and  C_16
REMARK    5  A    between atoms: C_14  and  C_18
REMARK    6  A    between atoms: C_16  and  C_18
REMARK    7  A    between atoms: C_17  and  C_23
REMARK    8  A    between atoms: C_23  and  C_29
REMARK    9  A    between atoms: C_26  and  C_30
REMARK                            x       y       z     vdW  Elec       q    Type
REMARK                         _______ _______ _______ _____ _____    ______ ____
ROOT
ATOM      2  O   UNL     1      -2.132   0.962  20.995  0.00  0.00    -0.272 OA
ATOM      8  N   UNL     1      -0.566   0.098  22.478  0.00  0.00    -0.298 N 
ATOM     14  C   UNL     1       1.240   0.386  24.161  0.00  0.00    +0.011 C 
ATOM     17  C   UNL     1       2.268  -0.002  23.067  0.00  0.00    +0.006 C 
ATOM     20  C   UNL     1      -0.128  -0.243  23.838  0.00  0.00    +0.111 C 
ATOM     21  C   UNL     1       1.748   0.327  21.658  0.00  0.00    +0.023 C 
ATOM     22  C   UNL     1       0.369  -0.284  21.420  0.00  0.00    +0.108 C 
ATOM     26  C   UNL     1      -1.775   0.709  22.149  0.00  0.00    +0.253 C 
ENDROOT
BRANCH  14  18
ATOM     18  C   UNL     1       1.094   1.899  24.370  0.00  0.00    +0.020 C 
BRANCH  18  16
ATOM     16  C   UNL     1       0.402   2.211  25.694  0.00  0.00    +0.085 C 
BRANCH  16   6
ATOM      1  O   UNL     1      -4.660   3.178  22.330  0.00  0.00    -0.268 OA
ATOM      6  N   UNL     1      -0.746   3.087  25.471  0.00  0.00    -0.301 NA
ATOM      7  N   UNL     1      -3.645   3.799  24.347  0.00  0.00    -0.312 N 
ATOM      9  C   UNL     1      -1.537   5.247  24.474  0.00  0.00    +0.024 C 
ATOM     10  C   UNL     1      -2.570   4.423  26.536  0.00  0.00    +0.050 C 
ATOM     11  C   UNL     1      -2.099   5.686  25.819  0.00  0.00    +0.017 C 
ATOM     12  C   UNL     1      -0.364   4.266  24.685  0.00  0.00    +0.089 C 
ATOM     13  C   UNL     1      -1.371   3.471  26.747  0.00  0.00    +0.094 C 
ATOM     15  C   UNL     1      -2.670   4.638  23.638  0.00  0.00    +0.130 C 
ATOM     19  C   UNL     1      -3.665   3.732  25.744  0.00  0.00    +0.026 A 
ATOM     24  C   UNL     1      -4.633   3.045  26.375  0.00  0.00    +0.022 A 
ATOM     25  C   UNL     1      -4.613   3.146  23.560  0.00  0.00    +0.251 A 
ATOM     27  C   UNL     1      -5.647   2.354  25.630  0.00  0.00    +0.007 A 
ATOM     28  C   UNL     1      -5.655   2.377  24.294  0.00  0.00    +0.070 A 
ENDBRANCH  16   6
ENDBRANCH  18  16
ENDBRANCH  14  18
BRANCH  17  23
ATOM     23  C   UNL     1       3.646   0.621  23.292  0.00  0.00    +0.124 C 
BRANCH  23  29
ATOM      4  O   UNL     1       5.904  -0.291  23.406  0.00  0.00    -0.251 OA
ATOM     29  C   UNL     1       4.697  -0.429  23.530  0.00  0.00    +0.305 C 
BRANCH  29   3
ATOM      3  O   UNL     1       4.106  -1.590  23.912  0.00  0.00    -0.481 OA
ATOM     37  H   UNL     1       3.692  -1.515  24.799  0.00  0.00    +0.295 HD
ENDBRANCH  29   3
ENDBRANCH  23  29
ENDBRANCH  17  23
BRANCH  26  30
ATOM     30  C   UNL     1      -2.682   1.075  23.297  0.00  0.00    +0.324 C 
BRANCH  30   5
ATOM      5  O   UNL     1      -3.706   0.110  23.324  0.00  0.00    -0.483 OA
BRANCH   5  31
ATOM     31  C   UNL     1      -3.566  -0.935  24.210  0.00  0.00    +0.121 A 
ATOM     32  C   UNL     1      -3.257  -0.679  25.546  0.00  0.00    +0.045 A 
ATOM     33  C   UNL     1      -3.730  -2.248  23.772  0.00  0.00    +0.045 A 
ATOM     34  C   UNL     1      -3.113  -1.737  26.443  0.00  0.00    +0.004 A 
ATOM     35  C   UNL     1      -3.587  -3.306  24.669  0.00  0.00    +0.004 A 
ATOM     36  C   UNL     1      -3.278  -3.051  26.005  0.00  0.00    +0.000 A 
ENDBRANCH   5  31
ENDBRANCH  30   5
ENDBRANCH  26  30
TORSDOF 9
ENDMDL
MODEL 2
REMARK VINA RESULT:       5.0      2.140      7.069
REMARK  Name = 28959825
REMARK  9 active torsions:
REMARK  status: ('A' for Active; 'I' for Inactive)
REMARK    1  A    between atoms: O_3  and  C_29
REMARK    2  A    between atoms: O_5  and  C_30
REMARK    3  A    between atoms: O_5  and  C_31
REMARK    4  A    between atoms: N_6  and  C_16
REMARK    5  A    between atoms: C_14  and  C_18
REMARK    6  A    between atoms: C_16  and  C_18
REMARK    7  A    between atoms: C_17  and  C_23
REMARK    8  A    between atoms: C_23  and  C_29
REMARK    9  A    between atoms: C_26  and  C_30
REMARK                            x       y       z     vdW  Elec       q    Type
REMARK                         _______ _______ _______ _____ _____    ______ ____
ROOT
ATOM      2  O   UNL     1       1.725   2.620  23.668  0.00  0.00    -0.272 OA
ATOM      8  N   UNL     1      -0.279   2.365  24.815  0.00  0.00    -0.298 N 
ATOM     14  C   UNL     1      -2.762   2.303  24.888  0.00  0.00    +0.011 C 
ATOM     17  C   UNL     1      -2.741   3.718  25.521  0.00  0.00    +0.006 C 
ATOM     20  C   UNL     1      -1.448   1.568  25.208  0.00  0.00    +0.111 C 
ATOM     21  C   UNL     1      -1.477   4.498  25.123  0.00  0.00    +0.023 C 
ATOM     22  C   UNL     1      -0.213   3.695  25.422  0.00  0.00    +0.108 C 
ATOM     26  C   UNL     1       0.739   1.940  23.962  0.00  0.00    +0.253 C 
ENDROOT
BRANCH  14  18
ATOM     18  C   UNL     1      -3.017   2.301  23.375  0.00  0.00    +0.020 C 
BRANCH  18  16
ATOM     16  C   UNL     1      -3.989   1.193  22.978  0.00  0.00    +0.085 C 
BRANCH  16   6
ATOM      1  O   UNL     1       0.628  -2.384  24.919  0.00  0.00    -0.268 OA
ATOM      6  N   UNL     1      -3.633  -0.056  23.648  0.00  0.00    -0.301 NA
ATOM      7  N   UNL     1      -1.667  -2.023  25.211  0.00  0.00    -0.312 N 
ATOM      9  C   UNL     1      -3.413  -2.542  23.410  0.00  0.00    +0.024 C 
ATOM     10  C   UNL     1      -4.124  -1.596  25.554  0.00  0.00    +0.050 C 
ATOM     11  C   UNL     1      -4.350  -2.759  24.591  0.00  0.00    +0.017 C 
ATOM     12  C   UNL     1      -3.727  -1.194  22.727  0.00  0.00    +0.089 C 
ATOM     13  C   UNL     1      -4.463  -0.265  24.845  0.00  0.00    +0.094 C 
ATOM     15  C   UNL     1      -1.963  -2.628  23.905  0.00  0.00    +0.130 C 
ATOM     19  C   UNL     1      -2.692  -1.582  26.055  0.00  0.00    +0.026 A 
ATOM     24  C   UNL     1      -2.405  -1.133  27.289  0.00  0.00    +0.022 A 
ATOM     25  C   UNL     1      -0.317  -1.998  25.608  0.00  0.00    +0.251 A 
ATOM     27  C   UNL     1      -1.047  -1.078  27.753  0.00  0.00    +0.007 A 
ATOM     28  C   UNL     1      -0.037  -1.472  26.972  0.00  0.00    +0.070 A 
ENDBRANCH  16   6
ENDBRANCH  18  16
ENDBRANCH  14  18
BRANCH  17  23
ATOM     23  C   UNL     1      -3.997   4.532  25.211  0.00  0.00    +0.124 C 
BRANCH  23  29
ATOM      4  O   UNL     1      -5.331   2.702  26.111  0.00  0.00    -0.251 OA
ATOM     29  C   UNL     1      -5.238   3.857  25.727  0.00  0.00    +0.305 C 
BRANCH  29   3
ATOM      3  O   UNL     1      -6.276   4.732  25.709  0.00  0.00    -0.481 OA
ATOM     37  H   UNL     1      -5.983   5.653  25.878  0.00  0.00    +0.295 HD
ENDBRANCH  29   3
ENDBRANCH  23  29
ENDBRANCH  17  23
BRANCH  26  30
ATOM     30  C   UNL     1       0.596   0.558  23.375  0.00  0.00    +0.324 C 
BRANCH  30   5
ATOM      5  O   UNL     1       1.620   0.419  22.421  0.00  0.00    -0.483 OA
BRANCH   5  31
ATOM     31  C   UNL     1       2.874   0.085  22.882  0.00  0.00    +0.121 A 
ATOM     32  C   UNL     1       3.102  -1.177  23.430  0.00  0.00    +0.045 A 
ATOM     33  C   UNL     1       3.914   1.010  22.806  0.00  0.00    +0.045 A 
ATOM     34  C   UNL     1       4.371  -1.514  23.899  0.00  0.00    +0.004 A 
ATOM     35  C   UNL     1       5.183   0.673  23.276  0.00  0.00    +0.004 A 
ATOM     36  C   UNL     1       5.412  -0.590  23.823  0.00  0.00    +0.000 A 
ENDBRANCH   5  31
ENDBRANCH  30   5
ENDBRANCH  26  30
TORSDOF 9
ENDMDL
MODEL 3
REMARK VINA RESULT:       5.3      2.107      5.957
REMARK  Name = 28959825
REMARK  9 active torsions:
REMARK  status: ('A' for Active; 'I' for Inactive)
REMARK    1  A    between atoms: O_3  and  C_29
REMARK    2  A    between atoms: O_5  and  C_30
REMARK    3  A    between atoms: O_5  and  C_31
REMARK    4  A    between atoms: N_6  and  C_16
REMARK    5  A    between atoms: C_14  and  C_18
REMARK    6  A    between atoms: C_16  and  C_18
REMARK    7  A    between atoms: C_17  and  C_23
REMARK    8  A    between atoms: C_23  and  C_29
REMARK    9  A    between atoms: C_26  and  C_30
REMARK                            x       y       z     vdW  Elec       q    Type
REMARK                         _______ _______ _______ _____ _____    ______ ____
ROOT
ATOM      2  O   UNL     1       0.664   1.995  25.401  0.00  0.00    -0.272 OA
ATOM      8  N   UNL     1      -0.213  -0.081  24.836  0.00  0.00    -0.298 N 
ATOM     14  C   UNL     1      -1.950  -1.501  23.768  0.00  0.00    +0.011 C 
ATOM     17  C   UNL     1      -2.518  -1.802  25.179  0.00  0.00    +0.006 C 
ATOM     20  C   UNL     1      -0.453  -1.161  23.869  0.00  0.00    +0.111 C 
ATOM     21  C   UNL     1      -2.201  -0.670  26.170  0.00  0.00    +0.023 C 
ATOM     22  C   UNL     1      -0.708  -0.348  26.186  0.00  0.00    +0.108 C 
ATOM     26  C   UNL     1       0.452   1.114  24.564  0.00  0.00    +0.253 C 
ENDROOT
BRANCH  14  18
ATOM     18  C   UNL     1      -2.699  -0.391  23.019  0.00  0.00    +0.020 C 
BRANCH  18  16
ATOM     16  C   UNL     1      -4.065  -0.123  23.646  0.00  0.00    +0.085 C 
BRANCH  16   6
ATOM      1  O   UNL     1      -1.381   3.717  27.638  0.00  0.00    -0.268 OA
ATOM      6  N   UNL     1      -4.096   1.213  24.239  0.00  0.00    -0.301 NA
ATOM      7  N   UNL     1      -2.847   3.691  25.813  0.00  0.00    -0.312 N 
ATOM      9  C   UNL     1      -5.209   2.705  25.918  0.00  0.00    +0.024 C 
ATOM     10  C   UNL     1      -4.384   3.659  23.819  0.00  0.00    +0.050 C 
ATOM     11  C   UNL     1      -5.523   3.726  24.833  0.00  0.00    +0.017 C 
ATOM     12  C   UNL     1      -5.104   1.294  25.303  0.00  0.00    +0.089 C 
ATOM     13  C   UNL     1      -4.318   2.240  23.210  0.00  0.00    +0.094 C 
ATOM     15  C   UNL     1      -3.923   3.129  26.640  0.00  0.00    +0.130 C 
ATOM     19  C   UNL     1      -3.062   4.021  24.470  0.00  0.00    +0.026 A 
ATOM     24  C   UNL     1      -2.098   4.634  23.762  0.00  0.00    +0.022 A 
ATOM     25  C   UNL     1      -1.628   3.968  26.458  0.00  0.00    +0.251 A 
ATOM     27  C   UNL     1      -0.830   4.941  24.361  0.00  0.00    +0.007 A 
ATOM     28  C   UNL     1      -0.576   4.626  25.634  0.00  0.00    +0.070 A 
ENDBRANCH  16   6
ENDBRANCH  18  16
ENDBRANCH  14  18
BRANCH  17  23
ATOM     23  C   UNL     1      -4.015  -2.108  25.171  0.00  0.00    +0.124 C 
BRANCH  23  29
ATOM      4  O   UNL     1      -5.306  -2.943  23.280  0.00  0.00    -0.251 OA
ATOM     29  C   UNL     1      -4.381  -3.063  24.067  0.00  0.00    +0.305 C 
BRANCH  29   3
ATOM      3  O   UNL     1      -3.517  -4.110  24.064  0.00  0.00    -0.481 OA
ATOM     37  H   UNL     1      -2.919  -4.095  24.841  0.00  0.00    +0.295 HD
ENDBRANCH  29   3
ENDBRANCH  23  29
ENDBRANCH  17  23
BRANCH  26  30
ATOM     30  C   UNL     1       0.929   1.314  23.147  0.00  0.00    +0.324 C 
BRANCH  30   5
ATOM      5  O   UNL     1       1.557   0.116  22.760  0.00  0.00    -0.483 OA
BRANCH   5  31
ATOM     31  C   UNL     1       2.886  -0.037  23.088  0.00  0.00    +0.121 A 
ATOM     32  C   UNL     1       3.773   1.024  22.911  0.00  0.00    +0.045 A 
ATOM     33  C   UNL     1       3.344  -1.252  23.595  0.00  0.00    +0.045 A 
ATOM     34  C   UNL     1       5.120   0.869  23.241  0.00  0.00    +0.004 A 
ATOM     35  C   UNL     1       4.690  -1.407  23.925  0.00  0.00    +0.004 A 
ATOM     36  C   UNL     1       5.579  -0.346  23.748  0.00  0.00    +0.000 A 
ENDBRANCH   5  31
ENDBRANCH  30   5
ENDBRANCH  26  30
TORSDOF 9
ENDMDL
MODEL 4
REMARK VINA RESULT:       6.1      1.491      5.384
REMARK  Name = 28959825
REMARK  9 active torsions:
REMARK  status: ('A' for Active; 'I' for Inactive)
REMARK    1  A    between atoms: O_3  and  C_29
REMARK    2  A    between atoms: O_5  and  C_30
REMARK    3  A    between atoms: O_5  and  C_31
REMARK    4  A    between atoms: N_6  and  C_16
REMARK    5  A    between atoms: C_14  and  C_18
REMARK    6  A    between atoms: C_16  and  C_18
REMARK    7  A    between atoms: C_17  and  C_23
REMARK    8  A    between atoms: C_23  and  C_29
REMARK    9  A    between atoms: C_26  and  C_30
REMARK                            x       y       z     vdW  Elec       q    Type
REMARK                         _______ _______ _______ _____ _____    ______ ____
ROOT
ATOM      2  O   UNL     1       2.694  -0.728  22.417  0.00  0.00    -0.272 OA
ATOM      8  N   UNL     1       0.587   0.071  22.980  0.00  0.00    -0.298 N 
ATOM     14  C   UNL     1      -1.107   0.772  24.658  0.00  0.00    +0.011 C 
ATOM     17  C   UNL     1      -1.833  -0.579  24.433  0.00  0.00    +0.006 C 
ATOM     20  C   UNL     1      -0.313   1.154  23.396  0.00  0.00    +0.111 C 
ATOM     21  C   UNL     1      -0.863  -1.671  23.951  0.00  0.00    +0.023 C 
ATOM     22  C   UNL     1      -0.073  -1.210  22.728  0.00  0.00    +0.108 C 
ATOM     26  C   UNL     1       1.963   0.192  22.792  0.00  0.00    +0.253 C 
ENDROOT
BRANCH  14  18
ATOM     18  C   UNL     1      -0.191   0.789  25.888  0.00  0.00    +0.020 C 
BRANCH  18  16
ATOM     16  C   UNL     1      -0.046   2.200  26.452  0.00  0.00    +0.085 C 
BRANCH  16   6
ATOM      1  O   UNL     1      -4.320   3.016  22.100  0.00  0.00    -0.268 OA
ATOM      6  N   UNL     1      -1.141   3.047  25.984  0.00  0.00    -0.301 NA
ATOM      7  N   UNL     1      -3.759   3.679  24.274  0.00  0.00    -0.312 N 
ATOM      9  C   UNL     1      -1.754   5.179  24.815  0.00  0.00    +0.024 C 
ATOM     10  C   UNL     1      -3.174   4.349  26.630  0.00  0.00    +0.050 C 
ATOM     11  C   UNL     1      -2.592   5.616  26.009  0.00  0.00    +0.017 C 
ATOM     12  C   UNL     1      -0.630   4.227  25.278  0.00  0.00    +0.089 C 
ATOM     13  C   UNL     1      -2.024   3.427  27.097  0.00  0.00    +0.094 C 
ATOM     15  C   UNL     1      -2.676   4.535  23.771  0.00  0.00    +0.130 C 
ATOM     19  C   UNL     1      -4.066   3.625  25.638  0.00  0.00    +0.026 A 
ATOM     24  C   UNL     1      -5.129   2.921  26.064  0.00  0.00    +0.022 A 
ATOM     25  C   UNL     1      -4.528   2.997  23.313  0.00  0.00    +0.251 A 
ATOM     27  C   UNL     1      -5.952   2.199  25.135  0.00  0.00    +0.007 A 
ATOM     28  C   UNL     1      -5.683   2.210  23.826  0.00  0.00    +0.070 A 
ENDBRANCH  16   6
ENDBRANCH  18  16
ENDBRANCH  14  18
BRANCH  17  23
ATOM     23  C   UNL     1      -2.612  -1.054  25.659  0.00  0.00    +0.124 C 
BRANCH  23  29
ATOM      4  O   UNL     1      -3.517  -3.312  25.793  0.00  0.00    -0.251 OA
ATOM     29  C   UNL     1      -3.542  -2.187  25.322  0.00  0.00    +0.305 C 
BRANCH  29   3
ATOM      3  O   UNL     1      -4.443  -1.778  24.392  0.00  0.00    -0.481 OA
ATOM     37  H   UNL     1      -4.701  -2.505  23.787  0.00  0.00    +0.295 HD
ENDBRANCH  29   3
ENDBRANCH  23  29
ENDBRANCH  17  23
BRANCH  26  30
ATOM     30  C   UNL     1       2.568   1.544  23.076  0.00  0.00    +0.324 C 
BRANCH  30   5
ATOM      5  O   UNL     1       3.857   1.535  22.510  0.00  0.00    -0.483 OA
BRANCH   5  31
ATOM     31  C   UNL     1       4.783   0.678  23.063  0.00  0.00    +0.121 A 
ATOM     32  C   UNL     1       5.658  -0.027  22.237  0.00  0.00    +0.045 A 
ATOM     33  C   UNL     1       4.844   0.515  24.446  0.00  0.00    +0.045 A 
ATOM     34  C   UNL     1       6.595  -0.896  22.796  0.00  0.00    +0.004 A 
ATOM     35  C   UNL     1       5.781  -0.354  25.005  0.00  0.00    +0.004 A 
ATOM     36  C   UNL     1       6.657  -1.060  24.180  0.00  0.00    +0.000 A 
ENDBRANCH   5  31
ENDBRANCH  30   5
ENDBRANCH  26  30
TORSDOF 9
ENDMDL
MODEL 5
REMARK VINA RESULT:       6.7      1.975      5.925
REMARK  Name = 28959825
REMARK  9 active torsions:
REMARK  status: ('A' for Active; 'I' for Inactive)
REMARK    1  A    between atoms: O_3  and  C_29
REMARK    2  A    between atoms: O_5  and  C_30
REMARK    3  A    between atoms: O_5  and  C_31
REMARK    4  A    between atoms: N_6  and  C_16
REMARK    5  A    between atoms: C_14  and  C_18
REMARK    6  A    between atoms: C_16  and  C_18
REMARK    7  A    between atoms: C_17  and  C_23
REMARK    8  A    between atoms: C_23  and  C_29
REMARK    9  A    between atoms: C_26  and  C_30
REMARK                            x       y       z     vdW  Elec       q    Type
REMARK                         _______ _______ _______ _____ _____    ______ ____
ROOT
ATOM      2  O   UNL     1       0.857   2.380  24.106  0.00  0.00    -0.272 OA
ATOM      8  N   UNL     1       0.165   0.281  24.819  0.00  0.00    -0.298 N 
ATOM     14  C   UNL     1      -1.369  -1.671  24.701  0.00  0.00    +0.011 C 
ATOM     17  C   UNL     1      -2.058  -1.159  25.992  0.00  0.00    +0.006 C 
ATOM     20  C   UNL     1       0.088  -1.177  24.656  0.00  0.00    +0.111 C 
ATOM     21  C   UNL     1      -1.911   0.364  26.148  0.00  0.00    +0.023 C 
ATOM     22  C   UNL     1      -0.448   0.792  26.045  0.00  0.00    +0.108 C 
ATOM     26  C   UNL     1       0.784   1.161  23.933  0.00  0.00    +0.253 C 
ENDROOT
BRANCH  14  18
ATOM     18  C   UNL     1      -2.102  -1.285  23.409  0.00  0.00    +0.020 C 
BRANCH  18  16
ATOM     16  C   UNL     1      -1.587   0.041  22.855  0.00  0.00    +0.085 C 
BRANCH  16   6
ATOM      1  O   UNL     1      -3.273   3.710  27.500  0.00  0.00    -0.268 OA
ATOM      6  N   UNL     1      -2.463   1.136  23.268  0.00  0.00    -0.301 NA
ATOM      7  N   UNL     1      -3.371   3.532  25.167  0.00  0.00    -0.312 N 
ATOM      9  C   UNL     1      -4.788   1.781  23.948  0.00  0.00    +0.024 C 
ATOM     10  C   UNL     1      -3.430   3.358  22.656  0.00  0.00    +0.050 C 
ATOM     11  C   UNL     1      -4.847   2.820  22.836  0.00  0.00    +0.017 C 
ATOM     12  C   UNL     1      -3.815   0.647  23.562  0.00  0.00    +0.089 C 
ATOM     13  C   UNL     1      -2.486   2.202  22.254  0.00  0.00    +0.094 C 
ATOM     15  C   UNL     1      -4.390   2.478  25.256  0.00  0.00    +0.130 C 
ATOM     19  C   UNL     1      -2.943   4.024  23.930  0.00  0.00    +0.026 A 
ATOM     24  C   UNL     1      -2.091   5.063  23.874  0.00  0.00    +0.022 A 
ATOM     25  C   UNL     1      -2.923   4.086  26.381  0.00  0.00    +0.251 A 
ATOM     27  C   UNL     1      -1.594   5.670  25.075  0.00  0.00    +0.007 A 
ATOM     28  C   UNL     1      -1.963   5.220  26.278  0.00  0.00    +0.070 A 
ENDBRANCH  16   6
ENDBRANCH  18  16
ENDBRANCH  14  18
BRANCH  17  23
ATOM     23  C   UNL     1      -3.527  -1.571  26.092  0.00  0.00    +0.124 C 
BRANCH  23  29
ATOM      4  O   UNL     1      -3.492  -3.792  25.088  0.00  0.00    -0.251 OA
ATOM     29  C   UNL     1      -3.876  -2.633  25.085  0.00  0.00    +0.305 C 
BRANCH  29   3
ATOM      3  O   UNL     1      -4.701  -2.114  24.140  0.00  0.00    -0.481 OA
ATOM     37  H   UNL     1      -4.429  -2.372  23.234  0.00  0.00    +0.295 HD
ENDBRANCH  29   3
ENDBRANCH  23  29
ENDBRANCH  17  23
BRANCH  26  30
ATOM     30  C   UNL     1       1.389   0.556  22.691  0.00  0.00    +0.324 C 
BRANCH  30   5
ATOM      5  O   UNL     1       2.683   1.095  22.571  0.00  0.00    -0.483 OA
BRANCH   5  31
ATOM     31  C   UNL     1       3.723   0.370  23.109  0.00  0.00    +0.121 A 
ATOM     32  C   UNL     1       3.554  -0.985  23.392  0.00  0.00    +0.045 A 
ATOM     33  C   UNL     1       4.943   0.991  23.374  0.00  0.00    +0.045 A 
ATOM     34  C   UNL     1       4.607  -1.720  23.939  0.00  0.00    +0.004 A 
ATOM     35  C   UNL     1       5.996   0.256  23.920  0.00  0.00    +0.004 A 
ATOM     36  C   UNL     1       5.828  -1.100  24.203  0.00  0.00    +0.000 A 
ENDBRANCH   5  31
ENDBRANCH  30   5
ENDBRANCH  26  30
TORSDOF 9
ENDMDL
MODEL 6
REMARK VINA RESULT:       7.1      1.959      6.058
REMARK  Name = 28959825
REMARK  9 active torsions:
REMARK  status: ('A' for Active; 'I' for Inactive)
REMARK    1  A    between atoms: O_3  and  C_29
REMARK    2  A    between atoms: O_5  and  C_30
REMARK    3  A    between atoms: O_5  and  C_31
REMARK    4  A    between atoms: N_6  and  C_16
REMARK    5  A    between atoms: C_14  and  C_18
REMARK    6  A    between atoms: C_16  and  C_18
REMARK    7  A    between atoms: C_17  and  C_23
REMARK    8  A    between atoms: C_23  and  C_29
REMARK    9  A    between atoms: C_26  and  C_30
REMARK                            x       y       z     vdW  Elec       q    Type
REMARK                         _______ _______ _______ _____ _____    ______ ____
ROOT
ATOM      2  O   UNL     1      -0.574  -0.016  22.055  0.00  0.00    -0.272 OA
ATOM      8  N   UNL     1       0.094   1.796  23.347  0.00  0.00    -0.298 N 
ATOM     14  C   UNL     1       0.109   3.072  25.479  0.00  0.00    +0.011 C 
ATOM     17  C   UNL     1      -0.891   4.072  24.844  0.00  0.00    +0.006 C 
ATOM     20  C   UNL     1       0.948   2.401  24.377  0.00  0.00    +0.111 C 
ATOM     21  C   UNL     1      -1.729   3.410  23.737  0.00  0.00    +0.023 C 
ATOM     22  C   UNL     1      -0.838   2.723  22.704  0.00  0.00    +0.108 C 
ATOM     26  C   UNL     1       0.137   0.463  22.943  0.00  0.00    +0.253 C 
ENDROOT
BRANCH  14  18
ATOM     18  C   UNL     1      -0.553   2.009  26.365  0.00  0.00    +0.020 C 
BRANCH  18  16
ATOM     16  C   UNL     1      -0.582   0.649  25.672  0.00  0.00    +0.085 C 
BRANCH  16   6
ATOM      1  O   UNL     1      -6.402   1.134  27.614  0.00  0.00    -0.268 OA
ATOM      6  N   UNL     1      -1.962   0.219  25.459  0.00  0.00    -0.301 NA
ATOM      7  N   UNL     1      -5.128   0.451  25.771  0.00  0.00    -0.312 N 
ATOM      9  C   UNL     1      -3.628  -1.626  25.789  0.00  0.00    +0.024 C 
ATOM     10  C   UNL     1      -3.753  -0.235  23.776  0.00  0.00    +0.050 C 
ATOM     11  C   UNL     1      -3.914  -1.663  24.294  0.00  0.00    +0.017 C 
ATOM     12  C   UNL     1      -2.196  -1.108  26.041  0.00  0.00    +0.089 C 
ATOM     13  C   UNL     1      -2.306   0.246  24.029  0.00  0.00    +0.094 C 
ATOM     15  C   UNL     1      -4.695  -0.763  26.477  0.00  0.00    +0.130 C 
ATOM     19  C   UNL     1      -4.747   0.695  24.447  0.00  0.00    +0.026 A 
ATOM     24  C   UNL     1      -5.243   1.755  23.786  0.00  0.00    +0.022 A 
ATOM     25  C   UNL     1      -6.017   1.301  26.456  0.00  0.00    +0.251 A 
ATOM     27  C   UNL     1      -6.151   2.662  24.429  0.00  0.00    +0.007 A 
ATOM     28  C   UNL     1      -6.526   2.477  25.698  0.00  0.00    +0.070 A 
ENDBRANCH  16   6
ENDBRANCH  18  16
ENDBRANCH  14  18
BRANCH  17  23
ATOM     23  C   UNL     1      -1.796   4.752  25.871  0.00  0.00    +0.124 C 
BRANCH  23  29
ATOM      4  O   UNL     1      -3.956   4.693  24.746  0.00  0.00    -0.251 OA
ATOM     29  C   UNL     1      -3.238   4.371  25.679  0.00  0.00    +0.305 C 
BRANCH  29   3
ATOM      3  O   UNL     1      -3.649   3.597  26.716  0.00  0.00    -0.481 OA
ATOM     37  H   UNL     1      -3.084   2.803  26.826  0.00  0.00    +0.295 HD
ENDBRANCH  29   3
ENDBRANCH  23  29
ENDBRANCH  17  23
BRANCH  26  30
ATOM     30  C   UNL     1       1.123  -0.428  23.656  0.00  0.00    +0.324 C 
BRANCH  30   5
ATOM      5  O   UNL     1       2.154  -0.703  22.738  0.00  0.00    -0.483 OA
BRANCH   5  31
ATOM     31  C   UNL     1       3.447  -0.464  23.149  0.00  0.00    +0.121 A 
ATOM     32  C   UNL     1       4.171  -1.468  23.789  0.00  0.00    +0.045 A 
ATOM     33  C   UNL     1       4.029   0.784  22.928  0.00  0.00    +0.045 A 
ATOM     34  C   UNL     1       5.480  -1.225  24.207  0.00  0.00    +0.004 A 
ATOM     35  C   UNL     1       5.338   1.027  23.345  0.00  0.00    +0.004 A 
ATOM     36  C   UNL     1       6.064   0.022  23.986  0.00  0.00    +0.000 A 
ENDBRANCH   5  31
ENDBRANCH  30   5
ENDBRANCH  26  30
TORSDOF 9
ENDMDL
MODEL 7
REMARK VINA RESULT:       7.6      2.177      6.262
REMARK  Name = 28959825
REMARK  9 active torsions:
REMARK  status: ('A' for Active; 'I' for Inactive)
REMARK    1  A    between atoms: O_3  and  C_29
REMARK    2  A    between atoms: O_5  and  C_30
REMARK    3  A    between atoms: O_5  and  C_31
REMARK    4  A    between atoms: N_6  and  C_16
REMARK    5  A    between atoms: C_14  and  C_18
REMARK    6  A    between atoms: C_16  and  C_18
REMARK    7  A    between atoms: C_17  and  C_23
REMARK    8  A    between atoms: C_23  and  C_29
REMARK    9  A    between atoms: C_26  and  C_30
REMARK                            x       y       z     vdW  Elec       q    Type
REMARK                         _______ _______ _______ _____ _____    ______ ____
ROOT
ATOM      2  O   UNL     1      -0.077  -1.152  26.138  0.00  0.00    -0.272 OA
ATOM      8  N   UNL     1      -2.131  -1.378  25.076  0.00  0.00    -0.298 N 
ATOM     14  C   UNL     1      -3.896  -0.551  23.534  0.00  0.00    +0.011 C 
ATOM     17  C   UNL     1      -4.737  -0.151  24.772  0.00  0.00    +0.006 C 
ATOM     20  C   UNL     1      -2.945  -1.706  23.899  0.00  0.00    +0.111 C 
ATOM     21  C   UNL     1      -3.848   0.136  25.994  0.00  0.00    +0.023 C 
ATOM     22  C   UNL     1      -2.897  -1.027  26.272  0.00  0.00    +0.108 C 
ATOM     26  C   UNL     1      -0.738  -1.407  25.128  0.00  0.00    +0.253 C 
ENDROOT
BRANCH  14  18
ATOM     18  C   UNL     1      -3.107   0.610  22.915  0.00  0.00    +0.020 C 
BRANCH  18  16
ATOM     16  C   UNL     1      -3.828   1.940  23.118  0.00  0.00    +0.085 C 
BRANCH  16   6
ATOM      1  O   UNL     1      -2.218   3.608  28.819  0.00  0.00    -0.268 OA
ATOM      6  N   UNL     1      -3.007   2.843  23.922  0.00  0.00    -0.301 NA
ATOM      7  N   UNL     1      -1.528   3.780  26.588  0.00  0.00    -0.312 N 
ATOM      9  C   UNL     1      -2.773   5.168  24.832  0.00  0.00    +0.024 C 
ATOM     10  C   UNL     1      -0.767   3.917  24.192  0.00  0.00    +0.050 C 
ATOM     11  C   UNL     1      -1.401   5.305  24.184  0.00  0.00    +0.017 C 
ATOM     12  C   UNL     1      -3.636   4.165  24.037  0.00  0.00    +0.089 C 
ATOM     13  C   UNL     1      -1.645   2.943  23.374  0.00  0.00    +0.094 C 
ATOM     15  C   UNL     1      -2.589   4.753  26.298  0.00  0.00    +0.130 C 
ATOM     19  C   UNL     1      -0.594   3.413  25.613  0.00  0.00    +0.026 A 
ATOM     24  C   UNL     1       0.433   2.605  25.931  0.00  0.00    +0.022 A 
ATOM     25  C   UNL     1      -1.439   3.312  27.913  0.00  0.00    +0.251 A 
ATOM     27  C   UNL     1       0.578   2.091  27.263  0.00  0.00    +0.007 A 
ATOM     28  C   UNL     1      -0.302   2.402  28.220  0.00  0.00    +0.070 A 
ENDBRANCH  16   6
ENDBRANCH  18  16
ENDBRANCH  14  18
BRANCH  17  23
ATOM     23  C   UNL     1      -5.679   1.023  24.504  0.00  0.00    +0.124 C 
BRANCH  23  29
ATOM      4  O   UNL     1      -6.590   1.166  26.760  0.00  0.00    -0.251 OA
ATOM     29  C   UNL     1      -6.098   1.701  25.779  0.00  0.00    +0.305 C 
BRANCH  29   3
ATOM      3  O   UNL     1      -5.848   3.033  25.693  0.00  0.00    -0.481 OA
ATOM     37  H   UNL     1      -5.639   3.308  24.774  0.00  0.00    +0.295 HD
ENDBRANCH  29   3
ENDBRANCH  23  29
ENDBRANCH  17  23
BRANCH  26  30
ATOM     30  C   UNL     1      -0.022  -1.775  23.853  0.00  0.00    +0.324 C 
BRANCH  30   5
ATOM      5  O   UNL     1       0.424  -0.570  23.280  0.00  0.00    -0.483 OA
BRANCH   5  31
ATOM     31  C   UNL     1       1.783  -0.350  23.246  0.00  0.00    +0.121 A 
ATOM     32  C   UNL     1       2.662  -1.365  23.623  0.00  0.00    +0.045 A 
ATOM     33  C   UNL     1       2.279   0.888  22.840  0.00  0.00    +0.045 A 
ATOM     34  C   UNL     1       4.039  -1.141  23.591  0.00  0.00    +0.004 A 
ATOM     35  C   UNL     1       3.656   1.111  22.808  0.00  0.00    +0.004 A 
ATOM     36  C   UNL     1       4.536   0.096  23.184  0.00  0.00    +0.000 A 
ENDBRANCH   5  31
ENDBRANCH  30   5
ENDBRANCH  26  30
TORSDOF 9
ENDMDL
MODEL 8
REMARK VINA RESULT:       7.7      1.907      5.716
REMARK  Name = 28959825
REMARK  9 active torsions:
REMARK  status: ('A' for Active; 'I' for Inactive)
REMARK    1  A    between atoms: O_3  and  C_29
REMARK    2  A    between atoms: O_5  and  C_30
REMARK    3  A    between atoms: O_5  and  C_31
REMARK    4  A    between atoms: N_6  and  C_16
REMARK    5  A    between atoms: C_14  and  C_18
REMARK    6  A    between atoms: C_16  and  C_18
REMARK    7  A    between atoms: C_17  and  C_23
REMARK    8  A    between atoms: C_23  and  C_29
REMARK    9  A    between atoms: C_26  and  C_30
REMARK                            x       y       z     vdW  Elec       q    Type
REMARK                         _______ _______ _______ _____ _____    ______ ____
ROOT
ATOM      2  O   UNL     1       0.137  -1.371  26.246  0.00  0.00    -0.272 OA
ATOM      8  N   UNL     1      -1.770  -1.889  25.024  0.00  0.00    -0.298 N 
ATOM     14  C   UNL     1      -3.549  -1.292  23.395  0.00  0.00    +0.011 C 
ATOM     17  C   UNL     1      -4.528  -1.121  24.585  0.00  0.00    +0.006 C 
ATOM     20  C   UNL     1      -2.433  -2.282  23.774  0.00  0.00    +0.111 C 
ATOM     21  C   UNL     1      -3.786  -0.758  25.882  0.00  0.00    +0.023 C 
ATOM     22  C   UNL     1      -2.663  -1.751  26.174  0.00  0.00    +0.108 C 
ATOM     26  C   UNL     1      -0.400  -1.677  25.179  0.00  0.00    +0.253 C 
ENDROOT
BRANCH  14  18
ATOM     18  C   UNL     1      -2.942   0.026  22.894  0.00  0.00    +0.020 C 
BRANCH  18  16
ATOM     16  C   UNL     1      -1.563   0.267  23.501  0.00  0.00    +0.085 C 
BRANCH  16   6
ATOM      1  O   UNL     1      -3.992   5.922  23.457  0.00  0.00    -0.268 OA
ATOM      6  N   UNL     1      -1.484   1.615  24.058  0.00  0.00    -0.301 NA
ATOM      7  N   UNL     1      -2.619   4.519  24.734  0.00  0.00    -0.312 N 
ATOM      9  C   UNL     1      -0.268   3.807  24.006  0.00  0.00    +0.024 C 
ATOM     10  C   UNL     1      -1.184   2.988  26.125  0.00  0.00    +0.050 C 
ATOM     11  C   UNL     1       0.005   3.714  25.502  0.00  0.00    +0.017 C 
ATOM     12  C   UNL     1      -0.423   2.393  23.408  0.00  0.00    +0.089 C 
ATOM     13  C   UNL     1      -1.300   1.571  25.517  0.00  0.00    +0.094 C 
ATOM     15  C   UNL     1      -1.511   4.680  23.783  0.00  0.00    +0.130 C 
ATOM     19  C   UNL     1      -2.467   3.768  25.905  0.00  0.00    +0.026 A 
ATOM     24  C   UNL     1      -3.457   3.724  26.813  0.00  0.00    +0.022 A 
ATOM     25  C   UNL     1      -3.801   5.232  24.459  0.00  0.00    +0.251 A 
ATOM     27  C   UNL     1      -4.689   4.425  26.590  0.00  0.00    +0.007 A 
ATOM     28  C   UNL     1      -4.883   5.140  25.478  0.00  0.00    +0.070 A 
ENDBRANCH  16   6
ENDBRANCH  18  16
ENDBRANCH  14  18
BRANCH  17  23
ATOM     23  C   UNL     1      -5.645  -0.116  24.303  0.00  0.00    +0.124 C 
BRANCH  23  29
ATOM      4  O   UNL     1      -5.797   1.518  26.104  0.00  0.00    -0.251 OA
ATOM     29  C   UNL     1      -5.399   1.196  24.996  0.00  0.00    +0.305 C 
BRANCH  29   3
ATOM      3  O   UNL     1      -4.650   2.001  24.199  0.00  0.00    -0.481 OA
ATOM     37  H   UNL     1      -3.772   1.609  24.004  0.00  0.00    +0.295 HD
ENDBRANCH  29   3
ENDBRANCH  23  29
ENDBRANCH  17  23
BRANCH  26  30
ATOM     30  C   UNL     1       0.452  -1.835  23.945  0.00  0.00    +0.324 C 
BRANCH  30   5
ATOM      5  O   UNL     1       0.902  -0.548  23.599  0.00  0.00    -0.483 OA
BRANCH   5  31
ATOM     31  C   UNL     1       2.260  -0.370  23.453  0.00  0.00    +0.121 A 
ATOM     32  C   UNL     1       3.141  -1.374  23.855  0.00  0.00    +0.045 A 
ATOM     33  C   UNL     1       2.754   0.814  22.909  0.00  0.00    +0.045 A 
ATOM     34  C   UNL     1       4.516  -1.194  23.710  0.00  0.00    +0.004 A 
ATOM     35  C   UNL     1       4.130   0.994  22.763  0.00  0.00    +0.004 A 
ATOM     36  C   UNL     1       5.012  -0.010  23.164  0.00  0.00    +0.000 A 
ENDBRANCH   5  31
ENDBRANCH  30   5
ENDBRANCH  26  30
TORSDOF 9
ENDMDL
MODEL 9
REMARK VINA RESULT:       8.0      1.980      5.589
REMARK  Name = 28959825
REMARK  9 active torsions:
REMARK  status: ('A' for Active; 'I' for Inactive)
REMARK    1  A    between atoms: O_3  and  C_29
REMARK    2  A    between atoms: O_5  and  C_30
REMARK    3  A    between atoms: O_5  and  C_31
REMARK    4  A    between atoms: N_6  and  C_16
REMARK    5  A    between atoms: C_14  and  C_18
REMARK    6  A    between atoms: C_16  and  C_18
REMARK    7  A    between atoms: C_17  and  C_23
REMARK    8  A    between atoms: C_23  and  C_29
REMARK    9  A    between atoms: C_26  and  C_30
REMARK                            x       y       z     vdW  Elec       q    Type
REMARK                         _______ _______ _______ _____ _____    ______ ____
ROOT
ATOM      2  O   UNL     1       1.326   2.387  24.374  0.00  0.00    -0.272 OA
ATOM      8  N   UNL     1       0.348   0.319  24.776  0.00  0.00    -0.298 N 
ATOM     14  C   UNL     1      -1.435  -1.367  24.384  0.00  0.00    +0.011 C 
ATOM     17  C   UNL     1      -2.064  -0.962  25.742  0.00  0.00    +0.006 C 
ATOM     20  C   UNL     1       0.076  -1.074  24.401  0.00  0.00    +0.111 C 
ATOM     21  C   UNL     1      -1.714   0.487  26.119  0.00  0.00    +0.023 C 
ATOM     22  C   UNL     1      -0.206   0.723  26.069  0.00  0.00    +0.108 C 
ATOM     26  C   UNL     1       1.090   1.228  24.024  0.00  0.00    +0.253 C 
ENDROOT
BRANCH  14  18
ATOM     18  C   UNL     1      -2.093  -0.700  23.169  0.00  0.00    +0.020 C 
BRANCH  18  16
ATOM     16  C   UNL     1      -1.531   0.700  22.934  0.00  0.00    +0.085 C 
BRANCH  16   6
ATOM      1  O   UNL     1      -7.444   1.729  24.299  0.00  0.00    -0.268 OA
ATOM      6  N   UNL     1      -2.529   1.710  23.280  0.00  0.00    -0.301 NA
ATOM      7  N   UNL     1      -5.323   2.711  24.448  0.00  0.00    -0.312 N 
ATOM      9  C   UNL     1      -4.009   3.538  22.411  0.00  0.00    +0.024 C 
ATOM     10  C   UNL     1      -3.033   3.739  24.649  0.00  0.00    +0.050 C 
ATOM     11  C   UNL     1      -3.397   4.528  23.394  0.00  0.00    +0.017 C 
ATOM     12  C   UNL     1      -2.994   2.422  22.083  0.00  0.00    +0.089 C 
ATOM     13  C   UNL     1      -2.004   2.643  24.290  0.00  0.00    +0.094 C 
ATOM     15  C   UNL     1      -5.313   2.991  23.006  0.00  0.00    +0.130 C 
ATOM     19  C   UNL     1      -4.271   3.123  25.274  0.00  0.00    +0.026 A 
ATOM     24  C   UNL     1      -4.351   2.953  26.605  0.00  0.00    +0.022 A 
ATOM     25  C   UNL     1      -6.479   2.099  24.969  0.00  0.00    +0.251 A 
ATOM     27  C   UNL     1      -5.501   2.333  27.199  0.00  0.00    +0.007 A 
ATOM     28  C   UNL     1      -6.520   1.908  26.445  0.00  0.00    +0.070 A 
ENDBRANCH  16   6
ENDBRANCH  18  16
ENDBRANCH  14  18
BRANCH  17  23
ATOM     23  C   UNL     1      -3.576  -1.182  25.792  0.00  0.00    +0.124 C 
BRANCH  23  29
ATOM      4  O   UNL     1      -4.727  -1.989  23.801  0.00  0.00    -0.251 OA
ATOM     29  C   UNL     1      -4.024  -2.197  24.777  0.00  0.00    +0.305 C 
BRANCH  29   3
ATOM      3  O   UNL     1      -3.526  -3.418  25.101  0.00  0.00    -0.481 OA
ATOM     37  H   UNL     1      -4.234  -4.044  25.364  0.00  0.00    +0.295 HD
ENDBRANCH  29   3
ENDBRANCH  23  29
ENDBRANCH  17  23
BRANCH  26  30
ATOM     30  C   UNL     1       1.624   0.736  22.702  0.00  0.00    +0.324 C 
BRANCH  30   5
ATOM      5  O   UNL     1       2.955   1.183  22.614  0.00  0.00    -0.483 OA
BRANCH   5  31
ATOM     31  C   UNL     1       3.930   0.380  23.161  0.00  0.00    +0.121 A 
ATOM     32  C   UNL     1       3.677  -0.975  23.375  0.00  0.00    +0.045 A 
ATOM     33  C   UNL     1       5.168   0.921  23.505  0.00  0.00    +0.045 A 
ATOM     34  C   UNL     1       4.664  -1.789  23.932  0.00  0.00    +0.004 A 
ATOM     35  C   UNL     1       6.155   0.107  24.061  0.00  0.00    +0.004 A 
ATOM     36  C   UNL     1       5.903  -1.248  24.275  0.00  0.00    +0.000 A 
ENDBRANCH   5  31
ENDBRANCH  30   5
ENDBRANCH  26  30
TORSDOF 9
ENDMDL
MODEL 10
REMARK VINA RESULT:       8.1      1.867      5.719
REMARK  Name = 28959825
REMARK  9 active torsions:
REMARK  status: ('A' for Active; 'I' for Inactive)
REMARK    1  A    between atoms: O_3  and  C_29
REMARK    2  A    between atoms: O_5  and  C_30
REMARK    3  A    between atoms: O_5  and  C_31
REMARK    4  A    between atoms: N_6  and  C_16
REMARK    5  A    between atoms: C_14  and  C_18
REMARK    6  A    between atoms: C_16  and  C_18
REMARK    7  A    between atoms: C_17  and  C_23
REMARK    8  A    between atoms: C_23  and  C_29
REMARK    9  A    between atoms: C_26  and  C_30
REMARK                            x       y       z     vdW  Elec       q    Type
REMARK                         _______ _______ _______ _____ _____    ______ ____
ROOT
ATOM      2  O   UNL     1      -0.113  -3.952  24.907  0.00  0.00    -0.272 OA
ATOM      8  N   UNL     1      -1.280  -1.974  24.562  0.00  0.00    -0.298 N 
ATOM     14  C   UNL     1      -2.303   0.133  25.394  0.00  0.00    +0.011 C 
ATOM     17  C   UNL     1      -3.693  -0.543  25.284  0.00  0.00    +0.006 C 
ATOM     20  C   UNL     1      -1.326  -0.515  24.396  0.00  0.00    +0.111 C 
ATOM     21  C   UNL     1      -3.592  -2.072  25.414  0.00  0.00    +0.023 C 
ATOM     22  C   UNL     1      -2.573  -2.646  24.432  0.00  0.00    +0.108 C 
ATOM     26  C   UNL     1      -0.129  -2.724  24.797  0.00  0.00    +0.253 C 
ENDROOT
BRANCH  14  18
ATOM     18  C   UNL     1      -1.710   0.110  26.809  0.00  0.00    +0.020 C 
BRANCH  18  16
ATOM     16  C   UNL     1      -0.749   1.276  27.026  0.00  0.00    +0.085 C 
BRANCH  16   6
ATOM      1  O   UNL     1      -2.457   2.220  21.189  0.00  0.00    -0.268 OA
ATOM      6  N   UNL     1      -0.907   2.267  25.963  0.00  0.00    -0.301 NA
ATOM      7  N   UNL     1      -2.064   3.358  23.198  0.00  0.00    -0.312 N 
ATOM      9  C   UNL     1       0.267   3.639  24.223  0.00  0.00    +0.024 C 
ATOM     10  C   UNL     1      -1.686   4.567  25.374  0.00  0.00    +0.050 C 
ATOM     11  C   UNL     1      -0.310   4.918  24.814  0.00  0.00    +0.017 C 
ATOM     12  C   UNL     1       0.379   2.555  25.316  0.00  0.00    +0.089 C 
ATOM     13  C   UNL     1      -1.537   3.493  26.476  0.00  0.00    +0.094 C 
ATOM     15  C   UNL     1      -0.612   3.197  23.045  0.00  0.00    +0.130 C 
ATOM     19  C   UNL     1      -2.605   4.073  24.272  0.00  0.00    +0.026 A 
ATOM     24  C   UNL     1      -3.929   4.301  24.333  0.00  0.00    +0.022 A 
ATOM     25  C   UNL     1      -2.872   2.843  22.167  0.00  0.00    +0.251 A 
ATOM     27  C   UNL     1      -4.808   3.800  23.316  0.00  0.00    +0.007 A 
ATOM     28  C   UNL     1      -4.335   3.096  22.282  0.00  0.00    +0.070 A 
ENDBRANCH  16   6
ENDBRANCH  18  16
ENDBRANCH  14  18
BRANCH  17  23
ATOM     23  C   UNL     1      -4.713   0.015  26.277  0.00  0.00    +0.124 C 
BRANCH  23  29
ATOM      4  O   UNL     1      -5.827   2.183  26.278  0.00  0.00    -0.251 OA
ATOM     29  C   UNL     1      -5.481   1.169  25.693  0.00  0.00    +0.305 C 
BRANCH  29   3
ATOM      3  O   UNL     1      -5.749   0.924  24.384  0.00  0.00    -0.481 OA
ATOM     37  H   UNL     1      -6.564   1.381  24.086  0.00  0.00    +0.295 HD
ENDBRANCH  29   3
ENDBRANCH  23  29
ENDBRANCH  17  23
BRANCH  26  30
ATOM     30  C   UNL     1       1.164  -1.957  24.922  0.00  0.00    +0.324 C 
BRANCH  30   5
ATOM      5  O   UNL     1       1.426  -1.400  23.657  0.00  0.00    -0.483 OA
BRANCH   5  31
ATOM     31  C   UNL     1       2.643  -0.782  23.478  0.00  0.00    +0.121 A 
ATOM     32  C   UNL     1       3.816  -1.425  23.872  0.00  0.00    +0.045 A 
ATOM     33  C   UNL     1       2.702   0.488  22.906  0.00  0.00    +0.045 A 
ATOM     34  C   UNL     1       5.049  -0.798  23.692  0.00  0.00    +0.004 A 
ATOM     35  C   UNL     1       3.935   1.116  22.726  0.00  0.00    +0.004 A 
ATOM     36  C   UNL     1       5.109   0.473  23.120  0.00  0.00    +0.000 A 
ENDBRANCH   5  31
ENDBRANCH  30   5
ENDBRANCH  26  30
TORSDOF 9
ENDMDL
