MODEL 1
REMARK VINA RESULT:      -0.0      0.000      0.000
REMARK  Name = 51138033
REMARK  10 active torsions:
REMARK  status: ('A' for Active; 'I' for Inactive)
REMARK    1  A    between atoms: N_3  and  C_19
REMARK    2  A    between atoms: N_4  and  C_24
REMARK    3  A    between atoms: C_6  and  C_10
REMARK    4  A    between atoms: C_9  and  C_17
REMARK    5  A    between atoms: C_10  and  C_14
REMARK    6  A    between atoms: C_14  and  C_21
REMARK    7  A    between atoms: C_14  and  C_22
REMARK    8  A    between atoms: C_19  and  C_23
REMARK    9  A    between atoms: C_24  and  C_25
REMARK   10  A    between atoms: C_25  and  C_28
REMARK                            x       y       z     vdW  Elec       q    Type
REMARK                         _______ _______ _______ _____ _____    ______ ____
ROOT
ATOM      2  N   UNL     1      -2.941   1.591  25.188  0.00  0.00    -0.299 NA
ATOM      3  N   UNL     1       1.307   0.088  22.909  0.00  0.00    -0.342 N 
ATOM      6  C   UNL     1      -2.597   0.301  25.800  0.00  0.00    +0.085 C 
ATOM      7  C   UNL     1      -1.436  -0.459  25.150  0.00  0.00    -0.021 A 
ATOM      8  C   UNL     1      -0.480   0.109  24.259  0.00  0.00    +0.008 A 
ATOM      9  C   UNL     1      -1.897   2.601  25.270  0.00  0.00    +0.145 C 
ATOM     11  C   UNL     1      -0.270   1.427  23.726  0.00  0.00    -0.020 A 
ATOM     12  C   UNL     1      -1.071   2.660  23.986  0.00  0.00    +0.065 C 
ATOM     13  C   UNL     1       0.544  -0.694  23.743  0.00  0.00    +0.050 A 
ATOM     15  C   UNL     1       0.831   1.366  22.896  0.00  0.00    +0.091 A 
ATOM     16  C   UNL     1      -1.231  -1.817  25.505  0.00  0.00    +0.006 A 
ATOM     18  C   UNL     1       0.702  -2.043  24.069  0.00  0.00    +0.026 A 
ATOM     20  C   UNL     1      -0.200  -2.589  24.973  0.00  0.00    +0.002 A 
ATOM     31  H   UNL     1      -3.259   1.465  24.228  0.00  0.00    +0.123 HD
ENDROOT
BRANCH   9  17
ATOM      1  O   UNL     1      -2.030   4.935  25.752  0.00  0.00    -0.274 OA
ATOM      4  N   UNL     1      -3.985   3.771  25.256  0.00  0.00    -0.314 N 
ATOM     17  C   UNL     1      -2.620   3.901  25.448  0.00  0.00    +0.230 C 
ATOM     32  H   UNL     1      -4.375   2.868  25.003  0.00  0.00    +0.149 HD
BRANCH   4  24
ATOM     24  C   UNL     1      -4.911   4.872  25.392  0.00  0.00    +0.104 C 
BRANCH  24  25
ATOM     25  C   UNL     1      -6.318   4.408  25.747  0.00  0.00    +0.015 C 
ATOM     28  C   UNL     1      -6.435   2.892  25.824  0.00  0.00    +0.005 C 
ENDBRANCH  24  25
ENDBRANCH   4  24
ENDBRANCH   9  17
BRANCH   6  10
ATOM     10  C   UNL     1      -3.910  -0.501  25.783  0.00  0.00    +0.026 C 
BRANCH  10  14
ATOM     14  C   UNL     1      -4.462  -0.719  24.371  0.00  0.00    -0.015 C 
ATOM     21  C   UNL     1      -3.798   0.187  23.333  0.00  0.00    +0.007 C 
ATOM     22  C   UNL     1      -4.274  -2.184  23.975  0.00  0.00    +0.007 C 
ENDBRANCH  10  14
ENDBRANCH   6  10
BRANCH   3  19
ATOM     19  C   UNL     1       2.464  -0.356  22.162  0.00  0.00    +0.158 C 
BRANCH  19  23
ATOM      5  N   UNL     1       5.337  -1.459  24.373  0.00  0.00    -0.263 NA
ATOM     23  C   UNL     1       3.743  -0.314  22.962  0.00  0.00    -0.010 A 
ATOM     26  C   UNL     1       4.499   0.852  23.041  0.00  0.00    +0.008 A 
ATOM     27  C   UNL     1       4.202  -1.431  23.639  0.00  0.00    +0.116 A 
ATOM     29  C   UNL     1       5.673   0.862  23.787  0.00  0.00    +0.020 A 
ATOM     30  C   UNL     1       6.045  -0.309  24.428  0.00  0.00    +0.111 A 
ENDBRANCH  19  23
ENDBRANCH   3  19
TORSDOF 7
ENDMDL
MODEL 2
REMARK VINA RESULT:       0.8      1.564      2.351
REMARK  Name = 51138033
REMARK  10 active torsions:
REMARK  status: ('A' for Active; 'I' for Inactive)
REMARK    1  A    between atoms: N_3  and  C_19
REMARK    2  A    between atoms: N_4  and  C_24
REMARK    3  A    between atoms: C_6  and  C_10
REMARK    4  A    between atoms: C_9  and  C_17
REMARK    5  A    between atoms: C_10  and  C_14
REMARK    6  A    between atoms: C_14  and  C_21
REMARK    7  A    between atoms: C_14  and  C_22
REMARK    8  A    between atoms: C_19  and  C_23
REMARK    9  A    between atoms: C_24  and  C_25
REMARK   10  A    between atoms: C_25  and  C_28
REMARK                            x       y       z     vdW  Elec       q    Type
REMARK                         _______ _______ _______ _____ _____    ______ ____
ROOT
ATOM      2  N   UNL     1      -3.249   2.179  25.024  0.00  0.00    -0.299 NA
ATOM      3  N   UNL     1       0.724  -0.438  23.329  0.00  0.00    -0.342 N 
ATOM      6  C   UNL     1      -3.478   0.791  25.445  0.00  0.00    +0.085 C 
ATOM      7  C   UNL     1      -2.496  -0.247  24.892  0.00  0.00    -0.021 A 
ATOM      8  C   UNL     1      -1.230   0.050  24.309  0.00  0.00    +0.008 A 
ATOM      9  C   UNL     1      -1.990   2.753  25.476  0.00  0.00    +0.145 C 
ATOM     11  C   UNL     1      -0.500   1.266  24.071  0.00  0.00    -0.020 A 
ATOM     12  C   UNL     1      -0.912   2.662  24.397  0.00  0.00    +0.065 C 
ATOM     13  C   UNL     1      -0.418  -0.995  23.854  0.00  0.00    +0.050 A 
ATOM     15  C   UNL     1       0.688   0.919  23.459  0.00  0.00    +0.091 A 
ATOM     16  C   UNL     1      -2.814  -1.622  25.028  0.00  0.00    +0.006 A 
ATOM     18  C   UNL     1      -0.771  -2.343  23.954  0.00  0.00    +0.026 A 
ATOM     20  C   UNL     1      -1.982  -2.639  24.564  0.00  0.00    +0.002 A 
ATOM     31  H   UNL     1      -3.357   2.275  24.015  0.00  0.00    +0.123 HD
ENDROOT
BRANCH   9  17
ATOM      1  O   UNL     1      -3.103   4.535  26.608  0.00  0.00    -0.274 OA
ATOM      4  N   UNL     1      -1.580   5.045  24.923  0.00  0.00    -0.314 N 
ATOM     17  C   UNL     1      -2.292   4.194  25.750  0.00  0.00    +0.230 C 
ATOM     32  H   UNL     1      -0.928   4.661  24.245  0.00  0.00    +0.149 HD
BRANCH   4  24
ATOM     24  C   UNL     1      -1.707   6.483  24.970  0.00  0.00    +0.104 C 
BRANCH  24  25
ATOM     25  C   UNL     1      -2.543   7.031  23.818  0.00  0.00    +0.015 C 
ATOM     28  C   UNL     1      -3.612   6.053  23.351  0.00  0.00    +0.005 C 
ENDBRANCH  24  25
ENDBRANCH   4  24
ENDBRANCH   9  17
BRANCH   6  10
ATOM     10  C   UNL     1      -4.935   0.497  25.044  0.00  0.00    +0.026 C 
BRANCH  10  14
ATOM     14  C   UNL     1      -5.839   1.730  25.125  0.00  0.00    -0.015 C 
ATOM     21  C   UNL     1      -7.077   1.613  24.234  0.00  0.00    +0.007 C 
ATOM     22  C   UNL     1      -6.267   1.948  26.578  0.00  0.00    +0.007 C 
ENDBRANCH  10  14
ENDBRANCH   6  10
BRANCH   3  19
ATOM     19  C   UNL     1       1.824  -1.169  22.739  0.00  0.00    +0.158 C 
BRANCH  19  23
ATOM      5  N   UNL     1       4.734   1.231  23.097  0.00  0.00    -0.263 NA
ATOM     23  C   UNL     1       3.178  -0.619  23.116  0.00  0.00    -0.010 A 
ATOM     26  C   UNL     1       4.103  -1.400  23.801  0.00  0.00    +0.008 A 
ATOM     27  C   UNL     1       3.539   0.678  22.791  0.00  0.00    +0.116 A 
ATOM     29  C   UNL     1       5.343  -0.866  24.134  0.00  0.00    +0.020 A 
ATOM     30  C   UNL     1       5.607   0.442  23.762  0.00  0.00    +0.111 A 
ENDBRANCH  19  23
ENDBRANCH   3  19
TORSDOF 7
ENDMDL
MODEL 3
REMARK VINA RESULT:       2.6      2.141      7.603
REMARK  Name = 51138033
REMARK  10 active torsions:
REMARK  status: ('A' for Active; 'I' for Inactive)
REMARK    1  A    between atoms: N_3  and  C_19
REMARK    2  A    between atoms: N_4  and  C_24
REMARK    3  A    between atoms: C_6  and  C_10
REMARK    4  A    between atoms: C_9  and  C_17
REMARK    5  A    between atoms: C_10  and  C_14
REMARK    6  A    between atoms: C_14  and  C_21
REMARK    7  A    between atoms: C_14  and  C_22
REMARK    8  A    between atoms: C_19  and  C_23
REMARK    9  A    between atoms: C_24  and  C_25
REMARK   10  A    between atoms: C_25  and  C_28
REMARK                            x       y       z     vdW  Elec       q    Type
REMARK                         _______ _______ _______ _____ _____    ______ ____
ROOT
ATOM      2  N   UNL     1       0.443  -0.915  23.917  0.00  0.00    -0.299 NA
ATOM      3  N   UNL     1      -1.917   3.486  24.672  0.00  0.00    -0.342 N 
ATOM      6  C   UNL     1      -0.952  -1.138  23.516  0.00  0.00    +0.085 C 
ATOM      7  C   UNL     1      -1.928   0.003  23.823  0.00  0.00    -0.021 A 
ATOM      8  C   UNL     1      -1.551   1.342  24.136  0.00  0.00    +0.008 A 
ATOM      9  C   UNL     1       1.107   0.181  23.226  0.00  0.00    +0.145 C 
ATOM     11  C   UNL     1      -0.292   2.026  24.248  0.00  0.00    -0.020 A 
ATOM     12  C   UNL     1       1.077   1.465  24.052  0.00  0.00    +0.065 C 
ATOM     13  C   UNL     1      -2.544   2.297  24.383  0.00  0.00    +0.050 A 
ATOM     15  C   UNL     1      -0.564   3.336  24.587  0.00  0.00    +0.091 A 
ATOM     16  C   UNL     1      -3.319  -0.248  23.721  0.00  0.00    +0.006 A 
ATOM     18  C   UNL     1      -3.911   2.018  24.323  0.00  0.00    +0.026 A 
ATOM     20  C   UNL     1      -4.283   0.727  23.973  0.00  0.00    +0.002 A 
ATOM     31  H   UNL     1       0.519  -0.814  24.928  0.00  0.00    +0.123 HD
ENDROOT
BRANCH   9  17
ATOM      1  O   UNL     1       2.854  -1.443  23.166  0.00  0.00    -0.274 OA
ATOM      4  N   UNL     1       3.382   0.795  22.805  0.00  0.00    -0.314 N 
ATOM     17  C   UNL     1       2.528  -0.264  23.059  0.00  0.00    +0.230 C 
ATOM     32  H   UNL     1       3.010   1.737  22.733  0.00  0.00    +0.149 HD
BRANCH   4  24
ATOM     24  C   UNL     1       4.807   0.637  22.628  0.00  0.00    +0.104 C 
BRANCH  24  25
ATOM     25  C   UNL     1       5.549   0.524  23.955  0.00  0.00    +0.015 C 
ATOM     28  C   UNL     1       5.783  -0.921  24.376  0.00  0.00    +0.005 C 
ENDBRANCH  24  25
ENDBRANCH   4  24
ENDBRANCH   9  17
BRANCH   6  10
ATOM     10  C   UNL     1      -1.350  -2.455  24.206  0.00  0.00    +0.026 C 
BRANCH  10  14
ATOM     14  C   UNL     1      -2.820  -2.488  24.635  0.00  0.00    -0.015 C 
ATOM     21  C   UNL     1      -3.577  -3.683  24.053  0.00  0.00    +0.007 C 
ATOM     22  C   UNL     1      -2.900  -2.520  26.163  0.00  0.00    +0.007 C 
ENDBRANCH  10  14
ENDBRANCH   6  10
BRANCH   3  19
ATOM     19  C   UNL     1      -2.578   4.730  24.998  0.00  0.00    +0.158 C 
BRANCH  19  23
ATOM      5  N   UNL     1      -5.700   3.389  26.676  0.00  0.00    -0.263 NA
ATOM     23  C   UNL     1      -4.029   4.555  25.374  0.00  0.00    -0.010 A 
ATOM     26  C   UNL     1      -5.018   5.349  24.803  0.00  0.00    +0.008 A 
ATOM     27  C   UNL     1      -4.419   3.598  26.297  0.00  0.00    +0.116 A 
ATOM     29  C   UNL     1      -6.347   5.164  25.168  0.00  0.00    +0.020 A 
ATOM     30  C   UNL     1      -6.633   4.179  26.100  0.00  0.00    +0.111 A 
ENDBRANCH  19  23
ENDBRANCH   3  19
TORSDOF 7
ENDMDL
MODEL 4
REMARK VINA RESULT:       3.4      1.925      4.539
REMARK  Name = 51138033
REMARK  10 active torsions:
REMARK  status: ('A' for Active; 'I' for Inactive)
REMARK    1  A    between atoms: N_3  and  C_19
REMARK    2  A    between atoms: N_4  and  C_24
REMARK    3  A    between atoms: C_6  and  C_10
REMARK    4  A    between atoms: C_9  and  C_17
REMARK    5  A    between atoms: C_10  and  C_14
REMARK    6  A    between atoms: C_14  and  C_21
REMARK    7  A    between atoms: C_14  and  C_22
REMARK    8  A    between atoms: C_19  and  C_23
REMARK    9  A    between atoms: C_24  and  C_25
REMARK   10  A    between atoms: C_25  and  C_28
REMARK                            x       y       z     vdW  Elec       q    Type
REMARK                         _______ _______ _______ _____ _____    ______ ____
ROOT
ATOM      2  N   UNL     1      -3.561   1.352  25.151  0.00  0.00    -0.299 NA
ATOM      3  N   UNL     1       1.160   1.987  23.474  0.00  0.00    -0.342 N 
ATOM      6  C   UNL     1      -3.394   2.800  24.973  0.00  0.00    +0.085 C 
ATOM      7  C   UNL     1      -1.975   3.274  24.642  0.00  0.00    -0.021 A 
ATOM      8  C   UNL     1      -0.920   2.440  24.171  0.00  0.00    +0.008 A 
ATOM      9  C   UNL     1      -3.298   0.558  23.959  0.00  0.00    +0.145 C 
ATOM     11  C   UNL     1      -0.815   1.040  23.861  0.00  0.00    -0.020 A 
ATOM     12  C   UNL     1      -1.878  -0.004  23.961  0.00  0.00    +0.065 C 
ATOM     13  C   UNL     1       0.330   3.002  23.890  0.00  0.00    +0.050 A 
ATOM     15  C   UNL     1       0.480   0.806  23.446  0.00  0.00    +0.091 A 
ATOM     16  C   UNL     1      -1.685   4.659  24.730  0.00  0.00    +0.006 A 
ATOM     18  C   UNL     1       0.610   4.363  24.028  0.00  0.00    +0.026 A 
ATOM     20  C   UNL     1      -0.428   5.187  24.442  0.00  0.00    +0.002 A 
ATOM     31  H   UNL     1      -3.016   1.017  25.945  0.00  0.00    +0.123 HD
ENDROOT
BRANCH   9  17
ATOM      1  O   UNL     1      -5.379  -0.453  24.545  0.00  0.00    -0.274 OA
ATOM      4  N   UNL     1      -3.771  -1.733  23.451  0.00  0.00    -0.314 N 
ATOM     17  C   UNL     1      -4.275  -0.576  24.020  0.00  0.00    +0.230 C 
ATOM     32  H   UNL     1      -2.843  -1.730  23.039  0.00  0.00    +0.149 HD
BRANCH   4  24
ATOM     24  C   UNL     1      -4.507  -2.975  23.402  0.00  0.00    +0.104 C 
BRANCH  24  25
ATOM     25  C   UNL     1      -4.018  -3.982  24.438  0.00  0.00    +0.015 C 
ATOM     28  C   UNL     1      -3.073  -3.363  25.458  0.00  0.00    +0.005 C 
ENDBRANCH  24  25
ENDBRANCH   4  24
ENDBRANCH   9  17
BRANCH   6  10
ATOM     10  C   UNL     1      -3.933   3.417  26.276  0.00  0.00    +0.026 C 
BRANCH  10  14
ATOM     14  C   UNL     1      -5.453   3.604  26.266  0.00  0.00    -0.015 C 
ATOM     21  C   UNL     1      -5.895   4.798  25.418  0.00  0.00    +0.007 C 
ATOM     22  C   UNL     1      -6.117   2.327  25.747  0.00  0.00    +0.007 C 
ENDBRANCH  10  14
ENDBRANCH   6  10
BRANCH   3  19
ATOM     19  C   UNL     1       2.548   2.136  23.094  0.00  0.00    +0.158 C 
BRANCH  19  23
ATOM      5  N   UNL     1       3.446  -1.521  23.516  0.00  0.00    -0.263 NA
ATOM     23  C   UNL     1       3.365   0.887  23.315  0.00  0.00    -0.010 A 
ATOM     26  C   UNL     1       4.739   0.958  23.519  0.00  0.00    +0.008 A 
ATOM     27  C   UNL     1       2.772  -0.364  23.322  0.00  0.00    +0.116 A 
ATOM     29  C   UNL     1       5.467  -0.210  23.722  0.00  0.00    +0.020 A 
ATOM     30  C   UNL     1       4.779  -1.413  23.711  0.00  0.00    +0.111 A 
ENDBRANCH  19  23
ENDBRANCH   3  19
TORSDOF 7
ENDMDL
