MODEL 1
REMARK VINA RESULT:       0.0      0.000      0.000
REMARK  Name = 45783667
REMARK  6 active torsions:
REMARK  status: ('A' for Active; 'I' for Inactive)
REMARK    1  A    between atoms: N_4  and  C_15
REMARK    2  A    between atoms: N_7  and  C_24
REMARK    3  A    between atoms: N_9  and  C_28
REMARK    4  A    between atoms: C_11  and  C_16
REMARK    5  A    between atoms: C_15  and  C_17
REMARK    6  A    between atoms: C_20  and  C_23
REMARK                            x       y       z     vdW  Elec       q    Type
REMARK                         _______ _______ _______ _____ _____    ______ ____
ROOT
ATOM      1  O   UNL     1      -3.489   2.643  22.254  0.00  0.00    -0.336 OA
ATOM      5  N   UNL     1      -2.471   1.924  24.115  0.00  0.00    -0.190 NA
ATOM      6  N   UNL     1      -2.203   2.248  21.866  0.00  0.00    -0.056 NA
ATOM     16  C   UNL     1      -3.564   2.419  23.593  0.00  0.00    +0.245 A 
ATOM     20  C   UNL     1      -1.663   1.837  23.018  0.00  0.00    +0.204 A 
ENDROOT
BRANCH  20  23
ATOM      8  N   UNL     1       1.960   1.663  23.834  0.00  0.00    -0.237 NA
ATOM     23  C   UNL     1      -0.322   1.335  23.107  0.00  0.00    +0.041 A 
ATOM     25  C   UNL     1       0.015   0.094  22.580  0.00  0.00    +0.017 A 
ATOM     26  C   UNL     1       0.678   2.074  23.719  0.00  0.00    +0.124 A 
ATOM     27  C   UNL     1       1.324  -0.364  22.681  0.00  0.00    +0.047 A 
ATOM     28  C   UNL     1       2.251   0.450  23.311  0.00  0.00    +0.139 A 
BRANCH  28   9
ATOM      9  N   UNL     1       3.557  -0.002  23.413  0.00  0.00    -0.290 N 
ATOM     10  N   UNL     1       5.260  -1.372  23.811  0.00  0.00    -0.244 NA
ATOM     29  C   UNL     1       4.687   0.712  23.128  0.00  0.00    +0.114 A 
ATOM     30  C   UNL     1       3.951  -1.247  23.819  0.00  0.00    +0.205 A 
ATOM     31  C   UNL     1       5.724  -0.153  23.380  0.00  0.00    +0.130 A 
ENDBRANCH  28   9
ENDBRANCH  20  23
BRANCH  16  11
ATOM      4  N   UNL     1      -5.001   2.175  25.609  0.00  0.00    -0.287 NA
ATOM     11  C   UNL     1      -4.876   2.769  24.263  0.00  0.00    +0.146 C 
ATOM     12  C   UNL     1      -5.045   4.283  24.485  0.00  0.00    +0.030 C 
ATOM     13  C   UNL     1      -5.321   4.438  25.974  0.00  0.00    +0.017 C 
ATOM     14  C   UNL     1      -5.854   3.079  26.381  0.00  0.00    +0.085 C 
BRANCH   4  15
ATOM     15  C   UNL     1      -5.519   0.813  25.591  0.00  0.00    +0.120 C 
BRANCH  15  17
ATOM     17  C   UNL     1      -4.449  -0.189  25.252  0.00  0.00    -0.033 A 
ATOM     18  C   UNL     1      -3.331  -0.322  26.076  0.00  0.00    +0.007 A 
ATOM     19  C   UNL     1      -4.575  -0.985  24.115  0.00  0.00    +0.007 A 
ATOM     21  C   UNL     1      -2.339  -1.250  25.762  0.00  0.00    +0.033 A 
ATOM     22  C   UNL     1      -3.582  -1.914  23.800  0.00  0.00    +0.033 A 
ATOM     24  C   UNL     1      -2.464  -2.046  24.624  0.00  0.00    +0.126 A 
BRANCH  24   7
ATOM      2  O   UNL     1      -1.595  -3.710  23.285  0.00  0.00    -0.126 OA
ATOM      3  O   UNL     1      -0.449  -3.083  25.048  0.00  0.00    -0.126 OA
ATOM      7  N   UNL     1      -1.454  -2.991  24.303  0.00  0.00    +0.056 N 
ENDBRANCH  24   7
ENDBRANCH  15  17
ENDBRANCH   4  15
ENDBRANCH  16  11
TORSDOF 6
ENDMDL
