MODEL 1
REMARK VINA RESULT:       1.1      0.000      0.000
REMARK  Name = 28991064
REMARK  14 active torsions:
REMARK  status: ('A' for Active; 'I' for Inactive)
REMARK    1  A    between atoms: N_3  and  C_14
REMARK    2  A    between atoms: N_3  and  C_16
REMARK    3  A    between atoms: N_3  and  C_17
REMARK    4  A    between atoms: N_4  and  C_15
REMARK    5  A    between atoms: N_5  and  C_18
REMARK    6  A    between atoms: N_5  and  C_21
REMARK    7  A    between atoms: N_5  and  C_22
REMARK    8  A    between atoms: N_6  and  C_27
REMARK    9  A    between atoms: N_6  and  C_28
REMARK   10  A    between atoms: N_6  and  C_29
REMARK   11  A    between atoms: C_8  and  C_14
REMARK   12  A    between atoms: C_9  and  C_15
REMARK   13  A    between atoms: C_16  and  C_18
REMARK   14  A    between atoms: C_19  and  C_20
REMARK                            x       y       z     vdW  Elec       q    Type
REMARK                         _______ _______ _______ _____ _____    ______ ____
ROOT
ATOM      2  N   UNL     1      -2.762  -1.182  23.668  0.00  0.00    -0.298 NA
ATOM      7  C   UNL     1      -3.343  -1.112  26.202  0.00  0.00    -0.003 C 
ATOM      8  C   UNL     1      -4.415  -0.371  25.370  0.00  0.00    +0.020 C 
ATOM      9  C   UNL     1      -1.597  -0.677  24.444  0.00  0.00    +0.074 C 
ATOM     10  C   UNL     1      -1.963  -0.483  25.932  0.00  0.00    +0.024 C 
ATOM     11  C   UNL     1      -3.946  -0.319  23.899  0.00  0.00    +0.089 C 
ATOM     12  C   UNL     1      -3.294  -2.561  25.682  0.00  0.00    +0.019 C 
ATOM     13  C   UNL     1      -3.080  -2.545  24.158  0.00  0.00    +0.085 C 
ENDROOT
BRANCH   8  14
ATOM     14  C   UNL     1      -4.739   1.021  25.907  0.00  0.00    +0.089 C 
BRANCH  14   3
ATOM      3  N   UNL     1      -5.152   1.895  24.852  0.00  0.00    -0.304 NA
ATOM     17  C   UNL     1      -6.621   1.964  24.751  0.00  0.00    +0.104 C 
BRANCH   3  16
ATOM     16  C   UNL     1      -4.614   3.254  25.031  0.00  0.00    +0.099 C 
BRANCH  16  18
ATOM     18  C   UNL     1      -3.164   3.336  24.577  0.00  0.00    +0.099 C 
BRANCH  18   5
ATOM      5  N   UNL     1      -2.346   3.967  25.604  0.00  0.00    -0.307 NA
ATOM     21  C   UNL     1      -1.698   5.172  25.082  0.00  0.00    +0.104 C 
ATOM     22  C   UNL     1      -1.339   3.030  26.110  0.00  0.00    +0.104 C 
ENDBRANCH  18   5
ENDBRANCH  16  18
ENDBRANCH   3  16
ENDBRANCH  14   3
ENDBRANCH   8  14
BRANCH   9  15
ATOM     15  C   UNL     1      -0.998   0.594  23.835  0.00  0.00    +0.123 C 
BRANCH  15   4
ATOM      1  O   UNL     1       0.641  -0.594  21.799  0.00  0.00    -0.270 OA
ATOM      4  N   UNL     1       0.431   0.527  23.821  0.00  0.00    -0.310 N 
ATOM     19  C   UNL     1       1.150  -0.072  22.787  0.00  0.00    +0.244 C 
ATOM     30  H   UNL     1       0.912   0.886  24.637  0.00  0.00    +0.149 HD
BRANCH  19  20
ATOM     20  C   UNL     1       2.628  -0.082  22.932  0.00  0.00    +0.037 A 
ATOM     23  C   UNL     1       3.269  -1.196  23.474  0.00  0.00    +0.015 A 
ATOM     24  C   UNL     1       3.377   1.022  22.525  0.00  0.00    +0.015 A 
ATOM     25  C   UNL     1       4.657  -1.206  23.611  0.00  0.00    +0.024 A 
ATOM     26  C   UNL     1       4.765   1.013  22.661  0.00  0.00    +0.024 A 
ATOM     27  C   UNL     1       5.405  -0.100  23.203  0.00  0.00    +0.029 A 
BRANCH  27   6
ATOM      6  N   UNL     1       6.809  -0.109  23.342  0.00  0.00    -0.336 N 
ATOM     28  C   UNL     1       7.471   0.882  24.166  0.00  0.00    +0.129 C 
ATOM     29  C   UNL     1       7.606  -1.115  22.669  0.00  0.00    +0.129 C 
ENDBRANCH  27   6
ENDBRANCH  19  20
ENDBRANCH  15   4
ENDBRANCH   9  15
TORSDOF 9
ENDMDL
MODEL 2
REMARK VINA RESULT:       1.8      1.001      3.799
REMARK  Name = 28991064
REMARK  14 active torsions:
REMARK  status: ('A' for Active; 'I' for Inactive)
REMARK    1  A    between atoms: N_3  and  C_14
REMARK    2  A    between atoms: N_3  and  C_16
REMARK    3  A    between atoms: N_3  and  C_17
REMARK    4  A    between atoms: N_4  and  C_15
REMARK    5  A    between atoms: N_5  and  C_18
REMARK    6  A    between atoms: N_5  and  C_21
REMARK    7  A    between atoms: N_5  and  C_22
REMARK    8  A    between atoms: N_6  and  C_27
REMARK    9  A    between atoms: N_6  and  C_28
REMARK   10  A    between atoms: N_6  and  C_29
REMARK   11  A    between atoms: C_8  and  C_14
REMARK   12  A    between atoms: C_9  and  C_15
REMARK   13  A    between atoms: C_16  and  C_18
REMARK   14  A    between atoms: C_19  and  C_20
REMARK                            x       y       z     vdW  Elec       q    Type
REMARK                         _______ _______ _______ _____ _____    ______ ____
ROOT
ATOM      2  N   UNL     1      -1.635   3.431  25.539  0.00  0.00    -0.298 NA
ATOM      7  C   UNL     1      -3.373   4.090  23.719  0.00  0.00    -0.003 C 
ATOM      8  C   UNL     1      -4.076   3.517  24.971  0.00  0.00    +0.020 C 
ATOM      9  C   UNL     1      -1.275   2.803  24.239  0.00  0.00    +0.074 C 
ATOM     10  C   UNL     1      -2.370   3.055  23.178  0.00  0.00    +0.024 C 
ATOM     11  C   UNL     1      -2.995   3.011  25.954  0.00  0.00    +0.089 C 
ATOM     12  C   UNL     1      -2.560   5.315  24.182  0.00  0.00    +0.019 C 
ATOM     13  C   UNL     1      -1.643   4.902  25.347  0.00  0.00    +0.085 C 
ENDROOT
BRANCH   8  14
ATOM     14  C   UNL     1      -5.094   2.428  24.645  0.00  0.00    +0.089 C 
BRANCH  14   3
ATOM      3  N   UNL     1      -4.985   1.332  25.559  0.00  0.00    -0.304 NA
ATOM     17  C   UNL     1      -6.229   1.141  26.326  0.00  0.00    +0.104 C 
BRANCH   3  16
ATOM     16  C   UNL     1      -4.645   0.079  24.865  0.00  0.00    +0.099 C 
BRANCH  16  18
ATOM     18  C   UNL     1      -3.626  -0.730  25.654  0.00  0.00    +0.099 C 
BRANCH  18   5
ATOM      5  N   UNL     1      -3.399  -2.020  25.017  0.00  0.00    -0.307 NA
ATOM     21  C   UNL     1      -1.989  -2.179  24.657  0.00  0.00    +0.104 C 
ATOM     22  C   UNL     1      -4.244  -2.165  23.829  0.00  0.00    +0.104 C 
ENDBRANCH  18   5
ENDBRANCH  16  18
ENDBRANCH   3  16
ENDBRANCH  14   3
ENDBRANCH   8  14
BRANCH   9  15
ATOM     15  C   UNL     1      -0.953   1.313  24.381  0.00  0.00    +0.123 C 
BRANCH  15   4
ATOM      1  O   UNL     1       0.295  -0.344  22.395  0.00  0.00    -0.270 OA
ATOM      4  N   UNL     1       0.450   1.078  24.223  0.00  0.00    -0.310 N 
ATOM     19  C   UNL     1       0.972   0.255  23.227  0.00  0.00    +0.244 C 
ATOM     30  H   UNL     1       1.062   1.496  24.914  0.00  0.00    +0.149 HD
BRANCH  19  20
ATOM     20  C   UNL     1       2.448   0.094  23.211  0.00  0.00    +0.037 A 
ATOM     23  C   UNL     1       3.026  -1.101  23.639  0.00  0.00    +0.015 A 
ATOM     24  C   UNL     1       3.259   1.139  22.767  0.00  0.00    +0.015 A 
ATOM     25  C   UNL     1       4.412  -1.252  23.624  0.00  0.00    +0.024 A 
ATOM     26  C   UNL     1       4.646   0.989  22.752  0.00  0.00    +0.024 A 
ATOM     27  C   UNL     1       5.222  -0.206  23.180  0.00  0.00    +0.029 A 
BRANCH  27   6
ATOM      6  N   UNL     1       6.625  -0.357  23.165  0.00  0.00    -0.336 N 
ATOM     28  C   UNL     1       7.470   0.566  23.895  0.00  0.00    +0.129 C 
ATOM     29  C   UNL     1       7.237  -1.445  22.429  0.00  0.00    +0.129 C 
ENDBRANCH  27   6
ENDBRANCH  19  20
ENDBRANCH  15   4
ENDBRANCH   9  15
TORSDOF 9
ENDMDL
MODEL 3
REMARK VINA RESULT:       2.0      2.304      4.821
REMARK  Name = 28991064
REMARK  14 active torsions:
REMARK  status: ('A' for Active; 'I' for Inactive)
REMARK    1  A    between atoms: N_3  and  C_14
REMARK    2  A    between atoms: N_3  and  C_16
REMARK    3  A    between atoms: N_3  and  C_17
REMARK    4  A    between atoms: N_4  and  C_15
REMARK    5  A    between atoms: N_5  and  C_18
REMARK    6  A    between atoms: N_5  and  C_21
REMARK    7  A    between atoms: N_5  and  C_22
REMARK    8  A    between atoms: N_6  and  C_27
REMARK    9  A    between atoms: N_6  and  C_28
REMARK   10  A    between atoms: N_6  and  C_29
REMARK   11  A    between atoms: C_8  and  C_14
REMARK   12  A    between atoms: C_9  and  C_15
REMARK   13  A    between atoms: C_16  and  C_18
REMARK   14  A    between atoms: C_19  and  C_20
REMARK                            x       y       z     vdW  Elec       q    Type
REMARK                         _______ _______ _______ _____ _____    ______ ____
ROOT
ATOM      2  N   UNL     1      -4.430   2.830  23.764  0.00  0.00    -0.298 NA
ATOM      7  C   UNL     1      -4.201   3.725  26.196  0.00  0.00    -0.003 C 
ATOM      8  C   UNL     1      -2.824   3.670  25.496  0.00  0.00    +0.020 C 
ATOM      9  C   UNL     1      -5.088   1.894  24.716  0.00  0.00    +0.074 C 
ATOM     10  C   UNL     1      -4.838   2.323  26.179  0.00  0.00    +0.024 C 
ATOM     11  C   UNL     1      -2.999   2.999  24.115  0.00  0.00    +0.089 C 
ATOM     12  C   UNL     1      -5.099   4.645  25.347  0.00  0.00    +0.019 C 
ATOM     13  C   UNL     1      -5.096   4.150  23.890  0.00  0.00    +0.085 C 
ENDROOT
BRANCH   8  14
ATOM     14  C   UNL     1      -1.752   2.971  26.329  0.00  0.00    +0.089 C 
BRANCH  14   3
ATOM      3  N   UNL     1      -0.512   2.904  25.618  0.00  0.00    -0.304 NA
ATOM     17  C   UNL     1      -0.172   4.197  24.998  0.00  0.00    +0.104 C 
BRANCH   3  16
ATOM     16  C   UNL     1       0.594   2.481  26.495  0.00  0.00    +0.099 C 
BRANCH  16  18
ATOM     18  C   UNL     1       0.249   2.699  27.961  0.00  0.00    +0.099 C 
BRANCH  18   5
ATOM      5  N   UNL     1       1.363   2.295  28.809  0.00  0.00    -0.307 NA
ATOM     21  C   UNL     1       1.011   2.430  30.224  0.00  0.00    +0.104 C 
ATOM     22  C   UNL     1       2.557   3.087  28.506  0.00  0.00    +0.104 C 
ENDBRANCH  18   5
ENDBRANCH  16  18
ENDBRANCH   3  16
ENDBRANCH  14   3
ENDBRANCH   8  14
BRANCH   9  15
ATOM     15  C   UNL     1      -4.684   0.437  24.473  0.00  0.00    +0.123 C 
BRANCH  15   4
ATOM      1  O   UNL     1      -2.768  -1.332  25.674  0.00  0.00    -0.270 OA
ATOM      4  N   UNL     1      -3.293   0.341  24.153  0.00  0.00    -0.310 N 
ATOM     19  C   UNL     1      -2.430  -0.550  24.789  0.00  0.00    +0.244 C 
ATOM     30  H   UNL     1      -2.936   1.001  23.472  0.00  0.00    +0.149 HD
BRANCH  19  20
ATOM     20  C   UNL     1      -1.008  -0.510  24.360  0.00  0.00    +0.037 A 
ATOM     23  C   UNL     1      -0.569   0.486  23.489  0.00  0.00    +0.015 A 
ATOM     24  C   UNL     1      -0.112  -1.469  24.830  0.00  0.00    +0.015 A 
ATOM     25  C   UNL     1       0.766   0.523  23.086  0.00  0.00    +0.024 A 
ATOM     26  C   UNL     1       1.224  -1.433  24.428  0.00  0.00    +0.024 A 
ATOM     27  C   UNL     1       1.663  -0.437  23.557  0.00  0.00    +0.029 A 
BRANCH  27   6
ATOM      6  N   UNL     1       3.013  -0.401  23.150  0.00  0.00    -0.336 N 
ATOM     28  C   UNL     1       3.952  -1.394  23.633  0.00  0.00    +0.129 C 
ATOM     29  C   UNL     1       3.476   0.624  22.235  0.00  0.00    +0.129 C 
ENDBRANCH  27   6
ENDBRANCH  19  20
ENDBRANCH  15   4
ENDBRANCH   9  15
TORSDOF 9
ENDMDL
MODEL 4
REMARK VINA RESULT:       2.6      1.885      3.727
REMARK  Name = 28991064
REMARK  14 active torsions:
REMARK  status: ('A' for Active; 'I' for Inactive)
REMARK    1  A    between atoms: N_3  and  C_14
REMARK    2  A    between atoms: N_3  and  C_16
REMARK    3  A    between atoms: N_3  and  C_17
REMARK    4  A    between atoms: N_4  and  C_15
REMARK    5  A    between atoms: N_5  and  C_18
REMARK    6  A    between atoms: N_5  and  C_21
REMARK    7  A    between atoms: N_5  and  C_22
REMARK    8  A    between atoms: N_6  and  C_27
REMARK    9  A    between atoms: N_6  and  C_28
REMARK   10  A    between atoms: N_6  and  C_29
REMARK   11  A    between atoms: C_8  and  C_14
REMARK   12  A    between atoms: C_9  and  C_15
REMARK   13  A    between atoms: C_16  and  C_18
REMARK   14  A    between atoms: C_19  and  C_20
REMARK                            x       y       z     vdW  Elec       q    Type
REMARK                         _______ _______ _______ _____ _____    ______ ____
ROOT
ATOM      2  N   UNL     1      -5.935   1.206  24.901  0.00  0.00    -0.298 NA
ATOM      7  C   UNL     1      -4.164   2.960  25.644  0.00  0.00    -0.003 C 
ATOM      8  C   UNL     1      -4.657   3.248  24.207  0.00  0.00    +0.020 C 
ATOM      9  C   UNL     1      -4.715   0.518  25.403  0.00  0.00    +0.074 C 
ATOM     10  C   UNL     1      -3.592   1.532  25.710  0.00  0.00    +0.024 C 
ATOM     11  C   UNL     1      -5.592   2.099  23.768  0.00  0.00    +0.089 C 
ATOM     12  C   UNL     1      -5.403   2.999  26.559  0.00  0.00    +0.019 C 
ATOM     13  C   UNL     1      -6.473   2.042  26.002  0.00  0.00    +0.085 C 
ENDROOT
BRANCH   8  14
ATOM     14  C   UNL     1      -3.519   3.460  23.211  0.00  0.00    +0.089 C 
BRANCH  14   3
ATOM      3  N   UNL     1      -2.784   2.250  23.006  0.00  0.00    -0.304 NA
ATOM     17  C   UNL     1      -2.511   2.017  21.577  0.00  0.00    +0.104 C 
BRANCH   3  16
ATOM     16  C   UNL     1      -1.511   2.256  23.748  0.00  0.00    +0.099 C 
BRANCH  16  18
ATOM     18  C   UNL     1      -0.774   3.575  23.567  0.00  0.00    +0.099 C 
BRANCH  18   5
ATOM      5  N   UNL     1      -0.424   4.143  24.862  0.00  0.00    -0.307 NA
ATOM     21  C   UNL     1      -0.386   3.101  25.890  0.00  0.00    +0.104 C 
ATOM     22  C   UNL     1      -1.373   5.192  25.240  0.00  0.00    +0.104 C 
ENDBRANCH  18   5
ENDBRANCH  16  18
ENDBRANCH   3  16
ENDBRANCH  14   3
ENDBRANCH   8  14
BRANCH   9  15
ATOM     15  C   UNL     1      -4.240  -0.589  24.458  0.00  0.00    +0.123 C 
BRANCH  15   4
ATOM      1  O   UNL     1      -2.258  -2.656  24.667  0.00  0.00    -0.270 OA
ATOM      4  N   UNL     1      -2.841  -0.461  24.188  0.00  0.00    -0.310 N 
ATOM     19  C   UNL     1      -1.945  -1.522  24.315  0.00  0.00    +0.244 C 
ATOM     30  H   UNL     1      -2.505   0.466  23.951  0.00  0.00    +0.149 HD
BRANCH  19  20
ATOM     20  C   UNL     1      -0.520  -1.221  24.022  0.00  0.00    +0.037 A 
ATOM     23  C   UNL     1       0.490  -1.852  24.746  0.00  0.00    +0.015 A 
ATOM     24  C   UNL     1      -0.193  -0.305  23.022  0.00  0.00    +0.015 A 
ATOM     25  C   UNL     1       1.828  -1.569  24.471  0.00  0.00    +0.024 A 
ATOM     26  C   UNL     1       1.145  -0.022  22.746  0.00  0.00    +0.024 A 
ATOM     27  C   UNL     1       2.155  -0.654  23.470  0.00  0.00    +0.029 A 
BRANCH  27   6
ATOM      6  N   UNL     1       3.508  -0.366  23.192  0.00  0.00    -0.336 N 
ATOM     28  C   UNL     1       3.860   0.742  22.326  0.00  0.00    +0.129 C 
ATOM     29  C   UNL     1       4.563  -1.170  23.775  0.00  0.00    +0.129 C 
ENDBRANCH  27   6
ENDBRANCH  19  20
ENDBRANCH  15   4
ENDBRANCH   9  15
TORSDOF 9
ENDMDL
MODEL 5
REMARK VINA RESULT:       2.8      2.220      4.960
REMARK  Name = 28991064
REMARK  14 active torsions:
REMARK  status: ('A' for Active; 'I' for Inactive)
REMARK    1  A    between atoms: N_3  and  C_14
REMARK    2  A    between atoms: N_3  and  C_16
REMARK    3  A    between atoms: N_3  and  C_17
REMARK    4  A    between atoms: N_4  and  C_15
REMARK    5  A    between atoms: N_5  and  C_18
REMARK    6  A    between atoms: N_5  and  C_21
REMARK    7  A    between atoms: N_5  and  C_22
REMARK    8  A    between atoms: N_6  and  C_27
REMARK    9  A    between atoms: N_6  and  C_28
REMARK   10  A    between atoms: N_6  and  C_29
REMARK   11  A    between atoms: C_8  and  C_14
REMARK   12  A    between atoms: C_9  and  C_15
REMARK   13  A    between atoms: C_16  and  C_18
REMARK   14  A    between atoms: C_19  and  C_20
REMARK                            x       y       z     vdW  Elec       q    Type
REMARK                         _______ _______ _______ _____ _____    ______ ____
ROOT
ATOM      2  N   UNL     1      -5.376   3.355  26.251  0.00  0.00    -0.298 NA
ATOM      7  C   UNL     1      -5.706   1.757  24.226  0.00  0.00    -0.003 C 
ATOM      8  C   UNL     1      -5.035   1.019  25.408  0.00  0.00    +0.020 C 
ATOM      9  C   UNL     1      -4.804   3.966  25.021  0.00  0.00    +0.074 C 
ATOM     10  C   UNL     1      -4.852   2.977  23.836  0.00  0.00    +0.024 C 
ATOM     11  C   UNL     1      -4.733   2.047  26.522  0.00  0.00    +0.089 C 
ATOM     12  C   UNL     1      -7.057   2.290  24.740  0.00  0.00    +0.019 C 
ATOM     13  C   UNL     1      -6.821   3.121  26.014  0.00  0.00    +0.085 C 
ENDROOT
BRANCH   8  14
ATOM     14  C   UNL     1      -3.783   0.245  25.002  0.00  0.00    +0.089 C 
BRANCH  14   3
ATOM      3  N   UNL     1      -4.065  -1.151  24.860  0.00  0.00    -0.304 NA
ATOM     17  C   UNL     1      -3.944  -1.588  23.459  0.00  0.00    +0.104 C 
BRANCH   3  16
ATOM     16  C   UNL     1      -3.180  -1.972  25.703  0.00  0.00    +0.099 C 
BRANCH  16  18
ATOM     18  C   UNL     1      -1.975  -2.469  24.917  0.00  0.00    +0.099 C 
BRANCH  18   5
ATOM      5  N   UNL     1      -0.798  -1.672  25.236  0.00  0.00    -0.307 NA
ATOM     21  C   UNL     1       0.383  -2.526  25.375  0.00  0.00    +0.104 C 
ATOM     22  C   UNL     1      -1.012  -0.902  26.463  0.00  0.00    +0.104 C 
ENDBRANCH  18   5
ENDBRANCH  16  18
ENDBRANCH   3  16
ENDBRANCH  14   3
ENDBRANCH   8  14
BRANCH   9  15
ATOM     15  C   UNL     1      -3.393   4.518  25.245  0.00  0.00    +0.123 C 
BRANCH  15   4
ATOM      1  O   UNL     1      -1.366   2.981  26.578  0.00  0.00    -0.270 OA
ATOM      4  N   UNL     1      -2.414   3.677  24.627  0.00  0.00    -0.310 N 
ATOM     19  C   UNL     1      -1.462   2.964  25.353  0.00  0.00    +0.244 C 
ATOM     30  H   UNL     1      -2.400   3.664  23.614  0.00  0.00    +0.149 HD
BRANCH  19  20
ATOM     20  C   UNL     1      -0.499   2.155  24.562  0.00  0.00    +0.037 A 
ATOM     23  C   UNL     1      -0.965   1.195  23.664  0.00  0.00    +0.015 A 
ATOM     24  C   UNL     1       0.873   2.357  24.717  0.00  0.00    +0.015 A 
ATOM     25  C   UNL     1      -0.061   0.436  22.922  0.00  0.00    +0.024 A 
ATOM     26  C   UNL     1       1.778   1.598  23.975  0.00  0.00    +0.024 A 
ATOM     27  C   UNL     1       1.312   0.638  23.078  0.00  0.00    +0.029 A 
BRANCH  27   6
ATOM      6  N   UNL     1       2.227  -0.130  22.328  0.00  0.00    -0.336 N 
ATOM     28  C   UNL     1       3.604  -0.258  22.759  0.00  0.00    +0.129 C 
ATOM     29  C   UNL     1       1.799  -0.808  21.121  0.00  0.00    +0.129 C 
ENDBRANCH  27   6
ENDBRANCH  19  20
ENDBRANCH  15   4
ENDBRANCH   9  15
TORSDOF 9
ENDMDL
MODEL 6
REMARK VINA RESULT:       4.0      2.409      7.298
REMARK  Name = 28991064
REMARK  14 active torsions:
REMARK  status: ('A' for Active; 'I' for Inactive)
REMARK    1  A    between atoms: N_3  and  C_14
REMARK    2  A    between atoms: N_3  and  C_16
REMARK    3  A    between atoms: N_3  and  C_17
REMARK    4  A    between atoms: N_4  and  C_15
REMARK    5  A    between atoms: N_5  and  C_18
REMARK    6  A    between atoms: N_5  and  C_21
REMARK    7  A    between atoms: N_5  and  C_22
REMARK    8  A    between atoms: N_6  and  C_27
REMARK    9  A    between atoms: N_6  and  C_28
REMARK   10  A    between atoms: N_6  and  C_29
REMARK   11  A    between atoms: C_8  and  C_14
REMARK   12  A    between atoms: C_9  and  C_15
REMARK   13  A    between atoms: C_16  and  C_18
REMARK   14  A    between atoms: C_19  and  C_20
REMARK                            x       y       z     vdW  Elec       q    Type
REMARK                         _______ _______ _______ _____ _____    ______ ____
ROOT
ATOM      2  N   UNL     1      -3.143   4.499  23.869  0.00  0.00    -0.298 NA
ATOM      7  C   UNL     1      -1.565   4.243  25.922  0.00  0.00    -0.003 C 
ATOM      8  C   UNL     1      -1.308   3.125  24.886  0.00  0.00    +0.020 C 
ATOM      9  C   UNL     1      -3.937   4.511  25.128  0.00  0.00    +0.074 C 
ATOM     10  C   UNL     1      -3.043   4.210  26.352  0.00  0.00    +0.024 C 
ATOM     11  C   UNL     1      -2.365   3.241  23.764  0.00  0.00    +0.089 C 
ATOM     12  C   UNL     1      -1.328   5.584  25.201  0.00  0.00    +0.019 C 
ATOM     13  C   UNL     1      -2.186   5.631  23.924  0.00  0.00    +0.085 C 
ENDROOT
BRANCH   8  14
ATOM     14  C   UNL     1      -1.290   1.727  25.500  0.00  0.00    +0.089 C 
BRANCH  14   3
ATOM      3  N   UNL     1      -0.203   0.953  24.983  0.00  0.00    -0.304 NA
ATOM     17  C   UNL     1      -0.505  -0.489  25.008  0.00  0.00    +0.104 C 
BRANCH   3  16
ATOM     16  C   UNL     1       0.142   1.353  23.608  0.00  0.00    +0.099 C 
BRANCH  16  18
ATOM     18  C   UNL     1       1.641   1.567  23.456  0.00  0.00    +0.099 C 
BRANCH  18   5
ATOM      5  N   UNL     1       2.287   0.335  23.022  0.00  0.00    -0.307 NA
ATOM     21  C   UNL     1       3.661   0.597  22.590  0.00  0.00    +0.104 C 
ATOM     22  C   UNL     1       1.527  -0.293  21.939  0.00  0.00    +0.104 C 
ENDBRANCH  18   5
ENDBRANCH  16  18
ENDBRANCH   3  16
ENDBRANCH  14   3
ENDBRANCH   8  14
BRANCH   9  15
ATOM     15  C   UNL     1      -5.146   3.573  25.063  0.00  0.00    +0.123 C 
BRANCH  15   4
ATOM      1  O   UNL     1      -5.595   1.203  26.621  0.00  0.00    -0.270 OA
ATOM      4  N   UNL     1      -4.741   2.242  24.730  0.00  0.00    -0.310 N 
ATOM     19  C   UNL     1      -5.001   1.144  25.548  0.00  0.00    +0.244 C 
ATOM     30  H   UNL     1      -4.192   2.132  23.884  0.00  0.00    +0.149 HD
BRANCH  19  20
ATOM     20  C   UNL     1      -4.492  -0.168  25.072  0.00  0.00    +0.037 A 
ATOM     23  C   UNL     1      -4.649  -0.536  23.736  0.00  0.00    +0.015 A 
ATOM     24  C   UNL     1      -3.856  -1.033  25.962  0.00  0.00    +0.015 A 
ATOM     25  C   UNL     1      -4.172  -1.768  23.290  0.00  0.00    +0.024 A 
ATOM     26  C   UNL     1      -3.377  -2.265  25.517  0.00  0.00    +0.024 A 
ATOM     27  C   UNL     1      -3.535  -2.633  24.182  0.00  0.00    +0.029 A 
BRANCH  27   6
ATOM      6  N   UNL     1      -3.053  -3.879  23.731  0.00  0.00    -0.336 N 
ATOM     28  C   UNL     1      -1.658  -4.040  23.371  0.00  0.00    +0.129 C 
ATOM     29  C   UNL     1      -3.943  -5.019  23.632  0.00  0.00    +0.129 C 
ENDBRANCH  27   6
ENDBRANCH  19  20
ENDBRANCH  15   4
ENDBRANCH   9  15
TORSDOF 9
ENDMDL
MODEL 7
REMARK VINA RESULT:       4.4      1.841      3.343
REMARK  Name = 28991064
REMARK  14 active torsions:
REMARK  status: ('A' for Active; 'I' for Inactive)
REMARK    1  A    between atoms: N_3  and  C_14
REMARK    2  A    between atoms: N_3  and  C_16
REMARK    3  A    between atoms: N_3  and  C_17
REMARK    4  A    between atoms: N_4  and  C_15
REMARK    5  A    between atoms: N_5  and  C_18
REMARK    6  A    between atoms: N_5  and  C_21
REMARK    7  A    between atoms: N_5  and  C_22
REMARK    8  A    between atoms: N_6  and  C_27
REMARK    9  A    between atoms: N_6  and  C_28
REMARK   10  A    between atoms: N_6  and  C_29
REMARK   11  A    between atoms: C_8  and  C_14
REMARK   12  A    between atoms: C_9  and  C_15
REMARK   13  A    between atoms: C_16  and  C_18
REMARK   14  A    between atoms: C_19  and  C_20
REMARK                            x       y       z     vdW  Elec       q    Type
REMARK                         _______ _______ _______ _____ _____    ______ ____
ROOT
ATOM      2  N   UNL     1      -4.267  -0.657  23.689  0.00  0.00    -0.298 NA
ATOM      7  C   UNL     1      -3.803   0.491  25.977  0.00  0.00    -0.003 C 
ATOM      8  C   UNL     1      -2.881   1.063  24.875  0.00  0.00    +0.020 C 
ATOM      9  C   UNL     1      -4.025  -1.687  24.736  0.00  0.00    +0.074 C 
ATOM     10  C   UNL     1      -3.600  -1.033  26.070  0.00  0.00    +0.024 C 
ATOM     11  C   UNL     1      -3.098   0.249  23.580  0.00  0.00    +0.089 C 
ATOM     12  C   UNL     1      -5.253   0.731  25.517  0.00  0.00    +0.019 C 
ATOM     13  C   UNL     1      -5.440   0.149  24.105  0.00  0.00    +0.085 C 
ENDROOT
BRANCH   8  14
ATOM     14  C   UNL     1      -1.409   1.098  25.278  0.00  0.00    +0.089 C 
BRANCH  14   3
ATOM      3  N   UNL     1      -1.043   2.390  25.772  0.00  0.00    -0.304 NA
ATOM     17  C   UNL     1       0.375   2.435  26.172  0.00  0.00    +0.104 C 
BRANCH   3  16
ATOM     16  C   UNL     1      -1.300   3.445  24.777  0.00  0.00    +0.099 C 
BRANCH  16  18
ATOM     18  C   UNL     1      -2.046   4.617  25.395  0.00  0.00    +0.099 C 
BRANCH  18   5
ATOM      5  N   UNL     1      -3.443   4.605  24.980  0.00  0.00    -0.307 NA
ATOM     21  C   UNL     1      -4.290   4.036  26.029  0.00  0.00    +0.104 C 
ATOM     22  C   UNL     1      -3.604   3.851  23.734  0.00  0.00    +0.104 C 
ENDBRANCH  18   5
ENDBRANCH  16  18
ENDBRANCH   3  16
ENDBRANCH  14   3
ENDBRANCH   8  14
BRANCH   9  15
ATOM     15  C   UNL     1      -3.028  -2.756  24.284  0.00  0.00    +0.123 C 
BRANCH  15   4
ATOM      1  O   UNL     1      -0.619  -2.659  25.844  0.00  0.00    -0.270 OA
ATOM      4  N   UNL     1      -1.785  -2.162  23.899  0.00  0.00    -0.310 N 
ATOM     19  C   UNL     1      -0.660  -2.160  24.722  0.00  0.00    +0.244 C 
ATOM     30  H   UNL     1      -1.767  -1.679  23.008  0.00  0.00    +0.149 HD
BRANCH  19  20
ATOM     20  C   UNL     1       0.548  -1.480  24.188  0.00  0.00    +0.037 A 
ATOM     23  C   UNL     1       0.414  -0.351  23.380  0.00  0.00    +0.015 A 
ATOM     24  C   UNL     1       1.817  -1.972  24.493  0.00  0.00    +0.015 A 
ATOM     25  C   UNL     1       1.548   0.287  22.878  0.00  0.00    +0.024 A 
ATOM     26  C   UNL     1       2.952  -1.334  23.991  0.00  0.00    +0.024 A 
ATOM     27  C   UNL     1       2.818  -0.205  23.184  0.00  0.00    +0.029 A 
BRANCH  27   6
ATOM      6  N   UNL     1       3.965   0.439  22.676  0.00  0.00    -0.336 N 
ATOM     28  C   UNL     1       5.194   0.464  23.445  0.00  0.00    +0.129 C 
ATOM     29  C   UNL     1       3.933   1.075  21.374  0.00  0.00    +0.129 C 
ENDBRANCH  27   6
ENDBRANCH  19  20
ENDBRANCH  15   4
ENDBRANCH   9  15
TORSDOF 9
ENDMDL
