MODEL 1
REMARK VINA RESULT:      -2.2      0.000      0.000
REMARK  Name = 38030122
REMARK  11 active torsions:
REMARK  status: ('A' for Active; 'I' for Inactive)
REMARK    1  A    between atoms: O_1  and  C_14
REMARK    2  A    between atoms: O_3  and  C_24
REMARK    3  A    between atoms: O_3  and  C_29
REMARK    4  A    between atoms: N_5  and  C_23
REMARK    5  A    between atoms: C_6  and  C_10
REMARK    6  A    between atoms: C_8  and  C_14
REMARK    7  A    between atoms: C_9  and  C_13
REMARK    8  A    between atoms: C_10  and  C_15
REMARK    9  A    between atoms: C_10  and  C_16
REMARK   10  A    between atoms: C_11  and  C_17
REMARK   11  A    between atoms: C_13  and  C_18
REMARK                            x       y       z     vdW  Elec       q    Type
REMARK                         _______ _______ _______ _____ _____    ______ ____
ROOT
ATOM      2  O   UNL     1      17.398  -4.415  27.228  0.00  0.00    -0.276 OA
ATOM      4  N   UNL     1      16.552  -6.473  27.889  0.00  0.00    -0.298 N 
ATOM      5  N   UNL     1      14.975  -7.701  29.882  0.00  0.00    -0.324 N 
ATOM     18  C   UNL     1      16.853  -5.486  26.953  0.00  0.00    +0.216 C 
ATOM     19  C   UNL     1      15.907  -7.756  27.603  0.00  0.00    +0.126 C 
ATOM     20  C   UNL     1      16.903  -6.287  29.295  0.00  0.00    +0.126 C 
ATOM     21  C   UNL     1      14.660  -7.938  28.467  0.00  0.00    +0.124 C 
ATOM     22  C   UNL     1      15.671  -6.440  30.185  0.00  0.00    +0.124 C 
ENDROOT
BRANCH   5  23
ATOM     23  C   UNL     1      14.151  -8.243  30.875  0.00  0.00    +0.072 A 
ATOM     24  C   UNL     1      14.623  -9.249  31.718  0.00  0.00    +0.141 A 
ATOM     25  C   UNL     1      12.847  -7.769  31.016  0.00  0.00    +0.027 A 
ATOM     26  C   UNL     1      13.791  -9.780  32.703  0.00  0.00    +0.047 A 
ATOM     27  C   UNL     1      12.015  -8.300  32.002  0.00  0.00    +0.002 A 
ATOM     28  C   UNL     1      12.486  -9.306  32.845  0.00  0.00    +0.004 A 
BRANCH  24   3
ATOM      3  O   UNL     1      15.893  -9.726  31.596  0.00  0.00    -0.493 OA
ATOM     29  C   UNL     1      16.844  -9.294  32.568  0.00  0.00    +0.277 C 
ENDBRANCH  24   3
ENDBRANCH   5  23
BRANCH  18  13
ATOM     13  C   UNL     1      16.476  -5.778  25.523  0.00  0.00    +0.103 C 
BRANCH  13   9
ATOM      6  C   UNL     1      16.105  -2.779  24.418  0.00  0.00    +0.001 C 
ATOM      7  C   UNL     1      17.374  -3.485  24.921  0.00  0.00    +0.012 C 
ATOM      8  C   UNL     1      15.977  -2.928  22.881  0.00  0.00    +0.040 C 
ATOM      9  C   UNL     1      17.382  -4.986  24.573  0.00  0.00    +0.023 C 
ATOM     11  C   UNL     1      16.999  -5.231  23.128  0.00  0.00    -0.073 C 
ATOM     12  C   UNL     1      16.384  -4.296  22.383  0.00  0.00    -0.022 C 
ATOM     17  C   UNL     1      17.381  -6.562  22.543  0.00  0.00    +0.039 C 
BRANCH   6  10
ATOM     10  C   UNL     1      16.125  -1.309  24.847  0.00  0.00    -0.013 C 
ATOM     15  C   UNL     1      16.238  -1.199  26.364  0.00  0.00    +0.007 C 
ATOM     16  C   UNL     1      17.272  -0.571  24.165  0.00  0.00    +0.007 C 
ENDBRANCH   6  10
BRANCH   8  14
ATOM     14  C   UNL     1      14.551  -2.618  22.412  0.00  0.00    +0.163 C 
BRANCH  14   1
ATOM      1  O   UNL     1      14.577  -1.405  21.686  0.00  0.00    -0.394 OA
ATOM     30  H   UNL     1      14.947  -0.725  22.274  0.00  0.00    +0.209 HD
ENDBRANCH  14   1
ENDBRANCH   8  14
ENDBRANCH  13   9
ENDBRANCH  18  13
TORSDOF 7
ENDMDL
MODEL 2
REMARK VINA RESULT:       0.2     17.266     19.989
REMARK  Name = 38030122
REMARK  11 active torsions:
REMARK  status: ('A' for Active; 'I' for Inactive)
REMARK    1  A    between atoms: O_1  and  C_14
REMARK    2  A    between atoms: O_3  and  C_24
REMARK    3  A    between atoms: O_3  and  C_29
REMARK    4  A    between atoms: N_5  and  C_23
REMARK    5  A    between atoms: C_6  and  C_10
REMARK    6  A    between atoms: C_8  and  C_14
REMARK    7  A    between atoms: C_9  and  C_13
REMARK    8  A    between atoms: C_10  and  C_15
REMARK    9  A    between atoms: C_10  and  C_16
REMARK   10  A    between atoms: C_11  and  C_17
REMARK   11  A    between atoms: C_13  and  C_18
REMARK                            x       y       z     vdW  Elec       q    Type
REMARK                         _______ _______ _______ _____ _____    ______ ____
ROOT
ATOM      2  O   UNL     1      -4.414  -1.877  24.001  0.00  0.00    -0.276 OA
ATOM      4  N   UNL     1      -2.343  -1.318  24.890  0.00  0.00    -0.298 N 
ATOM      5  N   UNL     1       0.288  -0.619  24.146  0.00  0.00    -0.324 N 
ATOM     18  C   UNL     1      -3.733  -1.250  24.815  0.00  0.00    +0.216 C 
ATOM     19  C   UNL     1      -1.500  -0.591  25.840  0.00  0.00    +0.126 C 
ATOM     20  C   UNL     1      -1.600  -2.191  23.984  0.00  0.00    +0.126 C 
ATOM     21  C   UNL     1      -0.438   0.226  25.105  0.00  0.00    +0.124 C 
ATOM     22  C   UNL     1      -0.544  -1.399  23.216  0.00  0.00    +0.124 C 
ENDROOT
BRANCH   5  23
ATOM     23  C   UNL     1       1.562  -0.235  23.714  0.00  0.00    +0.072 A 
ATOM     24  C   UNL     1       1.810   1.079  23.316  0.00  0.00    +0.141 A 
ATOM     25  C   UNL     1       2.588  -1.179  23.684  0.00  0.00    +0.027 A 
ATOM     26  C   UNL     1       3.085   1.449  22.887  0.00  0.00    +0.047 A 
ATOM     27  C   UNL     1       3.863  -0.809  23.255  0.00  0.00    +0.002 A 
ATOM     28  C   UNL     1       4.112   0.504  22.856  0.00  0.00    +0.004 A 
BRANCH  24   3
ATOM      3  O   UNL     1       0.821   2.015  23.337  0.00  0.00    -0.493 OA
ATOM     29  C   UNL     1       0.605   2.700  24.570  0.00  0.00    +0.277 C 
ENDBRANCH  24   3
ENDBRANCH   5  23
BRANCH  18  13
ATOM     13  C   UNL     1      -4.416  -0.341  25.806  0.00  0.00    +0.103 C 
BRANCH  13   9
ATOM      6  C   UNL     1      -3.483   2.257  24.153  0.00  0.00    +0.001 C 
ATOM      7  C   UNL     1      -4.558   1.213  23.809  0.00  0.00    +0.012 C 
ATOM      8  C   UNL     1      -4.116   3.459  24.898  0.00  0.00    +0.040 C 
ATOM      9  C   UNL     1      -5.280   0.685  25.063  0.00  0.00    +0.023 C 
ATOM     11  C   UNL     1      -5.700   1.810  25.986  0.00  0.00    -0.073 C 
ATOM     12  C   UNL     1      -5.181   3.046  25.889  0.00  0.00    -0.022 C 
ATOM     17  C   UNL     1      -6.768   1.493  26.996  0.00  0.00    +0.039 C 
BRANCH   6  10
ATOM     10  C   UNL     1      -2.760   2.697  22.877  0.00  0.00    -0.013 C 
ATOM     15  C   UNL     1      -2.258   1.481  22.104  0.00  0.00    +0.007 C 
ATOM     16  C   UNL     1      -3.681   3.547  22.008  0.00  0.00    +0.007 C 
ENDBRANCH   6  10
BRANCH   8  14
ATOM     14  C   UNL     1      -3.047   4.291  25.614  0.00  0.00    +0.163 C 
BRANCH  14   1
ATOM      1  O   UNL     1      -2.187   3.408  26.306  0.00  0.00    -0.394 OA
ATOM     30  H   UNL     1      -1.298   3.800  26.289  0.00  0.00    +0.209 HD
ENDBRANCH  14   1
ENDBRANCH   8  14
ENDBRANCH  13   9
ENDBRANCH  18  13
TORSDOF 7
ENDMDL
MODEL 3
REMARK VINA RESULT:       1.8     16.787     19.459
REMARK  Name = 38030122
REMARK  11 active torsions:
REMARK  status: ('A' for Active; 'I' for Inactive)
REMARK    1  A    between atoms: O_1  and  C_14
REMARK    2  A    between atoms: O_3  and  C_24
REMARK    3  A    between atoms: O_3  and  C_29
REMARK    4  A    between atoms: N_5  and  C_23
REMARK    5  A    between atoms: C_6  and  C_10
REMARK    6  A    between atoms: C_8  and  C_14
REMARK    7  A    between atoms: C_9  and  C_13
REMARK    8  A    between atoms: C_10  and  C_15
REMARK    9  A    between atoms: C_10  and  C_16
REMARK   10  A    between atoms: C_11  and  C_17
REMARK   11  A    between atoms: C_13  and  C_18
REMARK                            x       y       z     vdW  Elec       q    Type
REMARK                         _______ _______ _______ _____ _____    ______ ____
ROOT
ATOM      2  O   UNL     1      -3.865  -1.921  24.069  0.00  0.00    -0.276 OA
ATOM      4  N   UNL     1      -1.851  -1.075  24.856  0.00  0.00    -0.298 N 
ATOM      5  N   UNL     1       0.677  -0.167  23.992  0.00  0.00    -0.324 N 
ATOM     18  C   UNL     1      -3.241  -1.160  24.812  0.00  0.00    +0.216 C 
ATOM     19  C   UNL     1      -1.074  -0.187  25.723  0.00  0.00    +0.126 C 
ATOM     20  C   UNL     1      -1.034  -1.937  24.006  0.00  0.00    +0.126 C 
ATOM     21  C   UNL     1      -0.119   0.673  24.897  0.00  0.00    +0.124 C 
ATOM     22  C   UNL     1      -0.082  -1.105  23.149  0.00  0.00    +0.124 C 
ENDROOT
BRANCH   5  23
ATOM     23  C   UNL     1       1.895   0.312  23.497  0.00  0.00    +0.072 A 
ATOM     24  C   UNL     1       3.020  -0.514  23.462  0.00  0.00    +0.141 A 
ATOM     25  C   UNL     1       1.979   1.625  23.036  0.00  0.00    +0.027 A 
ATOM     26  C   UNL     1       4.228  -0.025  22.966  0.00  0.00    +0.047 A 
ATOM     27  C   UNL     1       3.188   2.114  22.540  0.00  0.00    +0.002 A 
ATOM     28  C   UNL     1       4.313   1.290  22.505  0.00  0.00    +0.004 A 
BRANCH  24   3
ATOM      3  O   UNL     1       2.959  -1.799  23.907  0.00  0.00    -0.493 OA
ATOM     29  C   UNL     1       4.199  -2.471  24.120  0.00  0.00    +0.277 C 
ENDBRANCH  24   3
ENDBRANCH   5  23
BRANCH  18  13
ATOM     13  C   UNL     1      -4.001  -0.249  25.743  0.00  0.00    +0.103 C 
BRANCH  13   9
ATOM      6  C   UNL     1      -3.122   2.484  24.291  0.00  0.00    +0.001 C 
ATOM      7  C   UNL     1      -4.048   1.365  23.790  0.00  0.00    +0.012 C 
ATOM      8  C   UNL     1      -3.946   3.595  24.989  0.00  0.00    +0.040 C 
ATOM      9  C   UNL     1      -4.861   0.726  24.932  0.00  0.00    +0.023 C 
ATOM     11  C   UNL     1      -5.489   1.772  25.830  0.00  0.00    -0.073 C 
ATOM     12  C   UNL     1      -5.077   3.052  25.832  0.00  0.00    -0.022 C 
ATOM     17  C   UNL     1      -6.635   1.324  26.693  0.00  0.00    +0.039 C 
BRANCH   6  10
ATOM     10  C   UNL     1      -2.297   3.036  23.125  0.00  0.00    -0.013 C 
ATOM     15  C   UNL     1      -0.871   3.333  23.577  0.00  0.00    +0.007 C 
ATOM     16  C   UNL     1      -2.300   2.054  21.958  0.00  0.00    +0.007 C 
ENDBRANCH   6  10
BRANCH   8  14
ATOM     14  C   UNL     1      -3.049   4.489  25.853  0.00  0.00    +0.163 C 
BRANCH  14   1
ATOM      1  O   UNL     1      -2.167   3.660  26.581  0.00  0.00    -0.394 OA
ATOM     30  H   UNL     1      -2.712   3.073  27.133  0.00  0.00    +0.209 HD
ENDBRANCH  14   1
ENDBRANCH   8  14
ENDBRANCH  13   9
ENDBRANCH  18  13
TORSDOF 7
ENDMDL
