MODEL 1
REMARK VINA RESULT:       0.5      0.000      0.000
REMARK  Name = 11887301
REMARK  7 active torsions:
REMARK  status: ('A' for Active; 'I' for Inactive)
REMARK    1  A    between atoms: S_1  and  N_8
REMARK    2  A    between atoms: S_1  and  C_19
REMARK    3  A    between atoms: O_6  and  C_28
REMARK    4  A    between atoms: O_6  and  C_35
REMARK    5  A    between atoms: N_7  and  C_14
REMARK    6  A    between atoms: N_8  and  C_15
REMARK    7  A    between atoms: C_18  and  C_20
REMARK                            x       y       z     vdW  Elec       q    Type
REMARK                         _______ _______ _______ _____ _____    ______ ____
ROOT
ATOM      2  O   UNL     1      -2.997  -0.870  26.562  0.00  0.00    -0.370 OA
ATOM      3  O   UNL     1      -2.888  -0.941  23.407  0.00  0.00    -0.370 OA
ATOM     12  C   UNL     1      -2.543   0.038  24.404  0.00  0.00    +0.175 C 
ATOM     13  C   UNL     1      -3.569  -0.071  25.516  0.00  0.00    +0.170 C 
ATOM     14  C   UNL     1      -1.226  -0.333  25.057  0.00  0.00    +0.168 C 
ATOM     15  C   UNL     1      -4.733  -0.798  24.884  0.00  0.00    +0.133 C 
ATOM     16  C   UNL     1      -1.655  -1.233  26.210  0.00  0.00    +0.190 C 
ATOM     17  C   UNL     1      -4.064  -1.648  23.823  0.00  0.00    +0.183 C 
ENDROOT
BRANCH  14   7
ATOM      7  N   UNL     1      -0.441   0.841  25.446  0.00  0.00    -0.217 N 
ATOM      9  N   UNL     1      -0.798   1.577  26.504  0.00  0.00    -0.043 NA
ATOM     10  N   UNL     1       1.037   2.416  25.556  0.00  0.00    -0.108 NA
ATOM     11  N   UNL     1       0.112   2.541  26.567  0.00  0.00    -0.023 NA
ATOM     18  C   UNL     1       0.675   1.354  24.873  0.00  0.00    +0.182 A 
BRANCH  18  20
ATOM     20  C   UNL     1       1.327   0.806  23.712  0.00  0.00    +0.024 A 
ATOM     23  C   UNL     1       2.708   0.937  23.557  0.00  0.00    +0.057 A 
ATOM     24  C   UNL     1       0.578   0.141  22.740  0.00  0.00    +0.012 A 
ATOM     28  C   UNL     1       3.339   0.403  22.433  0.00  0.00    +0.121 A 
ATOM     29  C   UNL     1       1.209  -0.392  21.615  0.00  0.00    +0.004 A 
ATOM     31  C   UNL     1       2.589  -0.261  21.463  0.00  0.00    +0.045 A 
BRANCH  28   6
ATOM      6  O   UNL     1       4.686   0.531  22.284  0.00  0.00    -0.495 OA
ATOM     35  C   UNL     1       5.499   0.181  23.403  0.00  0.00    +0.277 C 
ENDBRANCH  28   6
ENDBRANCH  18  20
ENDBRANCH  14   7
BRANCH  15   8
ATOM      8  N   UNL     1      -5.646   0.177  24.238  0.00  0.00    -0.182 NA
ATOM     36  H   UNL     1      -5.563   0.273  23.218  0.00  0.00    +0.148 HD
BRANCH   8   1
ATOM      1  S   UNL     1      -6.271   1.473  25.140  0.00  0.00    +0.059 S 
ATOM      4  O   UNL     1      -6.553   1.028  26.491  0.00  0.00    -0.153 OA
ATOM      5  O   UNL     1      -7.301   2.130  24.358  0.00  0.00    -0.153 OA
BRANCH   1  19
ATOM     19  C   UNL     1      -4.889   2.574  25.203  0.00  0.00    +0.106 A 
ATOM     21  C   UNL     1      -3.924   2.503  24.212  0.00  0.00    +0.037 A 
ATOM     22  C   UNL     1      -4.799   3.481  26.239  0.00  0.00    +0.029 A 
ATOM     25  C   UNL     1      -2.820   3.370  24.250  0.00  0.00    -0.016 A 
ATOM     26  C   UNL     1      -3.709   4.351  26.290  0.00  0.00    +0.010 A 
ATOM     27  C   UNL     1      -2.711   4.308  25.303  0.00  0.00    -0.018 A 
ATOM     30  C   UNL     1      -1.823   3.328  23.261  0.00  0.00    +0.008 A 
ATOM     32  C   UNL     1      -1.607   5.176  25.340  0.00  0.00    +0.008 A 
ATOM     33  C   UNL     1      -0.732   4.197  23.313  0.00  0.00    +0.001 A 
ATOM     34  C   UNL     1      -0.625   5.119  24.351  0.00  0.00    +0.001 A 
ENDBRANCH   1  19
ENDBRANCH   8   1
ENDBRANCH  15   8
TORSDOF 6
ENDMDL
MODEL 2
REMARK VINA RESULT:       1.8      1.974      4.172
REMARK  Name = 11887301
REMARK  7 active torsions:
REMARK  status: ('A' for Active; 'I' for Inactive)
REMARK    1  A    between atoms: S_1  and  N_8
REMARK    2  A    between atoms: S_1  and  C_19
REMARK    3  A    between atoms: O_6  and  C_28
REMARK    4  A    between atoms: O_6  and  C_35
REMARK    5  A    between atoms: N_7  and  C_14
REMARK    6  A    between atoms: N_8  and  C_15
REMARK    7  A    between atoms: C_18  and  C_20
REMARK                            x       y       z     vdW  Elec       q    Type
REMARK                         _______ _______ _______ _____ _____    ______ ____
ROOT
ATOM      2  O   UNL     1      -1.766   2.657  23.344  0.00  0.00    -0.370 OA
ATOM      3  O   UNL     1      -0.645   3.695  26.108  0.00  0.00    -0.370 OA
ATOM     12  C   UNL     1      -1.126   2.425  25.630  0.00  0.00    +0.175 C 
ATOM     13  C   UNL     1      -2.278   2.707  24.685  0.00  0.00    +0.170 C 
ATOM     14  C   UNL     1      -0.069   1.767  24.764  0.00  0.00    +0.168 C 
ATOM     15  C   UNL     1      -2.709   4.115  25.025  0.00  0.00    +0.133 C 
ATOM     16  C   UNL     1      -0.376   2.312  23.374  0.00  0.00    +0.190 C 
ATOM     17  C   UNL     1      -1.427   4.747  25.527  0.00  0.00    +0.183 C 
ENDROOT
BRANCH  14   7
ATOM      7  N   UNL     1      -0.082   0.306  24.874  0.00  0.00    -0.217 N 
ATOM      9  N   UNL     1      -0.934  -0.305  25.704  0.00  0.00    -0.043 NA
ATOM     10  N   UNL     1       0.327  -1.804  24.640  0.00  0.00    -0.108 NA
ATOM     11  N   UNL     1      -0.679  -1.599  25.556  0.00  0.00    -0.023 NA
ATOM     18  C   UNL     1       0.682  -0.608  24.230  0.00  0.00    +0.182 A 
BRANCH  18  20
ATOM     20  C   UNL     1       1.704  -0.290  23.265  0.00  0.00    +0.024 A 
ATOM     23  C   UNL     1       2.965   0.129  23.693  0.00  0.00    +0.057 A 
ATOM     24  C   UNL     1       1.434  -0.402  21.900  0.00  0.00    +0.012 A 
ATOM     28  C   UNL     1       3.954   0.435  22.758  0.00  0.00    +0.121 A 
ATOM     29  C   UNL     1       2.423  -0.096  20.965  0.00  0.00    +0.004 A 
ATOM     31  C   UNL     1       3.683   0.322  21.394  0.00  0.00    +0.045 A 
BRANCH  28   6
ATOM      6  O   UNL     1       5.183   0.842  23.176  0.00  0.00    -0.495 OA
ATOM     35  C   UNL     1       5.845   0.024  24.140  0.00  0.00    +0.277 C 
ENDBRANCH  28   6
ENDBRANCH  18  20
ENDBRANCH  14   7
BRANCH  15   8
ATOM      8  N   UNL     1      -3.710   4.085  26.119  0.00  0.00    -0.182 NA
ATOM     36  H   UNL     1      -3.340   4.119  27.078  0.00  0.00    +0.148 HD
BRANCH   8   1
ATOM      1  S   UNL     1      -5.234   3.387  25.849  0.00  0.00    +0.059 S 
ATOM      4  O   UNL     1      -5.949   4.161  24.851  0.00  0.00    -0.153 OA
ATOM      5  O   UNL     1      -5.851   3.102  27.130  0.00  0.00    -0.153 OA
BRANCH   1  19
ATOM     19  C   UNL     1      -4.801   1.832  25.127  0.00  0.00    +0.106 A 
ATOM     21  C   UNL     1      -4.477   0.771  25.956  0.00  0.00    +0.037 A 
ATOM     22  C   UNL     1      -4.793   1.707  23.753  0.00  0.00    +0.029 A 
ATOM     25  C   UNL     1      -4.130  -0.470  25.398  0.00  0.00    -0.016 A 
ATOM     26  C   UNL     1      -4.452   0.480  23.182  0.00  0.00    +0.010 A 
ATOM     27  C   UNL     1      -4.118  -0.618  23.991  0.00  0.00    -0.018 A 
ATOM     30  C   UNL     1      -3.796  -1.569  26.208  0.00  0.00    +0.008 A 
ATOM     32  C   UNL     1      -3.770  -1.860  23.433  0.00  0.00    +0.008 A 
ATOM     33  C   UNL     1      -3.453  -2.795  25.637  0.00  0.00    +0.001 A 
ATOM     34  C   UNL     1      -3.440  -2.940  24.252  0.00  0.00    +0.001 A 
ENDBRANCH   1  19
ENDBRANCH   8   1
ENDBRANCH  15   8
TORSDOF 6
ENDMDL
MODEL 3
REMARK VINA RESULT:       3.3      2.142      4.391
REMARK  Name = 11887301
REMARK  7 active torsions:
REMARK  status: ('A' for Active; 'I' for Inactive)
REMARK    1  A    between atoms: S_1  and  N_8
REMARK    2  A    between atoms: S_1  and  C_19
REMARK    3  A    between atoms: O_6  and  C_28
REMARK    4  A    between atoms: O_6  and  C_35
REMARK    5  A    between atoms: N_7  and  C_14
REMARK    6  A    between atoms: N_8  and  C_15
REMARK    7  A    between atoms: C_18  and  C_20
REMARK                            x       y       z     vdW  Elec       q    Type
REMARK                         _______ _______ _______ _____ _____    ______ ____
ROOT
ATOM      2  O   UNL     1      -1.974   2.823  23.073  0.00  0.00    -0.370 OA
ATOM      3  O   UNL     1      -0.567   3.520  25.814  0.00  0.00    -0.370 OA
ATOM     12  C   UNL     1      -1.071   2.309  25.219  0.00  0.00    +0.175 C 
ATOM     13  C   UNL     1      -2.330   2.672  24.455  0.00  0.00    +0.170 C 
ATOM     14  C   UNL     1      -0.105   1.815  24.160  0.00  0.00    +0.168 C 
ATOM     15  C   UNL     1      -2.750   4.003  25.033  0.00  0.00    +0.133 C 
ATOM     16  C   UNL     1      -0.581   2.530  22.901  0.00  0.00    +0.190 C 
ATOM     17  C   UNL     1      -1.434   4.611  25.474  0.00  0.00    +0.183 C 
ENDROOT
BRANCH  14   7
ATOM      7  N   UNL     1      -0.072   0.353  24.067  0.00  0.00    -0.217 N 
ATOM      9  N   UNL     1      -1.172  -0.368  24.311  0.00  0.00    -0.043 NA
ATOM     10  N   UNL     1       0.536  -1.704  23.793  0.00  0.00    -0.108 NA
ATOM     11  N   UNL     1      -0.793  -1.629  24.141  0.00  0.00    -0.023 NA
ATOM     18  C   UNL     1       0.963  -0.462  23.753  0.00  0.00    +0.182 A 
BRANCH  18  20
ATOM     20  C   UNL     1       2.294  -0.013  23.435  0.00  0.00    +0.024 A 
ATOM     23  C   UNL     1       3.396  -0.811  23.747  0.00  0.00    +0.057 A 
ATOM     24  C   UNL     1       2.484   1.221  22.811  0.00  0.00    +0.012 A 
ATOM     28  C   UNL     1       4.684  -0.375  23.436  0.00  0.00    +0.121 A 
ATOM     29  C   UNL     1       3.772   1.657  22.501  0.00  0.00    +0.004 A 
ATOM     31  C   UNL     1       4.872   0.858  22.814  0.00  0.00    +0.045 A 
BRANCH  28   6
ATOM      6  O   UNL     1       5.758  -1.155  23.741  0.00  0.00    -0.495 OA
ATOM     35  C   UNL     1       7.037  -0.695  23.306  0.00  0.00    +0.277 C 
ENDBRANCH  28   6
ENDBRANCH  18  20
ENDBRANCH  14   7
BRANCH  15   8
ATOM      8  N   UNL     1      -3.619   3.788  26.216  0.00  0.00    -0.182 NA
ATOM     36  H   UNL     1      -3.140   3.634  27.112  0.00  0.00    +0.148 HD
BRANCH   8   1
ATOM      1  S   UNL     1      -5.192   3.183  26.008  0.00  0.00    +0.059 S 
ATOM      4  O   UNL     1      -5.888   3.979  25.015  0.00  0.00    -0.153 OA
ATOM      5  O   UNL     1      -5.784   2.964  27.314  0.00  0.00    -0.153 OA
BRANCH   1  19
ATOM     19  C   UNL     1      -4.880   1.588  25.310  0.00  0.00    +0.106 A 
ATOM     21  C   UNL     1      -4.303   0.607  26.099  0.00  0.00    +0.037 A 
ATOM     22  C   UNL     1      -5.218   1.353  23.993  0.00  0.00    +0.029 A 
ATOM     25  C   UNL     1      -4.048  -0.664  25.558  0.00  0.00    -0.016 A 
ATOM     26  C   UNL     1      -4.973   0.095  23.440  0.00  0.00    +0.010 A 
ATOM     27  C   UNL     1      -4.389  -0.924  24.210  0.00  0.00    -0.018 A 
ATOM     30  C   UNL     1      -3.465  -1.683  26.329  0.00  0.00    +0.008 A 
ATOM     32  C   UNL     1      -4.134  -2.196  23.670  0.00  0.00    +0.008 A 
ATOM     33  C   UNL     1      -3.218  -2.940  25.776  0.00  0.00    +0.001 A 
ATOM     34  C   UNL     1      -3.552  -3.196  24.449  0.00  0.00    +0.001 A 
ENDBRANCH   1  19
ENDBRANCH   8   1
ENDBRANCH  15   8
TORSDOF 6
ENDMDL
MODEL 4
REMARK VINA RESULT:       3.4      1.544      3.847
REMARK  Name = 11887301
REMARK  7 active torsions:
REMARK  status: ('A' for Active; 'I' for Inactive)
REMARK    1  A    between atoms: S_1  and  N_8
REMARK    2  A    between atoms: S_1  and  C_19
REMARK    3  A    between atoms: O_6  and  C_28
REMARK    4  A    between atoms: O_6  and  C_35
REMARK    5  A    between atoms: N_7  and  C_14
REMARK    6  A    between atoms: N_8  and  C_15
REMARK    7  A    between atoms: C_18  and  C_20
REMARK                            x       y       z     vdW  Elec       q    Type
REMARK                         _______ _______ _______ _____ _____    ______ ____
ROOT
ATOM      2  O   UNL     1      -2.463   1.684  22.983  0.00  0.00    -0.370 OA
ATOM      3  O   UNL     1      -3.291   4.648  23.693  0.00  0.00    -0.370 OA
ATOM     12  C   UNL     1      -2.717   3.557  24.437  0.00  0.00    +0.175 C 
ATOM     13  C   UNL     1      -3.360   2.279  23.932  0.00  0.00    +0.170 C 
ATOM     14  C   UNL     1      -1.248   3.413  24.089  0.00  0.00    +0.168 C 
ATOM     15  C   UNL     1      -4.620   2.741  23.239  0.00  0.00    +0.133 C 
ATOM     16  C   UNL     1      -1.269   2.472  22.889  0.00  0.00    +0.190 C 
ATOM     17  C   UNL     1      -4.253   4.132  22.763  0.00  0.00    +0.183 C 
ENDROOT
BRANCH  14   7
ATOM      7  N   UNL     1      -0.443   2.952  25.223  0.00  0.00    -0.217 N 
ATOM      9  N   UNL     1      -0.610   3.488  26.437  0.00  0.00    -0.043 NA
ATOM     10  N   UNL     1       0.973   1.920  26.490  0.00  0.00    -0.108 NA
ATOM     11  N   UNL     1       0.261   2.852  27.210  0.00  0.00    -0.023 NA
ATOM     18  C   UNL     1       0.519   1.999  25.260  0.00  0.00    +0.182 A 
BRANCH  18  20
ATOM     20  C   UNL     1       0.949   1.224  24.125  0.00  0.00    +0.024 A 
ATOM     23  C   UNL     1       2.264   1.324  23.666  0.00  0.00    +0.057 A 
ATOM     24  C   UNL     1       0.052   0.369  23.483  0.00  0.00    +0.012 A 
ATOM     28  C   UNL     1       2.680   0.570  22.568  0.00  0.00    +0.121 A 
ATOM     29  C   UNL     1       0.468  -0.384  22.385  0.00  0.00    +0.004 A 
ATOM     31  C   UNL     1       1.782  -0.283  21.928  0.00  0.00    +0.045 A 
BRANCH  28   6
ATOM      6  O   UNL     1       3.962   0.669  22.122  0.00  0.00    -0.495 OA
ATOM     35  C   UNL     1       4.999   0.402  23.065  0.00  0.00    +0.277 C 
ENDBRANCH  28   6
ENDBRANCH  18  20
ENDBRANCH  14   7
BRANCH  15   8
ATOM      8  N   UNL     1      -5.732   2.826  24.217  0.00  0.00    -0.182 NA
ATOM     36  H   UNL     1      -6.328   3.662  24.158  0.00  0.00    +0.148 HD
BRANCH   8   1
ATOM      1  S   UNL     1      -5.623   1.995  25.693  0.00  0.00    +0.059 S 
ATOM      4  O   UNL     1      -6.937   1.515  26.075  0.00  0.00    -0.153 OA
ATOM      5  O   UNL     1      -4.839   2.790  26.619  0.00  0.00    -0.153 OA
BRANCH   1  19
ATOM     19  C   UNL     1      -4.637   0.595  25.252  0.00  0.00    +0.106 A 
ATOM     21  C   UNL     1      -3.398   0.428  25.847  0.00  0.00    +0.037 A 
ATOM     22  C   UNL     1      -5.120  -0.302  24.322  0.00  0.00    +0.029 A 
ATOM     25  C   UNL     1      -2.602  -0.678  25.507  0.00  0.00    -0.016 A 
ATOM     26  C   UNL     1      -4.344  -1.408  23.973  0.00  0.00    +0.010 A 
ATOM     27  C   UNL     1      -3.082  -1.610  24.556  0.00  0.00    -0.018 A 
ATOM     30  C   UNL     1      -1.341  -0.881  26.091  0.00  0.00    +0.008 A 
ATOM     32  C   UNL     1      -2.287  -2.717  24.216  0.00  0.00    +0.008 A 
ATOM     33  C   UNL     1      -0.563  -1.985  25.741  0.00  0.00    +0.001 A 
ATOM     34  C   UNL     1      -1.036  -2.901  24.805  0.00  0.00    +0.001 A 
ENDBRANCH   1  19
ENDBRANCH   8   1
ENDBRANCH  15   8
TORSDOF 6
ENDMDL
MODEL 5
REMARK VINA RESULT:       4.4      2.592      6.016
REMARK  Name = 11887301
REMARK  7 active torsions:
REMARK  status: ('A' for Active; 'I' for Inactive)
REMARK    1  A    between atoms: S_1  and  N_8
REMARK    2  A    between atoms: S_1  and  C_19
REMARK    3  A    between atoms: O_6  and  C_28
REMARK    4  A    between atoms: O_6  and  C_35
REMARK    5  A    between atoms: N_7  and  C_14
REMARK    6  A    between atoms: N_8  and  C_15
REMARK    7  A    between atoms: C_18  and  C_20
REMARK                            x       y       z     vdW  Elec       q    Type
REMARK                         _______ _______ _______ _____ _____    ______ ____
ROOT
ATOM      2  O   UNL     1      -2.797   2.186  23.176  0.00  0.00    -0.370 OA
ATOM      3  O   UNL     1      -4.788   0.008  24.300  0.00  0.00    -0.370 OA
ATOM     12  C   UNL     1      -4.218   1.219  24.829  0.00  0.00    +0.175 C 
ATOM     13  C   UNL     1      -2.795   1.310  24.313  0.00  0.00    +0.170 C 
ATOM     14  C   UNL     1      -4.922   2.423  24.232  0.00  0.00    +0.168 C 
ATOM     15  C   UNL     1      -2.459  -0.099  23.884  0.00  0.00    +0.133 C 
ATOM     16  C   UNL     1      -4.119   2.698  22.966  0.00  0.00    +0.190 C 
ATOM     17  C   UNL     1      -3.810  -0.664  23.494  0.00  0.00    +0.183 C 
ENDROOT
BRANCH  14   7
ATOM      7  N   UNL     1      -5.007   3.546  25.169  0.00  0.00    -0.217 N 
ATOM      9  N   UNL     1      -6.195   3.988  25.595  0.00  0.00    -0.043 NA
ATOM     10  N   UNL     1      -4.548   5.185  26.503  0.00  0.00    -0.108 NA
ATOM     11  N   UNL     1      -5.908   4.993  26.413  0.00  0.00    -0.023 NA
ATOM     18  C   UNL     1      -4.009   4.276  25.723  0.00  0.00    +0.182 A 
BRANCH  18  20
ATOM     20  C   UNL     1      -2.605   4.067  25.477  0.00  0.00    +0.024 A 
ATOM     23  C   UNL     1      -1.901   3.108  26.208  0.00  0.00    +0.057 A 
ATOM     24  C   UNL     1      -1.946   4.821  24.505  0.00  0.00    +0.012 A 
ATOM     28  C   UNL     1      -0.543   2.904  25.967  0.00  0.00    +0.121 A 
ATOM     29  C   UNL     1      -0.587   4.618  24.265  0.00  0.00    +0.004 A 
ATOM     31  C   UNL     1       0.114   3.659  24.996  0.00  0.00    +0.045 A 
BRANCH  28   6
ATOM      6  O   UNL     1       0.142   1.968  26.680  0.00  0.00    -0.495 OA
ATOM     35  C   UNL     1       0.769   2.402  27.886  0.00  0.00    +0.277 C 
ENDBRANCH  28   6
ENDBRANCH  18  20
ENDBRANCH  14   7
BRANCH  15   8
ATOM      8  N   UNL     1      -1.915  -0.860  25.035  0.00  0.00    -0.182 NA
ATOM     36  H   UNL     1      -1.955  -0.394  25.951  0.00  0.00    +0.148 HD
BRANCH   8   1
ATOM      1  S   UNL     1      -0.745  -2.063  24.774  0.00  0.00    +0.059 S 
ATOM      4  O   UNL     1      -1.206  -2.967  23.738  0.00  0.00    -0.153 OA
ATOM      5  O   UNL     1      -0.315  -2.582  26.058  0.00  0.00    -0.153 OA
BRANCH   1  19
ATOM     19  C   UNL     1       0.603  -1.124  24.119  0.00  0.00    +0.106 A 
ATOM     21  C   UNL     1       1.894  -1.601  24.271  0.00  0.00    +0.037 A 
ATOM     22  C   UNL     1       0.343   0.065  23.471  0.00  0.00    +0.029 A 
ATOM     25  C   UNL     1       2.976  -0.867  23.758  0.00  0.00    -0.016 A 
ATOM     26  C   UNL     1       1.405   0.807  22.953  0.00  0.00    +0.010 A 
ATOM     27  C   UNL     1       2.728   0.354  23.088  0.00  0.00    -0.018 A 
ATOM     30  C   UNL     1       4.299  -1.321  23.892  0.00  0.00    +0.008 A 
ATOM     32  C   UNL     1       3.810   1.089  22.575  0.00  0.00    +0.008 A 
ATOM     33  C   UNL     1       5.361  -0.579  23.377  0.00  0.00    +0.001 A 
ATOM     34  C   UNL     1       5.117   0.624  22.719  0.00  0.00    +0.001 A 
ENDBRANCH   1  19
ENDBRANCH   8   1
ENDBRANCH  15   8
TORSDOF 6
ENDMDL
