MODEL 1
REMARK VINA RESULT:      -0.3      0.000      0.000
REMARK  Name = 45783622
REMARK  10 active torsions:
REMARK  status: ('A' for Active; 'I' for Inactive)
REMARK    1  A    between atoms: O_2  and  C_23
REMARK    2  A    between atoms: O_2  and  C_28
REMARK    3  A    between atoms: O_3  and  C_30
REMARK    4  A    between atoms: O_3  and  C_31
REMARK    5  A    between atoms: N_5  and  C_14
REMARK    6  A    between atoms: N_9  and  C_27
REMARK    7  A    between atoms: C_10  and  C_15
REMARK    8  A    between atoms: C_14  and  C_16
REMARK    9  A    between atoms: C_19  and  C_22
REMARK   10  A    between atoms: C_29  and  C_30
REMARK                            x       y       z     vdW  Elec       q    Type
REMARK                         _______ _______ _______ _____ _____    ______ ____
ROOT
ATOM      1  O   UNL     1      -2.783   3.926  24.784  0.00  0.00    -0.336 OA
ATOM      6  N   UNL     1      -2.548   1.821  24.055  0.00  0.00    -0.190 NA
ATOM      7  N   UNL     1      -1.411   3.738  24.572  0.00  0.00    -0.056 NA
ATOM     15  C   UNL     1      -3.380   2.750  24.455  0.00  0.00    +0.245 A 
ATOM     19  C   UNL     1      -1.353   2.474  24.143  0.00  0.00    +0.204 A 
ENDROOT
BRANCH  19  22
ATOM      8  N   UNL     1       2.279   1.981  23.519  0.00  0.00    -0.239 NA
ATOM     22  C   UNL     1      -0.118   1.832  23.796  0.00  0.00    +0.041 A 
ATOM     24  C   UNL     1      -0.087   0.497  23.412  0.00  0.00    +0.016 A 
ATOM     25  C   UNL     1       1.082   2.525  23.834  0.00  0.00    +0.124 A 
ATOM     26  C   UNL     1       1.126  -0.098  23.082  0.00  0.00    +0.044 A 
ATOM     27  C   UNL     1       2.270   0.680  23.151  0.00  0.00    +0.125 A 
BRANCH  27   9
ATOM      4  O   UNL     1       5.074   1.297  24.054  0.00  0.00    -0.273 OA
ATOM      9  N   UNL     1       3.486   0.073  22.816  0.00  0.00    -0.268 N 
ATOM     29  C   UNL     1       4.767   0.403  23.270  0.00  0.00    +0.244 C 
ATOM     32  H   UNL     1       3.403  -0.701  22.161  0.00  0.00    +0.156 HD
BRANCH  29  30
ATOM     30  C   UNL     1       5.831  -0.489  22.668  0.00  0.00    +0.255 C 
BRANCH  30   3
ATOM      3  O   UNL     1       5.986  -1.630  23.486  0.00  0.00    -0.374 OA
ATOM     31  C   UNL     1       4.737  -2.090  23.996  0.00  0.00    +0.194 C 
ENDBRANCH  30   3
ENDBRANCH  29  30
ENDBRANCH  27   9
ENDBRANCH  19  22
BRANCH  15  10
ATOM      5  N   UNL     1      -5.338   1.529  25.384  0.00  0.00    -0.287 NA
ATOM     10  C   UNL     1      -4.886   2.694  24.598  0.00  0.00    +0.146 C 
ATOM     11  C   UNL     1      -5.458   3.915  25.342  0.00  0.00    +0.030 C 
ATOM     12  C   UNL     1      -6.266   3.336  26.494  0.00  0.00    +0.017 C 
ATOM     13  C   UNL     1      -6.588   1.928  26.032  0.00  0.00    +0.085 C 
BRANCH   5  14
ATOM     14  C   UNL     1      -5.498   0.322  24.584  0.00  0.00    +0.120 C 
BRANCH  14  16
ATOM     16  C   UNL     1      -4.315  -0.599  24.719  0.00  0.00    -0.033 A 
ATOM     17  C   UNL     1      -3.377  -0.387  25.729  0.00  0.00    +0.008 A 
ATOM     18  C   UNL     1      -4.158  -1.667  23.835  0.00  0.00    +0.008 A 
ATOM     20  C   UNL     1      -2.281  -1.241  25.855  0.00  0.00    +0.046 A 
ATOM     21  C   UNL     1      -3.062  -2.521  23.960  0.00  0.00    +0.046 A 
ATOM     23  C   UNL     1      -2.123  -2.308  24.969  0.00  0.00    +0.120 A 
BRANCH  23   2
ATOM      2  O   UNL     1      -1.055  -3.141  25.093  0.00  0.00    -0.495 OA
ATOM     28  C   UNL     1       0.178  -2.558  25.513  0.00  0.00    +0.277 C 
ENDBRANCH  23   2
ENDBRANCH  14  16
ENDBRANCH   5  14
ENDBRANCH  15  10
TORSDOF 8
ENDMDL
MODEL 2
REMARK VINA RESULT:       2.6      1.673      2.264
REMARK  Name = 45783622
REMARK  10 active torsions:
REMARK  status: ('A' for Active; 'I' for Inactive)
REMARK    1  A    between atoms: O_2  and  C_23
REMARK    2  A    between atoms: O_2  and  C_28
REMARK    3  A    between atoms: O_3  and  C_30
REMARK    4  A    between atoms: O_3  and  C_31
REMARK    5  A    between atoms: N_5  and  C_14
REMARK    6  A    between atoms: N_9  and  C_27
REMARK    7  A    between atoms: C_10  and  C_15
REMARK    8  A    between atoms: C_14  and  C_16
REMARK    9  A    between atoms: C_19  and  C_22
REMARK   10  A    between atoms: C_29  and  C_30
REMARK                            x       y       z     vdW  Elec       q    Type
REMARK                         _______ _______ _______ _____ _____    ______ ____
ROOT
ATOM      1  O   UNL     1      -2.670   1.572  22.909  0.00  0.00    -0.336 OA
ATOM      6  N   UNL     1      -0.925   2.426  24.024  0.00  0.00    -0.190 NA
ATOM      7  N   UNL     1      -1.540   0.888  22.446  0.00  0.00    -0.056 NA
ATOM     15  C   UNL     1      -2.220   2.460  23.836  0.00  0.00    +0.245 A 
ATOM     19  C   UNL     1      -0.552   1.447  23.151  0.00  0.00    +0.204 A 
ENDROOT
BRANCH  19  22
ATOM      8  N   UNL     1       3.163   1.609  23.217  0.00  0.00    -0.239 NA
ATOM     22  C   UNL     1       0.820   1.052  23.005  0.00  0.00    +0.041 A 
ATOM     24  C   UNL     1       1.156  -0.212  22.532  0.00  0.00    +0.016 A 
ATOM     25  C   UNL     1       1.852   1.918  23.331  0.00  0.00    +0.124 A 
ATOM     26  C   UNL     1       2.494  -0.566  22.401  0.00  0.00    +0.044 A 
ATOM     27  C   UNL     1       3.451   0.372  22.754  0.00  0.00    +0.125 A 
BRANCH  27   9
ATOM      4  O   UNL     1       5.479  -0.410  24.834  0.00  0.00    -0.273 OA
ATOM      9  N   UNL     1       4.795   0.006  22.618  0.00  0.00    -0.268 N 
ATOM     29  C   UNL     1       5.696  -0.351  23.628  0.00  0.00    +0.244 C 
ATOM     32  H   UNL     1       5.136   0.005  21.661  0.00  0.00    +0.156 HD
BRANCH  29  30
ATOM     30  C   UNL     1       7.067  -0.675  23.076  0.00  0.00    +0.255 C 
BRANCH  30   3
ATOM      3  O   UNL     1       7.979   0.312  23.512  0.00  0.00    -0.374 OA
ATOM     31  C   UNL     1       9.316   0.007  23.127  0.00  0.00    +0.194 C 
ENDBRANCH  30   3
ENDBRANCH  29  30
ENDBRANCH  27   9
ENDBRANCH  19  22
BRANCH  15  10
ATOM      5  N   UNL     1      -3.821   2.727  25.722  0.00  0.00    -0.287 NA
ATOM     10  C   UNL     1      -3.265   3.334  24.497  0.00  0.00    +0.146 C 
ATOM     11  C   UNL     1      -2.699   4.692  24.954  0.00  0.00    +0.030 C 
ATOM     12  C   UNL     1      -3.040   4.785  26.435  0.00  0.00    +0.017 C 
ATOM     13  C   UNL     1      -4.210   3.835  26.592  0.00  0.00    +0.085 C 
BRANCH   5  14
ATOM     14  C   UNL     1      -4.931   1.819  25.460  0.00  0.00    +0.120 C 
BRANCH  14  16
ATOM     16  C   UNL     1      -4.458   0.409  25.230  0.00  0.00    -0.033 A 
ATOM     17  C   UNL     1      -3.644  -0.217  26.173  0.00  0.00    +0.008 A 
ATOM     18  C   UNL     1      -4.835  -0.273  24.072  0.00  0.00    +0.008 A 
ATOM     20  C   UNL     1      -3.206  -1.525  25.960  0.00  0.00    +0.046 A 
ATOM     21  C   UNL     1      -4.397  -1.580  23.859  0.00  0.00    +0.046 A 
ATOM     23  C   UNL     1      -3.582  -2.206  24.802  0.00  0.00    +0.120 A 
BRANCH  23   2
ATOM      2  O   UNL     1      -3.156  -3.482  24.595  0.00  0.00    -0.495 OA
ATOM     28  C   UNL     1      -3.482  -4.079  23.340  0.00  0.00    +0.277 C 
ENDBRANCH  23   2
ENDBRANCH  14  16
ENDBRANCH   5  14
ENDBRANCH  15  10
TORSDOF 8
ENDMDL
