MODEL 1
REMARK VINA RESULT:      -1.7      0.000      0.000
REMARK  Name = 51137512
REMARK  7 active torsions:
REMARK  status: ('A' for Active; 'I' for Inactive)
REMARK    1  A    between atoms: O_2  and  C_28
REMARK    2  A    between atoms: O_2  and  C_29
REMARK    3  A    between atoms: N_3  and  C_11
REMARK    4  A    between atoms: N_4  and  C_20
REMARK    5  A    between atoms: C_7  and  C_12
REMARK    6  A    between atoms: C_11  and  C_13
REMARK    7  A    between atoms: C_18  and  C_23
REMARK                            x       y       z     vdW  Elec       q    Type
REMARK                         _______ _______ _______ _____ _____    ______ ____
ROOT
ATOM      3  N   UNL     1      -5.153 -10.107  15.941  0.00  0.00    -0.297 NA
ATOM      7  C   UNL     1      -3.717 -10.780  14.214  0.00  0.00    +0.092 C 
ATOM      8  C   UNL     1      -4.986  -9.964  14.493  0.00  0.00    +0.097 C 
ATOM      9  C   UNL     1      -2.952 -10.781  15.549  0.00  0.00    +0.029 C 
ATOM     10  C   UNL     1      -3.808  -9.947  16.494  0.00  0.00    +0.085 C 
ENDROOT
BRANCH   7  12
ATOM      1  O   UNL     1      -1.803  -9.555  13.305  0.00  0.00    -0.420 OA
ATOM      5  N   UNL     1      -3.172 -10.391  11.748  0.00  0.00    -0.112 NA
ATOM      6  N   UNL     1      -2.144  -9.729  11.102  0.00  0.00    -0.107 NA
ATOM     12  C   UNL     1      -2.932 -10.263  13.032  0.00  0.00    +0.222 A 
ATOM     18  C   UNL     1      -1.369  -9.257  12.051  0.00  0.00    +0.248 A 
BRANCH  18  23
ATOM     23  C   UNL     1      -0.160  -8.492  11.969  0.00  0.00    +0.039 A 
ATOM     24  C   UNL     1       0.853  -8.877  11.090  0.00  0.00    +0.017 A 
ATOM     25  C   UNL     1       0.004  -7.360  12.769  0.00  0.00    +0.017 A 
ATOM     26  C   UNL     1       2.030  -8.132  11.011  0.00  0.00    +0.046 A 
ATOM     27  C   UNL     1       1.181  -6.615  12.689  0.00  0.00    +0.046 A 
ATOM     28  C   UNL     1       2.193  -7.001  11.811  0.00  0.00    +0.120 A 
BRANCH  28   2
ATOM      2  O   UNL     1       3.340  -6.272  11.731  0.00  0.00    -0.495 OA
ATOM     29  C   UNL     1       4.569  -6.975  11.907  0.00  0.00    +0.277 C 
ENDBRANCH  28   2
ENDBRANCH  18  23
ENDBRANCH   7  12
BRANCH   3  11
ATOM     11  C   UNL     1      -6.095  -9.143  16.490  0.00  0.00    +0.121 C 
BRANCH  11  13
ATOM      4  N   UNL     1      -9.509 -10.375  17.090  0.00  0.00    -0.349 N 
ATOM     13  C   UNL     1      -7.510  -9.654  16.450  0.00  0.00    -0.008 A 
ATOM     14  C   UNL     1      -8.277  -9.931  15.284  0.00  0.00    +0.004 A 
ATOM     15  C   UNL     1      -8.295  -9.937  17.544  0.00  0.00    +0.091 A 
ATOM     16  C   UNL     1      -9.527 -10.383  15.713  0.00  0.00    +0.049 A 
ATOM     17  C   UNL     1      -8.028  -9.842  13.900  0.00  0.00    +0.010 A 
ATOM     19  C   UNL     1     -10.544 -10.750  14.825  0.00  0.00    +0.026 A 
ATOM     20  C   UNL     1     -10.605 -10.771  17.948  0.00  0.00    +0.149 C 
ATOM     21  C   UNL     1      -9.036 -10.206  12.999  0.00  0.00    +0.001 A 
ATOM     22  C   UNL     1     -10.274 -10.653  13.458  0.00  0.00    +0.002 A 
ENDBRANCH  11  13
ENDBRANCH   3  11
TORSDOF 5
ENDMDL
MODEL 2
REMARK VINA RESULT:      -1.3      1.575      2.087
REMARK  Name = 51137512
REMARK  7 active torsions:
REMARK  status: ('A' for Active; 'I' for Inactive)
REMARK    1  A    between atoms: O_2  and  C_28
REMARK    2  A    between atoms: O_2  and  C_29
REMARK    3  A    between atoms: N_3  and  C_11
REMARK    4  A    between atoms: N_4  and  C_20
REMARK    5  A    between atoms: C_7  and  C_12
REMARK    6  A    between atoms: C_11  and  C_13
REMARK    7  A    between atoms: C_18  and  C_23
REMARK                            x       y       z     vdW  Elec       q    Type
REMARK                         _______ _______ _______ _____ _____    ______ ____
ROOT
ATOM      3  N   UNL     1      -6.331 -10.647  13.946  0.00  0.00    -0.297 NA
ATOM      7  C   UNL     1      -4.201 -10.745  12.971  0.00  0.00    +0.092 C 
ATOM      8  C   UNL     1      -5.689 -10.583  12.631  0.00  0.00    +0.097 C 
ATOM      9  C   UNL     1      -4.079 -10.263  14.427  0.00  0.00    +0.029 C 
ATOM     10  C   UNL     1      -5.486  -9.832  14.819  0.00  0.00    +0.085 C 
ENDROOT
BRANCH   7  12
ATOM      1  O   UNL     1      -2.073  -9.651  12.451  0.00  0.00    -0.420 OA
ATOM      5  N   UNL     1      -3.499  -9.734  10.730  0.00  0.00    -0.112 NA
ATOM      6  N   UNL     1      -2.350  -9.096  10.302  0.00  0.00    -0.107 NA
ATOM     12  C   UNL     1      -3.293 -10.040  11.990  0.00  0.00    +0.222 A 
ATOM     18  C   UNL     1      -1.546  -9.071  11.339  0.00  0.00    +0.248 A 
BRANCH  18  23
ATOM     23  C   UNL     1      -0.223  -8.535  11.477  0.00  0.00    +0.039 A 
ATOM     24  C   UNL     1       0.790  -8.945  10.610  0.00  0.00    +0.017 A 
ATOM     25  C   UNL     1       0.051  -7.604  12.479  0.00  0.00    +0.017 A 
ATOM     26  C   UNL     1       2.077  -8.425  10.745  0.00  0.00    +0.046 A 
ATOM     27  C   UNL     1       1.338  -7.083  12.614  0.00  0.00    +0.046 A 
ATOM     28  C   UNL     1       2.351  -7.493  11.747  0.00  0.00    +0.120 A 
BRANCH  28   2
ATOM      2  O   UNL     1       3.606  -6.983  11.876  0.00  0.00    -0.495 OA
ATOM     29  C   UNL     1       3.714  -5.584  12.138  0.00  0.00    +0.277 C 
ENDBRANCH  28   2
ENDBRANCH  18  23
ENDBRANCH   7  12
BRANCH   3  11
ATOM     11  C   UNL     1      -7.709 -10.178  13.915  0.00  0.00    +0.121 C 
BRANCH  11  13
ATOM      4  N   UNL     1      -8.699 -10.215  17.458  0.00  0.00    -0.349 N 
ATOM     13  C   UNL     1      -8.257  -9.954  15.299  0.00  0.00    -0.008 A 
ATOM     14  C   UNL     1      -9.101  -8.885  15.713  0.00  0.00    +0.004 A 
ATOM     15  C   UNL     1      -8.028 -10.755  16.394  0.00  0.00    +0.091 A 
ATOM     16  C   UNL     1      -9.363  -9.074  17.071  0.00  0.00    +0.049 A 
ATOM     17  C   UNL     1      -9.669  -7.774  15.060  0.00  0.00    +0.010 A 
ATOM     19  C   UNL     1     -10.168  -8.201  17.813  0.00  0.00    +0.026 A 
ATOM     20  C   UNL     1      -8.699 -10.778  18.791  0.00  0.00    +0.149 C 
ATOM     21  C   UNL     1     -10.476  -6.892  15.789  0.00  0.00    +0.001 A 
ATOM     22  C   UNL     1     -10.720  -7.105  17.145  0.00  0.00    +0.002 A 
ENDBRANCH  11  13
ENDBRANCH   3  11
TORSDOF 5
ENDMDL
MODEL 3
REMARK VINA RESULT:      -0.1      1.809      2.813
REMARK  Name = 51137512
REMARK  7 active torsions:
REMARK  status: ('A' for Active; 'I' for Inactive)
REMARK    1  A    between atoms: O_2  and  C_28
REMARK    2  A    between atoms: O_2  and  C_29
REMARK    3  A    between atoms: N_3  and  C_11
REMARK    4  A    between atoms: N_4  and  C_20
REMARK    5  A    between atoms: C_7  and  C_12
REMARK    6  A    between atoms: C_11  and  C_13
REMARK    7  A    between atoms: C_18  and  C_23
REMARK                            x       y       z     vdW  Elec       q    Type
REMARK                         _______ _______ _______ _____ _____    ______ ____
ROOT
ATOM      3  N   UNL     1      -5.530 -10.509  14.665  0.00  0.00    -0.297 NA
ATOM      7  C   UNL     1      -3.608 -10.780  13.350  0.00  0.00    +0.092 C 
ATOM      8  C   UNL     1      -5.088 -10.381  13.275  0.00  0.00    +0.097 C 
ATOM      9  C   UNL     1      -3.200 -10.492  14.805  0.00  0.00    +0.029 C 
ATOM     10  C   UNL     1      -4.451  -9.923  15.460  0.00  0.00    +0.085 C 
ENDROOT
BRANCH   7  12
ATOM      1  O   UNL     1      -1.595  -9.534  12.727  0.00  0.00    -0.420 OA
ATOM      5  N   UNL     1      -2.973  -9.952  11.017  0.00  0.00    -0.112 NA
ATOM      6  N   UNL     1      -1.888  -9.248  10.529  0.00  0.00    -0.107 NA
ATOM     12  C   UNL     1      -2.760 -10.095  12.304  0.00  0.00    +0.222 A 
ATOM     18  C   UNL     1      -1.110  -9.027  11.562  0.00  0.00    +0.248 A 
BRANCH  18  23
ATOM     23  C   UNL     1       0.149  -8.345  11.650  0.00  0.00    +0.039 A 
ATOM     24  C   UNL     1       0.302  -7.271  12.528  0.00  0.00    +0.017 A 
ATOM     25  C   UNL     1       1.220  -8.755  10.856  0.00  0.00    +0.017 A 
ATOM     26  C   UNL     1       1.526  -6.608  12.612  0.00  0.00    +0.046 A 
ATOM     27  C   UNL     1       2.445  -8.093  10.941  0.00  0.00    +0.046 A 
ATOM     28  C   UNL     1       2.598  -7.019  11.819  0.00  0.00    +0.120 A 
BRANCH  28   2
ATOM      2  O   UNL     1       3.793  -6.374  11.904  0.00  0.00    -0.495 OA
ATOM     29  C   UNL     1       4.927  -7.156  12.277  0.00  0.00    +0.277 C 
ENDBRANCH  28   2
ENDBRANCH  18  23
ENDBRANCH   7  12
BRANCH   3  11
ATOM     11  C   UNL     1      -6.810  -9.858  14.904  0.00  0.00    +0.121 C 
BRANCH  11  13
ATOM      4  N   UNL     1      -9.419 -10.253  12.342  0.00  0.00    -0.349 N 
ATOM     13  C   UNL     1      -7.691  -9.886  13.684  0.00  0.00    -0.008 A 
ATOM     14  C   UNL     1      -7.374  -9.364  12.399  0.00  0.00    +0.004 A 
ATOM     15  C   UNL     1      -8.955 -10.427  13.617  0.00  0.00    +0.091 A 
ATOM     16  C   UNL     1      -8.475  -9.608  11.575  0.00  0.00    +0.049 A 
ATOM     17  C   UNL     1      -6.253  -8.707  11.855  0.00  0.00    +0.010 A 
ATOM     19  C   UNL     1      -8.512  -9.225  10.230  0.00  0.00    +0.026 A 
ATOM     20  C   UNL     1     -10.719 -10.692  11.882  0.00  0.00    +0.149 C 
ATOM     21  C   UNL     1      -6.275  -8.318  10.510  0.00  0.00    +0.001 A 
ATOM     22  C   UNL     1      -7.389  -8.574   9.713  0.00  0.00    +0.002 A 
ENDBRANCH  11  13
ENDBRANCH   3  11
TORSDOF 5
ENDMDL
MODEL 4
REMARK VINA RESULT:       1.9     13.651     15.388
REMARK  Name = 51137512
REMARK  7 active torsions:
REMARK  status: ('A' for Active; 'I' for Inactive)
REMARK    1  A    between atoms: O_2  and  C_28
REMARK    2  A    between atoms: O_2  and  C_29
REMARK    3  A    between atoms: N_3  and  C_11
REMARK    4  A    between atoms: N_4  and  C_20
REMARK    5  A    between atoms: C_7  and  C_12
REMARK    6  A    between atoms: C_11  and  C_13
REMARK    7  A    between atoms: C_18  and  C_23
REMARK                            x       y       z     vdW  Elec       q    Type
REMARK                         _______ _______ _______ _____ _____    ______ ____
ROOT
ATOM      3  N   UNL     1      -4.937   2.201  25.331  0.00  0.00    -0.297 NA
ATOM      7  C   UNL     1      -3.184   3.661  24.789  0.00  0.00    +0.092 C 
ATOM      8  C   UNL     1      -3.555   2.495  25.716  0.00  0.00    +0.097 C 
ATOM      9  C   UNL     1      -4.121   3.510  23.578  0.00  0.00    +0.029 C 
ATOM     10  C   UNL     1      -4.943   2.261  23.869  0.00  0.00    +0.085 C 
ENDROOT
BRANCH   7  12
ATOM      1  O   UNL     1      -1.107   2.510  24.194  0.00  0.00    -0.420 OA
ATOM      5  N   UNL     1      -0.901   4.730  24.367  0.00  0.00    -0.112 NA
ATOM      6  N   UNL     1       0.335   4.211  24.030  0.00  0.00    -0.107 NA
ATOM     12  C   UNL     1      -1.712   3.701  24.453  0.00  0.00    +0.222 A 
ATOM     18  C   UNL     1       0.167   2.912  23.940  0.00  0.00    +0.248 A 
BRANCH  18  23
ATOM     23  C   UNL     1       1.102   1.873  23.620  0.00  0.00    +0.039 A 
ATOM     24  C   UNL     1       2.439   2.188  23.378  0.00  0.00    +0.017 A 
ATOM     25  C   UNL     1       0.674   0.547  23.551  0.00  0.00    +0.017 A 
ATOM     26  C   UNL     1       3.349   1.177  23.067  0.00  0.00    +0.046 A 
ATOM     27  C   UNL     1       1.583  -0.464  23.241  0.00  0.00    +0.046 A 
ATOM     28  C   UNL     1       2.920  -0.149  22.998  0.00  0.00    +0.120 A 
BRANCH  28   2
ATOM      2  O   UNL     1       3.808  -1.136  22.698  0.00  0.00    -0.495 OA
ATOM     29  C   UNL     1       4.794  -1.444  23.682  0.00  0.00    +0.277 C 
ENDBRANCH  28   2
ENDBRANCH  18  23
ENDBRANCH   7  12
BRANCH   3  11
ATOM     11  C   UNL     1      -5.392   0.912  25.834  0.00  0.00    +0.121 C 
BRANCH  11  13
ATOM      4  N   UNL     1      -4.211  -1.997  23.916  0.00  0.00    -0.349 N 
ATOM     13  C   UNL     1      -4.661  -0.233  25.186  0.00  0.00    -0.008 A 
ATOM     14  C   UNL     1      -3.308  -0.612  25.415  0.00  0.00    +0.004 A 
ATOM     15  C   UNL     1      -5.189  -1.103  24.260  0.00  0.00    +0.091 A 
ATOM     16  C   UNL     1      -3.052  -1.721  24.606  0.00  0.00    +0.049 A 
ATOM     17  C   UNL     1      -2.276  -0.117  26.235  0.00  0.00    +0.010 A 
ATOM     19  C   UNL     1      -1.809  -2.363  24.577  0.00  0.00    +0.026 A 
ATOM     20  C   UNL     1      -4.388  -3.071  22.963  0.00  0.00    +0.149 C 
ATOM     21  C   UNL     1      -1.026  -0.749  26.215  0.00  0.00    +0.001 A 
ATOM     22  C   UNL     1      -0.799  -1.854  25.398  0.00  0.00    +0.002 A 
ENDBRANCH  11  13
ENDBRANCH   3  11
TORSDOF 5
ENDMDL
MODEL 5
REMARK VINA RESULT:       2.1     14.133     15.976
REMARK  Name = 51137512
REMARK  7 active torsions:
REMARK  status: ('A' for Active; 'I' for Inactive)
REMARK    1  A    between atoms: O_2  and  C_28
REMARK    2  A    between atoms: O_2  and  C_29
REMARK    3  A    between atoms: N_3  and  C_11
REMARK    4  A    between atoms: N_4  and  C_20
REMARK    5  A    between atoms: C_7  and  C_12
REMARK    6  A    between atoms: C_11  and  C_13
REMARK    7  A    between atoms: C_18  and  C_23
REMARK                            x       y       z     vdW  Elec       q    Type
REMARK                         _______ _______ _______ _____ _____    ______ ____
ROOT
ATOM      3  N   UNL     1      -4.885   1.573  24.475  0.00  0.00    -0.297 NA
ATOM      7  C   UNL     1      -3.630  -0.279  23.773  0.00  0.00    +0.092 C 
ATOM      8  C   UNL     1      -3.566   1.246  23.929  0.00  0.00    +0.097 C 
ATOM      9  C   UNL     1      -4.688  -0.731  24.794  0.00  0.00    +0.029 C 
ATOM     10  C   UNL     1      -5.139   0.548  25.487  0.00  0.00    +0.085 C 
ENDROOT
BRANCH   7  12
ATOM      1  O   UNL     1      -1.190  -0.204  23.581  0.00  0.00    -0.420 OA
ATOM      5  N   UNL     1      -1.986  -2.154  24.332  0.00  0.00    -0.112 NA
ATOM      6  N   UNL     1      -0.608  -2.250  24.272  0.00  0.00    -0.107 NA
ATOM     12  C   UNL     1      -2.281  -0.944  23.919  0.00  0.00    +0.222 A 
ATOM     18  C   UNL     1      -0.187  -1.088  23.828  0.00  0.00    +0.248 A 
BRANCH  18  23
ATOM     23  C   UNL     1       1.143  -0.618  23.570  0.00  0.00    +0.039 A 
ATOM     24  C   UNL     1       1.352   0.705  23.180  0.00  0.00    +0.017 A 
ATOM     25  C   UNL     1       2.227  -1.484  23.708  0.00  0.00    +0.017 A 
ATOM     26  C   UNL     1       2.646   1.162  22.928  0.00  0.00    +0.046 A 
ATOM     27  C   UNL     1       3.521  -1.027  23.458  0.00  0.00    +0.046 A 
ATOM     28  C   UNL     1       3.730   0.296  23.067  0.00  0.00    +0.120 A 
BRANCH  28   2
ATOM      2  O   UNL     1       4.993   0.743  22.825  0.00  0.00    -0.495 OA
ATOM     29  C   UNL     1       6.062   0.041  23.458  0.00  0.00    +0.277 C 
ENDBRANCH  28   2
ENDBRANCH  18  23
ENDBRANCH   7  12
BRANCH   3  11
ATOM     11  C   UNL     1      -4.940   2.920  25.026  0.00  0.00    +0.121 C 
BRANCH  11  13
ATOM      4  N   UNL     1      -1.965   5.074  24.821  0.00  0.00    -0.349 N 
ATOM     13  C   UNL     1      -3.585   3.574  25.048  0.00  0.00    -0.008 A 
ATOM     14  C   UNL     1      -2.366   2.982  25.484  0.00  0.00    +0.004 A 
ATOM     15  C   UNL     1      -3.306   4.860  24.645  0.00  0.00    +0.091 A 
ATOM     16  C   UNL     1      -1.366   3.945  25.331  0.00  0.00    +0.049 A 
ATOM     17  C   UNL     1      -2.017   1.717  25.996  0.00  0.00    +0.010 A 
ATOM     19  C   UNL     1      -0.029   3.704  25.666  0.00  0.00    +0.026 A 
ATOM     20  C   UNL     1      -1.291   6.316  24.508  0.00  0.00    +0.149 C 
ATOM     21  C   UNL     1      -0.683   1.462  26.336  0.00  0.00    +0.001 A 
ATOM     22  C   UNL     1       0.294   2.442  26.172  0.00  0.00    +0.002 A 
ENDBRANCH  11  13
ENDBRANCH   3  11
TORSDOF 5
ENDMDL
