MODEL 1
REMARK VINA RESULT:      -4.9      0.000      0.000
REMARK  Name = 40777341
REMARK  9 active torsions:
REMARK  status: ('A' for Active; 'I' for Inactive)
REMARK    1  A    between atoms: N_5  and  C_24
REMARK    2  A    between atoms: C_6  and  C_10
REMARK    3  A    between atoms: C_7  and  C_13
REMARK    4  A    between atoms: C_10  and  C_20
REMARK    5  A    between atoms: C_11  and  C_18
REMARK    6  A    between atoms: C_13  and  C_23
REMARK    7  A    between atoms: C_18  and  C_21
REMARK    8  A    between atoms: C_24  and  C_25
REMARK    9  A    between atoms: C_24  and  C_26
REMARK                            x       y       z     vdW  Elec       q    Type
REMARK                         _______ _______ _______ _____ _____    ______ ____
ROOT
ATOM      3  N   UNL     1      -0.489   4.852  24.671  0.00  0.00    -0.316 NA
ATOM      6  C   UNL     1      -1.222   2.841  25.929  0.00  0.00    +0.012 C 
ATOM      7  C   UNL     1      -2.693   3.081  25.514  0.00  0.00    +0.004 C 
ATOM      8  C   UNL     1      -2.887   4.573  25.193  0.00  0.00    +0.019 C 
ATOM      9  C   UNL     1      -0.239   3.429  24.903  0.00  0.00    +0.085 C 
ATOM     12  C   UNL     1      -1.851   5.095  24.198  0.00  0.00    +0.081 C 
ATOM     27  H   UNL     1       0.175   5.203  23.980  0.00  0.00    +0.122 HD
ENDROOT
BRANCH   6  10
ATOM     10  C   UNL     1      -0.906   1.368  26.192  0.00  0.00    +0.064 C 
BRANCH  10  20
ATOM      1  O   UNL     1       0.174  -0.795  23.524  0.00  0.00    -0.359 OA
ATOM      4  N   UNL     1      -0.596  -0.517  24.647  0.00  0.00    -0.083 NA
ATOM     20  C   UNL     1      -0.259   0.726  24.999  0.00  0.00    +0.084 A 
ATOM     21  C   UNL     1       0.948   0.283  23.234  0.00  0.00    +0.138 A 
ATOM     22  C   UNL     1       0.711   1.279  24.144  0.00  0.00    +0.071 A 
BRANCH  21  18
ATOM     18  C   UNL     1       1.830   0.161  22.068  0.00  0.00    +0.080 C 
BRANCH  18  11
ATOM     11  C   UNL     1       3.272  -0.184  22.438  0.00  0.00    -0.004 C 
ATOM     14  C   UNL     1       3.309  -1.298  23.494  0.00  0.00    +0.004 C 
ATOM     15  C   UNL     1       4.019   1.062  22.930  0.00  0.00    +0.004 C 
ATOM     16  C   UNL     1       4.738  -1.624  23.919  0.00  0.00    +0.000 C 
ATOM     17  C   UNL     1       5.447   0.732  23.357  0.00  0.00    +0.000 C 
ATOM     19  C   UNL     1       5.480  -0.381  24.401  0.00  0.00    +0.000 C 
ENDBRANCH  18  11
ENDBRANCH  21  18
ENDBRANCH  10  20
ENDBRANCH   6  10
BRANCH   7  13
ATOM     13  C   UNL     1      -3.162   2.206  24.345  0.00  0.00    +0.099 C 
BRANCH  13  23
ATOM      2  O   UNL     1      -5.100   1.208  25.395  0.00  0.00    -0.276 OA
ATOM      5  N   UNL     1      -3.467  -0.166  24.473  0.00  0.00    -0.313 N 
ATOM     23  C   UNL     1      -4.034   1.057  24.804  0.00  0.00    +0.213 C 
ATOM     28  H   UNL     1      -2.608  -0.178  23.931  0.00  0.00    +0.149 HD
BRANCH   5  24
ATOM     24  C   UNL     1      -4.083  -1.433  24.793  0.00  0.00    +0.067 C 
ATOM     25  C   UNL     1      -3.252  -2.179  25.828  0.00  0.00    +0.027 C 
ATOM     26  C   UNL     1      -4.273  -2.267  23.532  0.00  0.00    +0.027 C 
ENDBRANCH   5  24
ENDBRANCH  13  23
ENDBRANCH   7  13
TORSDOF 7
ENDMDL
MODEL 2
REMARK VINA RESULT:      -4.9      1.512      4.039
REMARK  Name = 40777341
REMARK  9 active torsions:
REMARK  status: ('A' for Active; 'I' for Inactive)
REMARK    1  A    between atoms: N_5  and  C_24
REMARK    2  A    between atoms: C_6  and  C_10
REMARK    3  A    between atoms: C_7  and  C_13
REMARK    4  A    between atoms: C_10  and  C_20
REMARK    5  A    between atoms: C_11  and  C_18
REMARK    6  A    between atoms: C_13  and  C_23
REMARK    7  A    between atoms: C_18  and  C_21
REMARK    8  A    between atoms: C_24  and  C_25
REMARK    9  A    between atoms: C_24  and  C_26
REMARK                            x       y       z     vdW  Elec       q    Type
REMARK                         _______ _______ _______ _____ _____    ______ ____
ROOT
ATOM      3  N   UNL     1      -3.179  -3.407  24.618  0.00  0.00    -0.316 NA
ATOM      6  C   UNL     1      -2.261  -1.100  24.585  0.00  0.00    +0.012 C 
ATOM      7  C   UNL     1      -3.645  -0.523  24.205  0.00  0.00    +0.004 C 
ATOM      8  C   UNL     1      -4.472  -1.618  23.509  0.00  0.00    +0.019 C 
ATOM      9  C   UNL     1      -2.390  -2.423  25.360  0.00  0.00    +0.085 C 
ATOM     12  C   UNL     1      -4.522  -2.913  24.318  0.00  0.00    +0.081 C 
ATOM     27  H   UNL     1      -3.250  -4.265  25.165  0.00  0.00    +0.122 HD
ENDROOT
BRANCH   6  10
ATOM     10  C   UNL     1      -1.390  -0.109  25.358  0.00  0.00    +0.064 C 
BRANCH  10  20
ATOM      1  O   UNL     1       1.361   1.665  23.857  0.00  0.00    -0.359 OA
ATOM      4  N   UNL     1       0.341   1.541  24.793  0.00  0.00    -0.083 NA
ATOM     20  C   UNL     1      -0.231   0.364  24.528  0.00  0.00    +0.084 A 
ATOM     21  C   UNL     1       1.373   0.565  23.060  0.00  0.00    +0.138 A 
ATOM     22  C   UNL     1       0.378  -0.294  23.445  0.00  0.00    +0.071 A 
BRANCH  21  18
ATOM     18  C   UNL     1       2.395   0.530  22.008  0.00  0.00    +0.080 C 
BRANCH  18  11
ATOM     11  C   UNL     1       3.722  -0.061  22.479  0.00  0.00    -0.004 C 
ATOM     14  C   UNL     1       3.483  -1.207  23.472  0.00  0.00    +0.004 C 
ATOM     15  C   UNL     1       4.610   1.025  23.100  0.00  0.00    +0.004 C 
ATOM     16  C   UNL     1       4.797  -1.780  23.998  0.00  0.00    +0.000 C 
ATOM     17  C   UNL     1       5.922   0.449  23.628  0.00  0.00    +0.000 C 
ATOM     19  C   UNL     1       5.681  -0.695  24.608  0.00  0.00    +0.000 C 
ENDBRANCH  18  11
ENDBRANCH  21  18
ENDBRANCH  10  20
ENDBRANCH   6  10
BRANCH   7  13
ATOM     13  C   UNL     1      -4.417   0.075  25.387  0.00  0.00    +0.099 C 
BRANCH  13  23
ATOM      2  O   UNL     1      -5.876   1.977  25.060  0.00  0.00    -0.276 OA
ATOM      5  N   UNL     1      -3.577   2.305  25.147  0.00  0.00    -0.313 N 
ATOM     23  C   UNL     1      -4.735   1.541  25.181  0.00  0.00    +0.213 C 
ATOM     28  H   UNL     1      -2.684   1.850  25.317  0.00  0.00    +0.149 HD
BRANCH   5  24
ATOM     24  C   UNL     1      -3.582   3.737  24.959  0.00  0.00    +0.067 C 
ATOM     25  C   UNL     1      -3.821   4.079  23.495  0.00  0.00    +0.027 C 
ATOM     26  C   UNL     1      -2.279   4.346  25.463  0.00  0.00    +0.027 C 
ENDBRANCH   5  24
ENDBRANCH  13  23
ENDBRANCH   7  13
TORSDOF 7
ENDMDL
MODEL 3
REMARK VINA RESULT:      -4.4      1.811      2.791
REMARK  Name = 40777341
REMARK  9 active torsions:
REMARK  status: ('A' for Active; 'I' for Inactive)
REMARK    1  A    between atoms: N_5  and  C_24
REMARK    2  A    between atoms: C_6  and  C_10
REMARK    3  A    between atoms: C_7  and  C_13
REMARK    4  A    between atoms: C_10  and  C_20
REMARK    5  A    between atoms: C_11  and  C_18
REMARK    6  A    between atoms: C_13  and  C_23
REMARK    7  A    between atoms: C_18  and  C_21
REMARK    8  A    between atoms: C_24  and  C_25
REMARK    9  A    between atoms: C_24  and  C_26
REMARK                            x       y       z     vdW  Elec       q    Type
REMARK                         _______ _______ _______ _____ _____    ______ ____
ROOT
ATOM      3  N   UNL     1      -5.834   3.654  25.722  0.00  0.00    -0.316 NA
ATOM      6  C   UNL     1      -3.417   3.198  25.379  0.00  0.00    +0.012 C 
ATOM      7  C   UNL     1      -3.694   1.682  25.240  0.00  0.00    +0.004 C 
ATOM      8  C   UNL     1      -5.004   1.341  25.970  0.00  0.00    +0.019 C 
ATOM      9  C   UNL     1      -4.639   4.037  24.969  0.00  0.00    +0.085 C 
ATOM     12  C   UNL     1      -6.162   2.241  25.540  0.00  0.00    +0.081 C 
ATOM     27  H   UNL     1      -6.622   4.225  25.417  0.00  0.00    +0.122 HD
ENDROOT
BRANCH   6  10
ATOM     10  C   UNL     1      -2.173   3.653  24.616  0.00  0.00    +0.064 C 
BRANCH  10  20
ATOM      1  O   UNL     1       0.133   0.919  25.034  0.00  0.00    -0.359 OA
ATOM      4  N   UNL     1      -0.741   1.878  25.531  0.00  0.00    -0.083 NA
ATOM     20  C   UNL     1      -1.189   2.529  24.455  0.00  0.00    +0.084 A 
ATOM     21  C   UNL     1       0.186   1.021  23.680  0.00  0.00    +0.138 A 
ATOM     22  C   UNL     1      -0.637   2.032  23.261  0.00  0.00    +0.071 A 
BRANCH  21  18
ATOM     18  C   UNL     1       1.069   0.076  22.986  0.00  0.00    +0.080 C 
BRANCH  18  11
ATOM     11  C   UNL     1       2.506   0.106  23.502  0.00  0.00    -0.004 C 
ATOM     14  C   UNL     1       3.355   1.090  22.685  0.00  0.00    +0.004 C 
ATOM     15  C   UNL     1       3.121  -1.300  23.476  0.00  0.00    +0.004 C 
ATOM     16  C   UNL     1       4.810   1.099  23.148  0.00  0.00    +0.000 C 
ATOM     17  C   UNL     1       4.577  -1.287  23.937  0.00  0.00    +0.000 C 
ATOM     19  C   UNL     1       5.415  -0.302  23.128  0.00  0.00    +0.000 C 
ENDBRANCH  18  11
ENDBRANCH  21  18
ENDBRANCH  10  20
ENDBRANCH   6  10
BRANCH   7  13
ATOM     13  C   UNL     1      -3.731   1.185  23.791  0.00  0.00    +0.099 C 
BRANCH  13  23
ATOM      2  O   UNL     1      -4.288  -1.039  23.017  0.00  0.00    -0.276 OA
ATOM      5  N   UNL     1      -2.494  -0.751  24.467  0.00  0.00    -0.313 N 
ATOM     23  C   UNL     1      -3.562  -0.316  23.694  0.00  0.00    +0.213 C 
ATOM     28  H   UNL     1      -1.920  -0.061  24.943  0.00  0.00    +0.149 HD
BRANCH   5  24
ATOM     24  C   UNL     1      -2.104  -2.139  24.564  0.00  0.00    +0.067 C 
ATOM     25  C   UNL     1      -3.168  -2.936  25.308  0.00  0.00    +0.027 C 
ATOM     26  C   UNL     1      -0.745  -2.265  25.241  0.00  0.00    +0.027 C 
ENDBRANCH   5  24
ENDBRANCH  13  23
ENDBRANCH   7  13
TORSDOF 7
ENDMDL
MODEL 4
REMARK VINA RESULT:      -3.4      2.065      7.408
REMARK  Name = 40777341
REMARK  9 active torsions:
REMARK  status: ('A' for Active; 'I' for Inactive)
REMARK    1  A    between atoms: N_5  and  C_24
REMARK    2  A    between atoms: C_6  and  C_10
REMARK    3  A    between atoms: C_7  and  C_13
REMARK    4  A    between atoms: C_10  and  C_20
REMARK    5  A    between atoms: C_11  and  C_18
REMARK    6  A    between atoms: C_13  and  C_23
REMARK    7  A    between atoms: C_18  and  C_21
REMARK    8  A    between atoms: C_24  and  C_25
REMARK    9  A    between atoms: C_24  and  C_26
REMARK                            x       y       z     vdW  Elec       q    Type
REMARK                         _______ _______ _______ _____ _____    ______ ____
ROOT
ATOM      3  N   UNL     1      -2.542  -0.838  25.573  0.00  0.00    -0.316 NA
ATOM      6  C   UNL     1      -0.375   0.345  25.312  0.00  0.00    +0.012 C 
ATOM      7  C   UNL     1       0.152  -0.767  24.374  0.00  0.00    +0.004 C 
ATOM      8  C   UNL     1      -0.603  -2.073  24.670  0.00  0.00    +0.019 C 
ATOM      9  C   UNL     1      -1.909   0.445  25.267  0.00  0.00    +0.085 C 
ATOM     12  C   UNL     1      -2.120  -1.887  24.647  0.00  0.00    +0.081 C 
ATOM     27  H   UNL     1      -3.556  -0.735  25.525  0.00  0.00    +0.122 HD
ENDROOT
BRANCH   6  10
ATOM     10  C   UNL     1       0.259   1.710  25.040  0.00  0.00    +0.064 C 
BRANCH  10  20
ATOM      1  O   UNL     1      -1.631   4.767  25.252  0.00  0.00    -0.359 OA
ATOM      4  N   UNL     1      -0.470   4.024  25.427  0.00  0.00    -0.083 NA
ATOM     20  C   UNL     1      -0.777   2.796  25.000  0.00  0.00    +0.084 A 
ATOM     21  C   UNL     1      -2.598   3.969  24.728  0.00  0.00    +0.138 A 
ATOM     22  C   UNL     1      -2.105   2.704  24.549  0.00  0.00    +0.071 A 
BRANCH  21  18
ATOM     18  C   UNL     1      -3.900   4.597  24.478  0.00  0.00    +0.080 C 
BRANCH  18  11
ATOM     11  C   UNL     1      -5.081   3.704  24.852  0.00  0.00    -0.004 C 
ATOM     14  C   UNL     1      -5.115   3.457  26.367  0.00  0.00    +0.004 C 
ATOM     15  C   UNL     1      -5.023   2.377  24.083  0.00  0.00    +0.004 C 
ATOM     16  C   UNL     1      -6.257   2.522  26.760  0.00  0.00    +0.000 C 
ATOM     17  C   UNL     1      -6.165   1.444  24.480  0.00  0.00    +0.000 C 
ATOM     19  C   UNL     1      -6.200   1.208  25.986  0.00  0.00    +0.000 C 
ENDBRANCH  18  11
ENDBRANCH  21  18
ENDBRANCH  10  20
ENDBRANCH   6  10
BRANCH   7  13
ATOM     13  C   UNL     1       0.073  -0.415  22.884  0.00  0.00    +0.099 C 
BRANCH  13  23
ATOM      2  O   UNL     1       1.611  -0.336  21.018  0.00  0.00    -0.276 OA
ATOM      5  N   UNL     1       2.448  -0.358  23.186  0.00  0.00    -0.313 N 
ATOM     23  C   UNL     1       1.439  -0.364  22.234  0.00  0.00    +0.213 C 
ATOM     28  H   UNL     1       2.195  -0.324  24.169  0.00  0.00    +0.149 HD
BRANCH   5  24
ATOM     24  C   UNL     1       3.852  -0.316  22.848  0.00  0.00    +0.067 C 
ATOM     25  C   UNL     1       4.669  -1.079  23.881  0.00  0.00    +0.027 C 
ATOM     26  C   UNL     1       4.328   1.127  22.724  0.00  0.00    +0.027 C 
ENDBRANCH   5  24
ENDBRANCH  13  23
ENDBRANCH   7  13
TORSDOF 7
ENDMDL
MODEL 5
REMARK VINA RESULT:      -2.1      2.837      4.793
REMARK  Name = 40777341
REMARK  9 active torsions:
REMARK  status: ('A' for Active; 'I' for Inactive)
REMARK    1  A    between atoms: N_5  and  C_24
REMARK    2  A    between atoms: C_6  and  C_10
REMARK    3  A    between atoms: C_7  and  C_13
REMARK    4  A    between atoms: C_10  and  C_20
REMARK    5  A    between atoms: C_11  and  C_18
REMARK    6  A    between atoms: C_13  and  C_23
REMARK    7  A    between atoms: C_18  and  C_21
REMARK    8  A    between atoms: C_24  and  C_25
REMARK    9  A    between atoms: C_24  and  C_26
REMARK                            x       y       z     vdW  Elec       q    Type
REMARK                         _______ _______ _______ _____ _____    ______ ____
ROOT
ATOM      3  N   UNL     1      -2.983   2.845  22.162  0.00  0.00    -0.316 NA
ATOM      6  C   UNL     1      -1.091   3.515  23.624  0.00  0.00    +0.012 C 
ATOM      7  C   UNL     1      -2.059   4.230  24.597  0.00  0.00    +0.004 C 
ATOM      8  C   UNL     1      -3.335   4.627  23.835  0.00  0.00    +0.019 C 
ATOM      9  C   UNL     1      -1.790   2.373  22.866  0.00  0.00    +0.085 C 
ATOM     12  C   UNL     1      -3.949   3.452  23.075  0.00  0.00    +0.081 C 
ATOM     27  H   UNL     1      -3.422   2.061  21.680  0.00  0.00    +0.122 HD
ENDROOT
BRANCH   6  10
ATOM     10  C   UNL     1       0.179   3.007  24.307  0.00  0.00    +0.064 C 
BRANCH  10  20
ATOM      1  O   UNL     1       0.816  -0.506  23.843  0.00  0.00    -0.359 OA
ATOM      4  N   UNL     1       1.033   0.833  23.544  0.00  0.00    -0.083 NA
ATOM     20  C   UNL     1       0.212   1.506  24.354  0.00  0.00    +0.084 A 
ATOM     21  C   UNL     1      -0.125  -0.600  24.818  0.00  0.00    +0.138 A 
ATOM     22  C   UNL     1      -0.543   0.653  25.178  0.00  0.00    +0.071 A 
BRANCH  21  18
ATOM     18  C   UNL     1      -0.479  -1.954  25.259  0.00  0.00    +0.080 C 
BRANCH  18  11
ATOM     11  C   UNL     1      -1.979  -2.236  25.193  0.00  0.00    -0.004 C 
ATOM     14  C   UNL     1      -2.323  -3.053  23.940  0.00  0.00    +0.004 C 
ATOM     15  C   UNL     1      -2.779  -0.927  25.229  0.00  0.00    +0.004 C 
ATOM     16  C   UNL     1      -3.824  -3.303  23.824  0.00  0.00    +0.000 C 
ATOM     17  C   UNL     1      -4.280  -1.180  25.111  0.00  0.00    +0.000 C 
ATOM     19  C   UNL     1      -4.617  -1.999  23.869  0.00  0.00    +0.000 C 
ENDBRANCH  18  11
ENDBRANCH  21  18
ENDBRANCH  10  20
ENDBRANCH   6  10
BRANCH   7  13
ATOM     13  C   UNL     1      -2.402   3.413  25.848  0.00  0.00    +0.099 C 
BRANCH  13  23
ATOM      2  O   UNL     1      -4.344   4.383  26.917  0.00  0.00    -0.276 OA
ATOM      5  N   UNL     1      -4.589   2.464  25.629  0.00  0.00    -0.313 N 
ATOM     23  C   UNL     1      -3.870   3.501  26.205  0.00  0.00    +0.213 C 
ATOM     28  H   UNL     1      -4.109   1.819  25.007  0.00  0.00    +0.149 HD
BRANCH   5  24
ATOM     24  C   UNL     1      -6.014   2.298  25.805  0.00  0.00    +0.067 C 
ATOM     25  C   UNL     1      -6.302   1.508  27.074  0.00  0.00    +0.027 C 
ATOM     26  C   UNL     1      -6.628   1.625  24.583  0.00  0.00    +0.027 C 
ENDBRANCH   5  24
ENDBRANCH  13  23
ENDBRANCH   7  13
TORSDOF 7
ENDMDL
MODEL 6
REMARK VINA RESULT:      -1.9      2.808      5.827
REMARK  Name = 40777341
REMARK  9 active torsions:
REMARK  status: ('A' for Active; 'I' for Inactive)
REMARK    1  A    between atoms: N_5  and  C_24
REMARK    2  A    between atoms: C_6  and  C_10
REMARK    3  A    between atoms: C_7  and  C_13
REMARK    4  A    between atoms: C_10  and  C_20
REMARK    5  A    between atoms: C_11  and  C_18
REMARK    6  A    between atoms: C_13  and  C_23
REMARK    7  A    between atoms: C_18  and  C_21
REMARK    8  A    between atoms: C_24  and  C_25
REMARK    9  A    between atoms: C_24  and  C_26
REMARK                            x       y       z     vdW  Elec       q    Type
REMARK                         _______ _______ _______ _____ _____    ______ ____
ROOT
ATOM      3  N   UNL     1      -3.961  -3.701  24.263  0.00  0.00    -0.316 NA
ATOM      6  C   UNL     1      -1.935  -2.268  24.181  0.00  0.00    +0.012 C 
ATOM      7  C   UNL     1      -2.794  -1.022  23.862  0.00  0.00    +0.004 C 
ATOM      8  C   UNL     1      -4.110  -1.473  23.208  0.00  0.00    +0.019 C 
ATOM      9  C   UNL     1      -2.734  -3.323  24.965  0.00  0.00    +0.085 C 
ATOM     12  C   UNL     1      -4.827  -2.549  24.023  0.00  0.00    +0.081 C 
ATOM     27  H   UNL     1      -4.466  -4.393  24.816  0.00  0.00    +0.122 HD
ENDROOT
BRANCH   6  10
ATOM     10  C   UNL     1      -0.634  -1.930  24.910  0.00  0.00    +0.064 C 
BRANCH  10  20
ATOM      1  O   UNL     1       0.944   0.934  23.401  0.00  0.00    -0.359 OA
ATOM      4  N   UNL     1       0.676  -0.428  23.473  0.00  0.00    -0.083 NA
ATOM     20  C   UNL     1      -0.131  -0.567  24.527  0.00  0.00    +0.084 A 
ATOM     21  C   UNL     1       0.294   1.571  24.409  0.00  0.00    +0.138 A 
ATOM     22  C   UNL     1      -0.405   0.660  25.156  0.00  0.00    +0.071 A 
BRANCH  21  18
ATOM     18  C   UNL     1       0.467   3.026  24.484  0.00  0.00    +0.080 C 
BRANCH  18  11
ATOM     11  C   UNL     1      -0.851   3.782  24.639  0.00  0.00    -0.004 C 
ATOM     14  C   UNL     1      -0.610   5.299  24.629  0.00  0.00    +0.004 C 
ATOM     15  C   UNL     1      -1.576   3.352  25.920  0.00  0.00    +0.004 C 
ATOM     16  C   UNL     1      -1.908   6.076  24.835  0.00  0.00    +0.000 C 
ATOM     17  C   UNL     1      -2.872   4.133  26.125  0.00  0.00    +0.000 C 
ATOM     19  C   UNL     1      -2.630   5.639  26.107  0.00  0.00    +0.000 C 
ENDBRANCH  18  11
ENDBRANCH  21  18
ENDBRANCH  10  20
ENDBRANCH   6  10
BRANCH   7  13
ATOM     13  C   UNL     1      -3.066  -0.125  25.075  0.00  0.00    +0.099 C 
BRANCH  13  23
ATOM      2  O   UNL     1      -3.905   1.752  23.799  0.00  0.00    -0.276 OA
ATOM      5  N   UNL     1      -5.070   1.038  25.680  0.00  0.00    -0.313 N 
ATOM     23  C   UNL     1      -4.036   0.992  24.756  0.00  0.00    +0.213 C 
ATOM     28  H   UNL     1      -5.116   0.324  26.401  0.00  0.00    +0.149 HD
BRANCH   5  24
ATOM     24  C   UNL     1      -6.139   2.009  25.620  0.00  0.00    +0.067 C 
ATOM     25  C   UNL     1      -6.980   1.793  24.369  0.00  0.00    +0.027 C 
ATOM     26  C   UNL     1      -5.577   3.425  25.671  0.00  0.00    +0.027 C 
ENDBRANCH   5  24
ENDBRANCH  13  23
ENDBRANCH   7  13
TORSDOF 7
ENDMDL
MODEL 7
REMARK VINA RESULT:      -1.8      2.913      5.743
REMARK  Name = 40777341
REMARK  9 active torsions:
REMARK  status: ('A' for Active; 'I' for Inactive)
REMARK    1  A    between atoms: N_5  and  C_24
REMARK    2  A    between atoms: C_6  and  C_10
REMARK    3  A    between atoms: C_7  and  C_13
REMARK    4  A    between atoms: C_10  and  C_20
REMARK    5  A    between atoms: C_11  and  C_18
REMARK    6  A    between atoms: C_13  and  C_23
REMARK    7  A    between atoms: C_18  and  C_21
REMARK    8  A    between atoms: C_24  and  C_25
REMARK    9  A    between atoms: C_24  and  C_26
REMARK                            x       y       z     vdW  Elec       q    Type
REMARK                         _______ _______ _______ _____ _____    ______ ____
ROOT
ATOM      3  N   UNL     1      -3.365   3.179  23.746  0.00  0.00    -0.316 NA
ATOM      6  C   UNL     1      -0.924   3.434  24.121  0.00  0.00    +0.012 C 
ATOM      7  C   UNL     1      -1.159   3.771  25.612  0.00  0.00    +0.004 C 
ATOM      8  C   UNL     1      -2.579   4.335  25.782  0.00  0.00    +0.019 C 
ATOM      9  C   UNL     1      -2.054   2.559  23.552  0.00  0.00    +0.085 C 
ATOM     12  C   UNL     1      -3.643   3.433  25.158  0.00  0.00    +0.081 C 
ATOM     27  H   UNL     1      -4.087   2.567  23.365  0.00  0.00    +0.122 HD
ENDROOT
BRANCH   6  10
ATOM     10  C   UNL     1       0.438   2.788  23.860  0.00  0.00    +0.064 C 
BRANCH  10  20
ATOM      1  O   UNL     1       0.731  -0.763  23.343  0.00  0.00    -0.359 OA
ATOM      4  N   UNL     1       1.027   0.556  23.020  0.00  0.00    -0.083 NA
ATOM     20  C   UNL     1       0.350   1.290  23.907  0.00  0.00    +0.084 A 
ATOM     21  C   UNL     1      -0.111  -0.785  24.408  0.00  0.00    +0.138 A 
ATOM     22  C   UNL     1      -0.385   0.497  24.806  0.00  0.00    +0.071 A 
BRANCH  21  18
ATOM     18  C   UNL     1      -0.530  -2.108  24.886  0.00  0.00    +0.080 C 
BRANCH  18  11
ATOM     11  C   UNL     1      -2.042  -2.234  25.060  0.00  0.00    -0.004 C 
ATOM     14  C   UNL     1      -2.685  -2.821  23.796  0.00  0.00    +0.004 C 
ATOM     15  C   UNL     1      -2.663  -0.875  25.410  0.00  0.00    +0.004 C 
ATOM     16  C   UNL     1      -4.204  -2.909  23.926  0.00  0.00    +0.000 C 
ATOM     17  C   UNL     1      -4.183  -0.965  25.536  0.00  0.00    +0.000 C 
ATOM     19  C   UNL     1      -4.817  -1.557  24.281  0.00  0.00    +0.000 C 
ENDBRANCH  18  11
ENDBRANCH  21  18
ENDBRANCH  10  20
ENDBRANCH   6  10
BRANCH   7  13
ATOM     13  C   UNL     1      -0.923   2.592  26.563  0.00  0.00    +0.099 C 
BRANCH  13  23
ATOM      2  O   UNL     1       1.466   2.977  26.607  0.00  0.00    -0.276 OA
ATOM      5  N   UNL     1       0.392   2.251  28.536  0.00  0.00    -0.313 N 
ATOM     23  C   UNL     1       0.448   2.639  27.205  0.00  0.00    +0.213 C 
ATOM     28  H   UNL     1      -0.513   2.047  28.950  0.00  0.00    +0.149 HD
BRANCH   5  24
ATOM     24  C   UNL     1       1.555   2.200  29.392  0.00  0.00    +0.067 C 
ATOM     25  C   UNL     1       1.144   2.340  30.852  0.00  0.00    +0.027 C 
ATOM     26  C   UNL     1       2.558   3.276  28.995  0.00  0.00    +0.027 C 
ENDBRANCH   5  24
ENDBRANCH  13  23
ENDBRANCH   7  13
TORSDOF 7
ENDMDL
MODEL 8
REMARK VINA RESULT:      -1.1      1.836      3.823
REMARK  Name = 40777341
REMARK  9 active torsions:
REMARK  status: ('A' for Active; 'I' for Inactive)
REMARK    1  A    between atoms: N_5  and  C_24
REMARK    2  A    between atoms: C_6  and  C_10
REMARK    3  A    between atoms: C_7  and  C_13
REMARK    4  A    between atoms: C_10  and  C_20
REMARK    5  A    between atoms: C_11  and  C_18
REMARK    6  A    between atoms: C_13  and  C_23
REMARK    7  A    between atoms: C_18  and  C_21
REMARK    8  A    between atoms: C_24  and  C_25
REMARK    9  A    between atoms: C_24  and  C_26
REMARK                            x       y       z     vdW  Elec       q    Type
REMARK                         _______ _______ _______ _____ _____    ______ ____
ROOT
ATOM      3  N   UNL     1      -6.214   0.960  24.959  0.00  0.00    -0.316 NA
ATOM      6  C   UNL     1      -3.735   0.826  24.884  0.00  0.00    +0.012 C 
ATOM      7  C   UNL     1      -3.637   2.322  24.500  0.00  0.00    +0.004 C 
ATOM      8  C   UNL     1      -4.950   2.754  23.825  0.00  0.00    +0.019 C 
ATOM      9  C   UNL     1      -5.016   0.528  25.681  0.00  0.00    +0.085 C 
ATOM     12  C   UNL     1      -6.179   2.390  24.656  0.00  0.00    +0.081 C 
ATOM     27  H   UNL     1      -7.039   0.754  25.520  0.00  0.00    +0.122 HD
ENDROOT
BRANCH   6  10
ATOM     10  C   UNL     1      -2.505   0.319  25.637  0.00  0.00    +0.064 C 
BRANCH  10  20
ATOM      1  O   UNL     1      -0.368  -1.587  23.452  0.00  0.00    -0.359 OA
ATOM      4  N   UNL     1      -1.451  -1.465  24.315  0.00  0.00    -0.083 NA
ATOM     20  C   UNL     1      -1.453  -0.183  24.690  0.00  0.00    +0.084 A 
ATOM     21  C   UNL     1       0.247  -0.381  23.333  0.00  0.00    +0.138 A 
ATOM     22  C   UNL     1      -0.404   0.546  24.102  0.00  0.00    +0.071 A 
BRANCH  21  18
ATOM     18  C   UNL     1       1.419  -0.329  22.452  0.00  0.00    +0.080 C 
BRANCH  18  11
ATOM     11  C   UNL     1       2.729  -0.109  23.206  0.00  0.00    -0.004 C 
ATOM     14  C   UNL     1       3.599   0.933  22.489  0.00  0.00    +0.004 C 
ATOM     15  C   UNL     1       3.487  -1.432  23.375  0.00  0.00    +0.004 C 
ATOM     16  C   UNL     1       4.938   1.132  23.195  0.00  0.00    +0.000 C 
ATOM     17  C   UNL     1       4.827  -1.229  24.080  0.00  0.00    +0.000 C 
ATOM     19  C   UNL     1       5.685  -0.187  23.368  0.00  0.00    +0.000 C 
ENDBRANCH  18  11
ENDBRANCH  21  18
ENDBRANCH  10  20
ENDBRANCH   6  10
BRANCH   7  13
ATOM     13  C   UNL     1      -3.296   3.246  25.675  0.00  0.00    +0.099 C 
BRANCH  13  23
ATOM      2  O   UNL     1      -1.408   4.600  24.999  0.00  0.00    -0.276 OA
ATOM      5  N   UNL     1      -1.085   2.864  26.510  0.00  0.00    -0.313 N 
ATOM     23  C   UNL     1      -1.842   3.667  25.670  0.00  0.00    +0.213 C 
ATOM     28  H   UNL     1      -1.554   2.155  27.066  0.00  0.00    +0.149 HD
BRANCH   5  24
ATOM     24  C   UNL     1       0.337   3.038  26.697  0.00  0.00    +0.067 C 
ATOM     25  C   UNL     1       1.097   2.545  25.473  0.00  0.00    +0.027 C 
ATOM     26  C   UNL     1       0.801   2.323  27.960  0.00  0.00    +0.027 C 
ENDBRANCH   5  24
ENDBRANCH  13  23
ENDBRANCH   7  13
TORSDOF 7
ENDMDL
MODEL 9
REMARK VINA RESULT:      -1.1      2.683      4.923
REMARK  Name = 40777341
REMARK  9 active torsions:
REMARK  status: ('A' for Active; 'I' for Inactive)
REMARK    1  A    between atoms: N_5  and  C_24
REMARK    2  A    between atoms: C_6  and  C_10
REMARK    3  A    between atoms: C_7  and  C_13
REMARK    4  A    between atoms: C_10  and  C_20
REMARK    5  A    between atoms: C_11  and  C_18
REMARK    6  A    between atoms: C_13  and  C_23
REMARK    7  A    between atoms: C_18  and  C_21
REMARK    8  A    between atoms: C_24  and  C_25
REMARK    9  A    between atoms: C_24  and  C_26
REMARK                            x       y       z     vdW  Elec       q    Type
REMARK                         _______ _______ _______ _____ _____    ______ ____
ROOT
ATOM      3  N   UNL     1      -0.887   6.008  24.718  0.00  0.00    -0.316 NA
ATOM      6  C   UNL     1      -0.243   3.637  25.074  0.00  0.00    +0.012 C 
ATOM      7  C   UNL     1      -1.722   3.235  25.282  0.00  0.00    +0.004 C 
ATOM      8  C   UNL     1      -2.515   4.466  25.754  0.00  0.00    +0.019 C 
ATOM      9  C   UNL     1      -0.113   4.886  24.186  0.00  0.00    +0.085 C 
ATOM     12  C   UNL     1      -2.306   5.677  24.846  0.00  0.00    +0.081 C 
ATOM     27  H   UNL     1      -0.784   6.812  24.099  0.00  0.00    +0.122 HD
ENDROOT
BRANCH   6  10
ATOM     10  C   UNL     1       0.616   2.497  24.525  0.00  0.00    +0.064 C 
BRANCH  10  20
ATOM      1  O   UNL     1      -0.672  -0.345  26.322  0.00  0.00    -0.359 OA
ATOM      4  N   UNL     1      -0.249   0.977  26.251  0.00  0.00    -0.083 NA
ATOM     20  C   UNL     1       0.103   1.159  24.975  0.00  0.00    +0.084 A 
ATOM     21  C   UNL     1      -0.563  -0.917  25.095  0.00  0.00    +0.138 A 
ATOM     22  C   UNL     1      -0.073  -0.001  24.202  0.00  0.00    +0.071 A 
BRANCH  21  18
ATOM     18  C   UNL     1      -0.970  -2.322  24.989  0.00  0.00    +0.080 C 
BRANCH  18  11
ATOM     11  C   UNL     1      -2.482  -2.502  24.863  0.00  0.00    -0.004 C 
ATOM     14  C   UNL     1      -2.819  -3.477  23.726  0.00  0.00    +0.004 C 
ATOM     15  C   UNL     1      -3.174  -1.150  24.647  0.00  0.00    +0.004 C 
ATOM     16  C   UNL     1      -4.327  -3.633  23.546  0.00  0.00    +0.000 C 
ATOM     17  C   UNL     1      -4.681  -1.310  24.465  0.00  0.00    +0.000 C 
ATOM     19  C   UNL     1      -5.012  -2.285  23.339  0.00  0.00    +0.000 C 
ENDBRANCH  18  11
ENDBRANCH  21  18
ENDBRANCH  10  20
ENDBRANCH   6  10
BRANCH   7  13
ATOM     13  C   UNL     1      -2.377   2.605  24.047  0.00  0.00    +0.099 C 
BRANCH  13  23
ATOM      2  O   UNL     1      -4.450   3.402  23.087  0.00  0.00    -0.276 OA
ATOM      5  N   UNL     1      -4.486   2.329  25.149  0.00  0.00    -0.313 N 
ATOM     23  C   UNL     1      -3.873   2.835  24.011  0.00  0.00    +0.213 C 
ATOM     28  H   UNL     1      -3.922   1.825  25.827  0.00  0.00    +0.149 HD
BRANCH   5  24
ATOM     24  C   UNL     1      -5.909   2.412  25.381  0.00  0.00    +0.067 C 
ATOM     25  C   UNL     1      -6.305   3.838  25.737  0.00  0.00    +0.027 C 
ATOM     26  C   UNL     1      -6.330   1.433  26.471  0.00  0.00    +0.027 C 
ENDBRANCH   5  24
ENDBRANCH  13  23
ENDBRANCH   7  13
TORSDOF 7
ENDMDL
