MODEL 1
REMARK VINA RESULT:      -4.9      0.000      0.000
REMARK  Name = 75537141
REMARK  6 active torsions:
REMARK  status: ('A' for Active; 'I' for Inactive)
REMARK    1  A    between atoms: O_2  and  C_16
REMARK    2  A    between atoms: O_2  and  C_20
REMARK    3  A    between atoms: N_4  and  C_14
REMARK    4  A    between atoms: N_5  and  C_15
REMARK    5  A    between atoms: C_14  and  C_17
REMARK    6  A    between atoms: C_15  and  C_16
REMARK                            x       y       z     vdW  Elec       q    Type
REMARK                         _______ _______ _______ _____ _____    ______ ____
ROOT
ATOM      1  O   UNL     1      -2.489   3.693  25.348  0.00  0.00    -0.252 OA
ATOM      3  N   UNL     1      -1.217   1.820  24.722  0.00  0.00    -0.278 N 
ATOM      4  N   UNL     1       0.882   0.334  23.582  0.00  0.00    -0.292 NA
ATOM      5  N   UNL     1      -3.443   1.734  24.443  0.00  0.00    -0.281 N 
ATOM      8  C   UNL     1      -1.475   0.466  24.277  0.00  0.00    +0.109 C 
ATOM      9  C   UNL     1      -0.510   0.081  23.157  0.00  0.00    +0.109 C 
ATOM     10  C   UNL     1      -2.948   0.493  23.874  0.00  0.00    +0.133 C 
ATOM     11  C   UNL     1       0.142   2.220  25.023  0.00  0.00    +0.125 C 
ATOM     12  C   UNL     1       1.083   1.761  23.905  0.00  0.00    +0.104 C 
ATOM     13  C   UNL     1      -2.395   2.559  24.899  0.00  0.00    +0.305 C 
ENDROOT
BRANCH   4  14
ATOM     14  C   UNL     1       1.818  -0.088  22.539  0.00  0.00    +0.158 C 
BRANCH  14  17
ATOM      6  N   UNL     1       3.808  -1.161  23.619  0.00  0.00    -0.347 N 
ATOM      7  N   UNL     1       4.087   0.937  22.949  0.00  0.00    -0.239 NA
ATOM     17  C   UNL     1       3.243  -0.067  23.024  0.00  0.00    +0.121 A 
ATOM     18  C   UNL     1       5.093  -0.833  23.945  0.00  0.00    +0.104 A 
ATOM     19  C   UNL     1       5.243   0.467  23.521  0.00  0.00    +0.130 A 
ATOM     21  H   UNL     1       3.358  -2.052  23.789  0.00  0.00    +0.167 HD
ENDBRANCH  14  17
ENDBRANCH   4  14
BRANCH   5  15
ATOM     15  C   UNL     1      -4.841   2.100  24.385  0.00  0.00    +0.137 C 
BRANCH  15  16
ATOM     16  C   UNL     1      -5.573   1.710  25.656  0.00  0.00    +0.178 C 
BRANCH  16   2
ATOM      2  O   UNL     1      -5.850   2.878  26.419  0.00  0.00    -0.381 OA
ATOM     20  C   UNL     1      -5.778   4.052  25.622  0.00  0.00    +0.194 C 
ENDBRANCH  16   2
ENDBRANCH  15  16
ENDBRANCH   5  15
TORSDOF 5
ENDMDL
MODEL 2
REMARK VINA RESULT:      -3.5      2.689      7.779
REMARK  Name = 75537141
REMARK  6 active torsions:
REMARK  status: ('A' for Active; 'I' for Inactive)
REMARK    1  A    between atoms: O_2  and  C_16
REMARK    2  A    between atoms: O_2  and  C_20
REMARK    3  A    between atoms: N_4  and  C_14
REMARK    4  A    between atoms: N_5  and  C_15
REMARK    5  A    between atoms: C_14  and  C_17
REMARK    6  A    between atoms: C_15  and  C_16
REMARK                            x       y       z     vdW  Elec       q    Type
REMARK                         _______ _______ _______ _____ _____    ______ ____
ROOT
ATOM      1  O   UNL     1       0.240  -1.529  23.758  0.00  0.00    -0.252 OA
ATOM      3  N   UNL     1      -0.474   0.522  24.651  0.00  0.00    -0.278 N 
ATOM      4  N   UNL     1      -2.227   2.591  25.402  0.00  0.00    -0.292 NA
ATOM      5  N   UNL     1       1.369   0.506  23.369  0.00  0.00    -0.281 N 
ATOM      8  C   UNL     1       0.028   1.879  24.720  0.00  0.00    +0.109 C 
ATOM      9  C   UNL     1      -1.103   2.879  24.486  0.00  0.00    +0.109 C 
ATOM     10  C   UNL     1       1.137   1.907  23.670  0.00  0.00    +0.133 C 
ATOM     11  C   UNL     1      -1.665   0.170  25.396  0.00  0.00    +0.125 C 
ATOM     12  C   UNL     1      -2.751   1.228  25.181  0.00  0.00    +0.104 C 
ATOM     13  C   UNL     1       0.364  -0.321  23.910  0.00  0.00    +0.305 C 
ENDROOT
BRANCH   4  14
ATOM     14  C   UNL     1      -3.292   3.580  25.228  0.00  0.00    +0.158 C 
BRANCH  14  17
ATOM      6  N   UNL     1      -5.255   2.286  24.362  0.00  0.00    -0.347 N 
ATOM      7  N   UNL     1      -5.416   2.997  26.459  0.00  0.00    -0.239 NA
ATOM     17  C   UNL     1      -4.657   2.966  25.387  0.00  0.00    +0.121 A 
ATOM     18  C   UNL     1      -6.472   1.856  24.810  0.00  0.00    +0.104 A 
ATOM     19  C   UNL     1      -6.549   2.308  26.107  0.00  0.00    +0.130 A 
ATOM     21  H   UNL     1      -4.869   2.128  23.440  0.00  0.00    +0.167 HD
ENDBRANCH  14  17
ENDBRANCH   4  14
BRANCH   5  15
ATOM     15  C   UNL     1       2.432   0.077  22.487  0.00  0.00    +0.137 C 
BRANCH  15  16
ATOM     16  C   UNL     1       3.674   0.932  22.654  0.00  0.00    +0.178 C 
BRANCH  16   2
ATOM      2  O   UNL     1       4.825   0.096  22.669  0.00  0.00    -0.381 OA
ATOM     20  C   UNL     1       5.467   0.115  23.937  0.00  0.00    +0.194 C 
ENDBRANCH  16   2
ENDBRANCH  15  16
ENDBRANCH   5  15
TORSDOF 5
ENDMDL
MODEL 3
REMARK VINA RESULT:      -3.3      2.646      7.410
REMARK  Name = 75537141
REMARK  6 active torsions:
REMARK  status: ('A' for Active; 'I' for Inactive)
REMARK    1  A    between atoms: O_2  and  C_16
REMARK    2  A    between atoms: O_2  and  C_20
REMARK    3  A    between atoms: N_4  and  C_14
REMARK    4  A    between atoms: N_5  and  C_15
REMARK    5  A    between atoms: C_14  and  C_17
REMARK    6  A    between atoms: C_15  and  C_16
REMARK                            x       y       z     vdW  Elec       q    Type
REMARK                         _______ _______ _______ _____ _____    ______ ____
ROOT
ATOM      1  O   UNL     1       1.076   1.987  25.330  0.00  0.00    -0.252 OA
ATOM      3  N   UNL     1      -0.943   2.885  24.535  0.00  0.00    -0.278 N 
ATOM      4  N   UNL     1      -3.466   4.129  24.591  0.00  0.00    -0.292 NA
ATOM      5  N   UNL     1      -0.257   0.915  23.706  0.00  0.00    -0.281 N 
ATOM      8  C   UNL     1      -1.903   2.575  23.496  0.00  0.00    +0.109 C 
ATOM      9  C   UNL     1      -3.328   2.777  24.009  0.00  0.00    +0.109 C 
ATOM     10  C   UNL     1      -1.560   1.138  23.105  0.00  0.00    +0.133 C 
ATOM     11  C   UNL     1      -1.076   4.123  25.275  0.00  0.00    +0.125 C 
ATOM     12  C   UNL     1      -2.530   4.316  25.717  0.00  0.00    +0.104 C 
ATOM     13  C   UNL     1       0.086   1.938  24.612  0.00  0.00    +0.305 C 
ENDROOT
BRANCH   4  14
ATOM     14  C   UNL     1      -4.843   4.355  25.031  0.00  0.00    +0.158 C 
BRANCH  14  17
ATOM      6  N   UNL     1      -5.949   2.845  26.697  0.00  0.00    -0.347 N 
ATOM      7  N   UNL     1      -5.794   2.053  24.628  0.00  0.00    -0.239 NA
ATOM     17  C   UNL     1      -5.526   3.070  25.416  0.00  0.00    +0.121 A 
ATOM     18  C   UNL     1      -6.522   1.605  26.728  0.00  0.00    +0.104 A 
ATOM     19  C   UNL     1      -6.414   1.136  25.439  0.00  0.00    +0.130 A 
ATOM     21  H   UNL     1      -5.855   3.478  27.480  0.00  0.00    +0.167 HD
ENDBRANCH  14  17
ENDBRANCH   4  14
BRANCH   5  15
ATOM     15  C   UNL     1       0.490  -0.304  23.485  0.00  0.00    +0.137 C 
BRANCH  15  16
ATOM     16  C   UNL     1       1.499  -0.143  22.362  0.00  0.00    +0.178 C 
BRANCH  16   2
ATOM      2  O   UNL     1       2.813  -0.308  22.881  0.00  0.00    -0.381 OA
ATOM     20  C   UNL     1       3.583   0.878  22.740  0.00  0.00    +0.194 C 
ENDBRANCH  16   2
ENDBRANCH  15  16
ENDBRANCH   5  15
TORSDOF 5
ENDMDL
MODEL 4
REMARK VINA RESULT:      -3.0      1.553      2.269
REMARK  Name = 75537141
REMARK  6 active torsions:
REMARK  status: ('A' for Active; 'I' for Inactive)
REMARK    1  A    between atoms: O_2  and  C_16
REMARK    2  A    between atoms: O_2  and  C_20
REMARK    3  A    between atoms: N_4  and  C_14
REMARK    4  A    between atoms: N_5  and  C_15
REMARK    5  A    between atoms: C_14  and  C_17
REMARK    6  A    between atoms: C_15  and  C_16
REMARK                            x       y       z     vdW  Elec       q    Type
REMARK                         _______ _______ _______ _____ _____    ______ ____
ROOT
ATOM      1  O   UNL     1      -4.410  -0.777  25.746  0.00  0.00    -0.252 OA
ATOM      3  N   UNL     1      -2.676   0.137  24.453  0.00  0.00    -0.278 N 
ATOM      4  N   UNL     1      -0.082   0.974  23.755  0.00  0.00    -0.292 NA
ATOM      5  N   UNL     1      -4.639   1.224  24.518  0.00  0.00    -0.281 N 
ATOM      8  C   UNL     1      -2.518   1.227  23.513  0.00  0.00    +0.109 C 
ATOM      9  C   UNL     1      -1.193   1.949  23.751  0.00  0.00    +0.109 C 
ATOM     10  C   UNL     1      -3.764   2.082  23.738  0.00  0.00    +0.133 C 
ATOM     11  C   UNL     1      -1.584  -0.795  24.646  0.00  0.00    +0.125 C 
ATOM     12  C   UNL     1      -0.268  -0.032  24.820  0.00  0.00    +0.104 C 
ATOM     13  C   UNL     1      -3.966   0.083  24.997  0.00  0.00    +0.305 C 
ENDROOT
BRANCH   4  14
ATOM     14  C   UNL     1       1.198   1.662  23.922  0.00  0.00    +0.158 C 
BRANCH  14  17
ATOM      6  N   UNL     1       3.622   1.198  23.485  0.00  0.00    -0.347 N 
ATOM      7  N   UNL     1       2.181   0.098  22.202  0.00  0.00    -0.239 NA
ATOM     17  C   UNL     1       2.309   0.966  23.181  0.00  0.00    +0.121 A 
ATOM     18  C   UNL     1       4.379   0.429  22.648  0.00  0.00    +0.104 A 
ATOM     19  C   UNL     1       3.468  -0.241  21.865  0.00  0.00    +0.130 A 
ATOM     21  H   UNL     1       3.971   1.824  24.200  0.00  0.00    +0.167 HD
ENDBRANCH  14  17
ENDBRANCH   4  14
BRANCH   5  15
ATOM     15  C   UNL     1      -5.989   1.615  24.861  0.00  0.00    +0.137 C 
BRANCH  15  16
ATOM     16  C   UNL     1      -6.023   2.445  26.131  0.00  0.00    +0.178 C 
BRANCH  16   2
ATOM      2  O   UNL     1      -5.630   3.779  25.835  0.00  0.00    -0.381 OA
ATOM     20  C   UNL     1      -4.300   4.039  26.263  0.00  0.00    +0.194 C 
ENDBRANCH  16   2
ENDBRANCH  15  16
ENDBRANCH   5  15
TORSDOF 5
ENDMDL
MODEL 5
REMARK VINA RESULT:      -3.0      3.061      7.035
REMARK  Name = 75537141
REMARK  6 active torsions:
REMARK  status: ('A' for Active; 'I' for Inactive)
REMARK    1  A    between atoms: O_2  and  C_16
REMARK    2  A    between atoms: O_2  and  C_20
REMARK    3  A    between atoms: N_4  and  C_14
REMARK    4  A    between atoms: N_5  and  C_15
REMARK    5  A    between atoms: C_14  and  C_17
REMARK    6  A    between atoms: C_15  and  C_16
REMARK                            x       y       z     vdW  Elec       q    Type
REMARK                         _______ _______ _______ _____ _____    ______ ____
ROOT
ATOM      1  O   UNL     1       0.933   1.973  25.501  0.00  0.00    -0.252 OA
ATOM      3  N   UNL     1      -1.052   2.865  24.619  0.00  0.00    -0.278 N 
ATOM      4  N   UNL     1      -3.559   4.140  24.560  0.00  0.00    -0.292 NA
ATOM      5  N   UNL     1      -0.370   0.856  23.883  0.00  0.00    -0.281 N 
ATOM      8  C   UNL     1      -1.988   2.527  23.567  0.00  0.00    +0.109 C 
ATOM      9  C   UNL     1      -3.423   2.766  24.033  0.00  0.00    +0.109 C 
ATOM     10  C   UNL     1      -1.654   1.073  23.239  0.00  0.00    +0.133 C 
ATOM     11  C   UNL     1      -1.189   4.131  25.308  0.00  0.00    +0.125 C 
ATOM     12  C   UNL     1      -2.650   4.358  25.704  0.00  0.00    +0.104 C 
ATOM     13  C   UNL     1      -0.038   1.909  24.759  0.00  0.00    +0.305 C 
ENDROOT
BRANCH   4  14
ATOM     14  C   UNL     1      -4.944   4.400  24.955  0.00  0.00    +0.158 C 
BRANCH  14  17
ATOM      6  N   UNL     1      -5.897   2.881  26.705  0.00  0.00    -0.347 N 
ATOM      7  N   UNL     1      -6.094   2.180  24.607  0.00  0.00    -0.239 NA
ATOM     17  C   UNL     1      -5.649   3.141  25.385  0.00  0.00    +0.121 A 
ATOM     18  C   UNL     1      -6.540   1.678  26.771  0.00  0.00    +0.104 A 
ATOM     19  C   UNL     1      -6.651   1.265  25.464  0.00  0.00    +0.130 A 
ATOM     21  H   UNL     1      -5.650   3.470  27.490  0.00  0.00    +0.167 HD
ENDBRANCH  14  17
ENDBRANCH   4  14
BRANCH   5  15
ATOM     15  C   UNL     1       0.366  -0.378  23.728  0.00  0.00    +0.137 C 
BRANCH  15  16
ATOM     16  C   UNL     1      -0.152  -1.458  24.661  0.00  0.00    +0.178 C 
BRANCH  16   2
ATOM      2  O   UNL     1      -1.182  -2.191  24.010  0.00  0.00    -0.381 OA
ATOM     20  C   UNL     1      -2.380  -2.198  24.775  0.00  0.00    +0.194 C 
ENDBRANCH  16   2
ENDBRANCH  15  16
ENDBRANCH   5  15
TORSDOF 5
ENDMDL
MODEL 6
REMARK VINA RESULT:      -3.0      1.796      2.324
REMARK  Name = 75537141
REMARK  6 active torsions:
REMARK  status: ('A' for Active; 'I' for Inactive)
REMARK    1  A    between atoms: O_2  and  C_16
REMARK    2  A    between atoms: O_2  and  C_20
REMARK    3  A    between atoms: N_4  and  C_14
REMARK    4  A    between atoms: N_5  and  C_15
REMARK    5  A    between atoms: C_14  and  C_17
REMARK    6  A    between atoms: C_15  and  C_16
REMARK                            x       y       z     vdW  Elec       q    Type
REMARK                         _______ _______ _______ _____ _____    ______ ____
ROOT
ATOM      1  O   UNL     1      -2.949   2.614  25.148  0.00  0.00    -0.252 OA
ATOM      3  N   UNL     1      -0.982   1.370  24.833  0.00  0.00    -0.278 N 
ATOM      4  N   UNL     1       1.450   0.551  23.680  0.00  0.00    -0.292 NA
ATOM      5  N   UNL     1      -2.880   0.260  25.284  0.00  0.00    -0.281 N 
ATOM      8  C   UNL     1      -0.571  -0.012  24.966  0.00  0.00    +0.109 C 
ATOM      9  C   UNL     1       0.337  -0.413  23.805  0.00  0.00    +0.109 C 
ATOM     10  C   UNL     1      -1.891  -0.776  25.042  0.00  0.00    +0.133 C 
ATOM     11  C   UNL     1       0.017   2.382  24.558  0.00  0.00    +0.125 C 
ATOM     12  C   UNL     1       0.941   1.915  23.430  0.00  0.00    +0.104 C 
ATOM     13  C   UNL     1      -2.345   1.551  25.099  0.00  0.00    +0.305 C 
ENDROOT
BRANCH   4  14
ATOM     14  C   UNL     1       2.359   0.144  22.608  0.00  0.00    +0.158 C 
BRANCH  14  17
ATOM      6  N   UNL     1       4.157  -1.202  23.720  0.00  0.00    -0.347 N 
ATOM      7  N   UNL     1       4.752   0.824  23.034  0.00  0.00    -0.239 NA
ATOM     17  C   UNL     1       3.767  -0.043  23.108  0.00  0.00    +0.121 A 
ATOM     18  C   UNL     1       5.474  -1.065  24.056  0.00  0.00    +0.104 A 
ATOM     19  C   UNL     1       5.819   0.194  23.623  0.00  0.00    +0.130 A 
ATOM     21  H   UNL     1       3.578  -2.014  23.892  0.00  0.00    +0.167 HD
ENDBRANCH  14  17
ENDBRANCH   4  14
BRANCH   5  15
ATOM     15  C   UNL     1      -4.271  -0.051  25.531  0.00  0.00    +0.137 C 
BRANCH  15  16
ATOM     16  C   UNL     1      -4.991  -0.438  24.252  0.00  0.00    +0.178 C 
BRANCH  16   2
ATOM      2  O   UNL     1      -4.160  -1.300  23.483  0.00  0.00    -0.381 OA
ATOM     20  C   UNL     1      -4.295  -2.655  23.891  0.00  0.00    +0.194 C 
ENDBRANCH  16   2
ENDBRANCH  15  16
ENDBRANCH   5  15
TORSDOF 5
ENDMDL
MODEL 7
REMARK VINA RESULT:      -3.0      2.600      4.848
REMARK  Name = 75537141
REMARK  6 active torsions:
REMARK  status: ('A' for Active; 'I' for Inactive)
REMARK    1  A    between atoms: O_2  and  C_16
REMARK    2  A    between atoms: O_2  and  C_20
REMARK    3  A    between atoms: N_4  and  C_14
REMARK    4  A    between atoms: N_5  and  C_15
REMARK    5  A    between atoms: C_14  and  C_17
REMARK    6  A    between atoms: C_15  and  C_16
REMARK                            x       y       z     vdW  Elec       q    Type
REMARK                         _______ _______ _______ _____ _____    ______ ____
ROOT
ATOM      1  O   UNL     1       0.068   3.864  23.272  0.00  0.00    -0.252 OA
ATOM      3  N   UNL     1      -0.036   1.854  24.482  0.00  0.00    -0.278 N 
ATOM      4  N   UNL     1      -0.293  -0.905  24.974  0.00  0.00    -0.292 NA
ATOM      5  N   UNL     1      -1.151   3.632  25.279  0.00  0.00    -0.281 N 
ATOM      8  C   UNL     1      -0.558   1.413  25.760  0.00  0.00    +0.109 C 
ATOM      9  C   UNL     1      -1.224   0.045  25.620  0.00  0.00    +0.109 C 
ATOM     10  C   UNL     1      -1.496   2.544  26.177  0.00  0.00    +0.133 C 
ATOM     11  C   UNL     1       0.768   0.943  23.693  0.00  0.00    +0.125 C 
ATOM     12  C   UNL     1       0.094  -0.430  23.630  0.00  0.00    +0.104 C 
ATOM     13  C   UNL     1      -0.320   3.201  24.225  0.00  0.00    +0.305 C 
ENDROOT
BRANCH   4  14
ATOM     14  C   UNL     1      -0.899  -2.234  24.889  0.00  0.00    +0.158 C 
BRANCH  14  17
ATOM      6  N   UNL     1      -2.980  -0.964  24.310  0.00  0.00    -0.347 N 
ATOM      7  N   UNL     1      -3.160  -3.177  24.281  0.00  0.00    -0.239 NA
ATOM     17  C   UNL     1      -2.350  -2.164  24.492  0.00  0.00    +0.121 A 
ATOM     18  C   UNL     1      -4.274  -1.229  23.960  0.00  0.00    +0.104 A 
ATOM     19  C   UNL     1      -4.361  -2.602  23.949  0.00  0.00    +0.130 A 
ATOM     21  H   UNL     1      -2.566  -0.046  24.414  0.00  0.00    +0.167 HD
ENDBRANCH  14  17
ENDBRANCH   4  14
BRANCH   5  15
ATOM     15  C   UNL     1      -1.739   4.947  25.407  0.00  0.00    +0.137 C 
BRANCH  15  16
ATOM     16  C   UNL     1      -3.199   4.867  25.816  0.00  0.00    +0.178 C 
BRANCH  16   2
ATOM      2  O   UNL     1      -3.929   4.157  24.823  0.00  0.00    -0.381 OA
ATOM     20  C   UNL     1      -4.978   3.389  25.397  0.00  0.00    +0.194 C 
ENDBRANCH  16   2
ENDBRANCH  15  16
ENDBRANCH   5  15
TORSDOF 5
ENDMDL
MODEL 8
REMARK VINA RESULT:      -2.5      3.583      5.162
REMARK  Name = 75537141
REMARK  6 active torsions:
REMARK  status: ('A' for Active; 'I' for Inactive)
REMARK    1  A    between atoms: O_2  and  C_16
REMARK    2  A    between atoms: O_2  and  C_20
REMARK    3  A    between atoms: N_4  and  C_14
REMARK    4  A    between atoms: N_5  and  C_15
REMARK    5  A    between atoms: C_14  and  C_17
REMARK    6  A    between atoms: C_15  and  C_16
REMARK                            x       y       z     vdW  Elec       q    Type
REMARK                         _______ _______ _______ _____ _____    ______ ____
ROOT
ATOM      1  O   UNL     1      -4.409   4.305  26.248  0.00  0.00    -0.252 OA
ATOM      3  N   UNL     1      -4.402   2.423  24.841  0.00  0.00    -0.278 N 
ATOM      4  N   UNL     1      -4.531  -0.280  24.071  0.00  0.00    -0.292 NA
ATOM      5  N   UNL     1      -2.850   4.010  24.501  0.00  0.00    -0.281 N 
ATOM      8  C   UNL     1      -3.705   2.000  23.644  0.00  0.00    +0.109 C 
ATOM      9  C   UNL     1      -3.334   0.521  23.740  0.00  0.00    +0.109 C 
ATOM     10  C   UNL     1      -2.518   2.956  23.559  0.00  0.00    +0.133 C 
ATOM     11  C   UNL     1      -5.501   1.624  25.341  0.00  0.00    +0.125 C 
ATOM     12  C   UNL     1      -5.107   0.145  25.363  0.00  0.00    +0.104 C 
ATOM     13  C   UNL     1      -3.949   3.662  25.313  0.00  0.00    +0.305 C 
ENDROOT
BRANCH   4  14
ATOM     14  C   UNL     1      -4.199  -1.704  24.106  0.00  0.00    +0.158 C 
BRANCH  14  17
ATOM      6  N   UNL     1      -2.178  -1.176  25.491  0.00  0.00    -0.347 N 
ATOM      7  N   UNL     1      -1.945  -2.837  24.034  0.00  0.00    -0.239 NA
ATOM     17  C   UNL     1      -2.770  -1.935  24.518  0.00  0.00    +0.121 A 
ATOM     18  C   UNL     1      -0.895  -1.623  25.635  0.00  0.00    +0.104 A 
ATOM     19  C   UNL     1      -0.774  -2.648  24.726  0.00  0.00    +0.130 A 
ATOM     21  H   UNL     1      -2.610  -0.423  26.009  0.00  0.00    +0.167 HD
ENDBRANCH  14  17
ENDBRANCH   4  14
BRANCH   5  15
ATOM     15  C   UNL     1      -2.028   5.190  24.653  0.00  0.00    +0.137 C 
BRANCH  15  16
ATOM     16  C   UNL     1      -0.589   4.829  24.976  0.00  0.00    +0.178 C 
BRANCH  16   2
ATOM      2  O   UNL     1      -0.570   3.794  25.951  0.00  0.00    -0.381 OA
ATOM     20  C   UNL     1       0.223   2.693  25.527  0.00  0.00    +0.194 C 
ENDBRANCH  16   2
ENDBRANCH  15  16
ENDBRANCH   5  15
TORSDOF 5
ENDMDL
MODEL 9
REMARK VINA RESULT:      -2.2      3.152      7.505
REMARK  Name = 75537141
REMARK  6 active torsions:
REMARK  status: ('A' for Active; 'I' for Inactive)
REMARK    1  A    between atoms: O_2  and  C_16
REMARK    2  A    between atoms: O_2  and  C_20
REMARK    3  A    between atoms: N_4  and  C_14
REMARK    4  A    between atoms: N_5  and  C_15
REMARK    5  A    between atoms: C_14  and  C_17
REMARK    6  A    between atoms: C_15  and  C_16
REMARK                            x       y       z     vdW  Elec       q    Type
REMARK                         _______ _______ _______ _____ _____    ______ ____
ROOT
ATOM      1  O   UNL     1      -0.912  -2.965  23.628  0.00  0.00    -0.252 OA
ATOM      3  N   UNL     1      -2.275  -1.390  24.714  0.00  0.00    -0.278 N 
ATOM      4  N   UNL     1      -4.552   0.158  25.289  0.00  0.00    -0.292 NA
ATOM      5  N   UNL     1      -0.148  -0.827  24.267  0.00  0.00    -0.281 N 
ATOM      8  C   UNL     1      -2.104  -0.094  25.337  0.00  0.00    +0.109 C 
ATOM      9  C   UNL     1      -3.270   0.826  24.979  0.00  0.00    +0.109 C 
ATOM     10  C   UNL     1      -0.740   0.373  24.831  0.00  0.00    +0.133 C 
ATOM     11  C   UNL     1      -3.549  -2.069  24.830  0.00  0.00    +0.125 C 
ATOM     12  C   UNL     1      -4.691  -1.096  24.523  0.00  0.00    +0.104 C 
ATOM     13  C   UNL     1      -1.089  -1.869  24.142  0.00  0.00    +0.305 C 
ENDROOT
BRANCH   4  14
ATOM     14  C   UNL     1      -5.674   1.054  25.007  0.00  0.00    +0.158 C 
BRANCH  14  17
ATOM      6  N   UNL     1      -5.751   3.415  25.842  0.00  0.00    -0.347 N 
ATOM      7  N   UNL     1      -4.379   3.038  24.137  0.00  0.00    -0.239 NA
ATOM     17  C   UNL     1      -5.243   2.496  24.966  0.00  0.00    +0.121 A 
ATOM     18  C   UNL     1      -5.173   4.619  25.554  0.00  0.00    +0.104 A 
ATOM     19  C   UNL     1      -4.330   4.361  24.498  0.00  0.00    +0.130 A 
ATOM     21  H   UNL     1      -6.430   3.238  26.571  0.00  0.00    +0.167 HD
ENDBRANCH  14  17
ENDBRANCH   4  14
BRANCH   5  15
ATOM     15  C   UNL     1       1.209  -0.849  23.767  0.00  0.00    +0.137 C 
BRANCH  15  16
ATOM     16  C   UNL     1       1.447   0.252  22.750  0.00  0.00    +0.178 C 
BRANCH  16   2
ATOM      2  O   UNL     1       2.708   0.052  22.123  0.00  0.00    -0.381 OA
ATOM     20  C   UNL     1       3.727   0.826  22.742  0.00  0.00    +0.194 C 
ENDBRANCH  16   2
ENDBRANCH  15  16
ENDBRANCH   5  15
TORSDOF 5
ENDMDL
MODEL 10
REMARK VINA RESULT:      -2.1      2.703      6.765
REMARK  Name = 75537141
REMARK  6 active torsions:
REMARK  status: ('A' for Active; 'I' for Inactive)
REMARK    1  A    between atoms: O_2  and  C_16
REMARK    2  A    between atoms: O_2  and  C_20
REMARK    3  A    between atoms: N_4  and  C_14
REMARK    4  A    between atoms: N_5  and  C_15
REMARK    5  A    between atoms: C_14  and  C_17
REMARK    6  A    between atoms: C_15  and  C_16
REMARK                            x       y       z     vdW  Elec       q    Type
REMARK                         _______ _______ _______ _____ _____    ______ ____
ROOT
ATOM      1  O   UNL     1       0.774   3.252  25.559  0.00  0.00    -0.252 OA
ATOM      3  N   UNL     1      -1.132   2.369  24.508  0.00  0.00    -0.278 N 
ATOM      4  N   UNL     1      -3.708   1.271  24.234  0.00  0.00    -0.292 NA
ATOM      5  N   UNL     1       0.884   1.660  23.821  0.00  0.00    -0.281 N 
ATOM      8  C   UNL     1      -1.415   1.514  23.373  0.00  0.00    +0.109 C 
ATOM      9  C   UNL     1      -2.538   0.535  23.711  0.00  0.00    +0.109 C 
ATOM     10  C   UNL     1      -0.067   0.864  23.066  0.00  0.00    +0.133 C 
ATOM     11  C   UNL     1      -2.229   3.024  25.191  0.00  0.00    +0.125 C 
ATOM     12  C   UNL     1      -3.355   2.021  25.456  0.00  0.00    +0.104 C 
ATOM     13  C   UNL     1       0.242   2.523  24.732  0.00  0.00    +0.305 C 
ENDROOT
BRANCH   4  14
ATOM     14  C   UNL     1      -4.811   0.348  24.504  0.00  0.00    +0.158 C 
BRANCH  14  17
ATOM      6  N   UNL     1      -3.637  -1.552  25.639  0.00  0.00    -0.347 N 
ATOM      7  N   UNL     1      -4.533  -2.014  23.660  0.00  0.00    -0.239 NA
ATOM     17  C   UNL     1      -4.343  -1.081  24.567  0.00  0.00    +0.121 A 
ATOM     18  C   UNL     1      -3.359  -2.869  25.400  0.00  0.00    +0.104 A 
ATOM     19  C   UNL     1      -3.923  -3.130  24.173  0.00  0.00    +0.130 A 
ATOM     21  H   UNL     1      -3.368  -1.025  26.459  0.00  0.00    +0.167 HD
ENDBRANCH  14  17
ENDBRANCH   4  14
BRANCH   5  15
ATOM     15  C   UNL     1       2.311   1.445  23.724  0.00  0.00    +0.137 C 
BRANCH  15  16
ATOM     16  C   UNL     1       2.645   0.370  22.706  0.00  0.00    +0.178 C 
BRANCH  16   2
ATOM      2  O   UNL     1       3.964   0.576  22.215  0.00  0.00    -0.381 OA
ATOM     20  C   UNL     1       4.940   0.287  23.206  0.00  0.00    +0.194 C 
ENDBRANCH  16   2
ENDBRANCH  15  16
ENDBRANCH   5  15
TORSDOF 5
ENDMDL
