MODEL 1
REMARK VINA RESULT:      -2.5      0.000      0.000
REMARK  Name = 45783474
REMARK  9 active torsions:
REMARK  status: ('A' for Active; 'I' for Inactive)
REMARK    1  A    between atoms: O_2  and  C_27
REMARK    2  A    between atoms: O_2  and  C_28
REMARK    3  A    between atoms: N_3  and  C_9
REMARK    4  A    between atoms: N_7  and  C_25
REMARK    5  A    between atoms: N_7  and  C_26
REMARK    6  A    between atoms: C_8  and  C_9
REMARK    7  A    between atoms: C_10  and  C_19
REMARK    8  A    between atoms: C_20  and  C_21
REMARK    9  A    between atoms: C_26  and  C_27
REMARK                            x       y       z     vdW  Elec       q    Type
REMARK                         _______ _______ _______ _____ _____    ______ ____
ROOT
ATOM      1  O   UNL     1      -2.398   3.746  24.741  0.00  0.00    -0.336 OA
ATOM      4  N   UNL     1      -2.333   1.641  23.976  0.00  0.00    -0.190 NA
ATOM      5  N   UNL     1      -1.044   3.444  24.542  0.00  0.00    -0.056 NA
ATOM     19  C   UNL     1      -3.087   2.630  24.384  0.00  0.00    +0.245 A 
ATOM     20  C   UNL     1      -1.087   2.188  24.091  0.00  0.00    +0.204 A 
ENDROOT
BRANCH  20  21
ATOM      6  N   UNL     1       2.493   1.410  23.460  0.00  0.00    -0.240 NA
ATOM     21  C   UNL     1       0.094   1.450  23.748  0.00  0.00    +0.041 A 
ATOM     22  C   UNL     1       0.020   0.111  23.378  0.00  0.00    +0.016 A 
ATOM     23  C   UNL     1       1.343   2.048  23.772  0.00  0.00    +0.124 A 
ATOM     24  C   UNL     1       1.183  -0.579  23.050  0.00  0.00    +0.044 A 
ATOM     25  C   UNL     1       2.383   0.110  23.106  0.00  0.00    +0.119 A 
BRANCH  25   7
ATOM      7  N   UNL     1       3.558  -0.607  22.770  0.00  0.00    -0.327 N 
ATOM     29  H   UNL     1       3.874  -0.530  21.810  0.00  0.00    +0.148 HD
BRANCH   7  26
ATOM     26  C   UNL     1       4.272  -1.402  23.715  0.00  0.00    +0.131 C 
BRANCH  26  27
ATOM     27  C   UNL     1       5.355  -0.571  24.381  0.00  0.00    +0.178 C 
BRANCH  27   2
ATOM      2  O   UNL     1       6.026   0.208  23.398  0.00  0.00    -0.381 OA
ATOM     28  C   UNL     1       7.169  -0.466  22.890  0.00  0.00    +0.194 C 
ENDBRANCH  27   2
ENDBRANCH  26  27
ENDBRANCH   7  26
ENDBRANCH  25   7
ENDBRANCH  20  21
BRANCH  19  10
ATOM      3  N   UNL     1      -5.160   1.542  25.226  0.00  0.00    -0.291 NA
ATOM     10  C   UNL     1      -4.595   2.700  24.507  0.00  0.00    +0.146 C 
ATOM     13  C   UNL     1      -6.379   2.016  25.881  0.00  0.00    +0.085 C 
ATOM     14  C   UNL     1      -5.068   3.928  25.309  0.00  0.00    +0.030 C 
ATOM     15  C   UNL     1      -5.942   3.364  26.421  0.00  0.00    +0.017 C 
BRANCH   3   9
ATOM      9  C   UNL     1      -5.413   0.397  24.361  0.00  0.00    +0.088 C 
BRANCH   9   8
ATOM      8  C   UNL     1      -4.625  -0.825  24.830  0.00  0.00    +0.003 C 
ATOM     11  C   UNL     1      -4.113  -1.633  23.630  0.00  0.00    +0.005 C 
ATOM     12  C   UNL     1      -3.463  -0.404  25.740  0.00  0.00    +0.005 C 
ATOM     16  C   UNL     1      -3.277  -2.832  24.073  0.00  0.00    +0.000 C 
ATOM     17  C   UNL     1      -2.628  -1.604  26.180  0.00  0.00    +0.000 C 
ATOM     18  C   UNL     1      -2.128  -2.410  24.985  0.00  0.00    +0.000 C 
ENDBRANCH   9   8
ENDBRANCH   3   9
ENDBRANCH  19  10
TORSDOF 8
ENDMDL
MODEL 2
REMARK VINA RESULT:      -2.0     14.853     16.522
REMARK  Name = 45783474
REMARK  9 active torsions:
REMARK  status: ('A' for Active; 'I' for Inactive)
REMARK    1  A    between atoms: O_2  and  C_27
REMARK    2  A    between atoms: O_2  and  C_28
REMARK    3  A    between atoms: N_3  and  C_9
REMARK    4  A    between atoms: N_7  and  C_25
REMARK    5  A    between atoms: N_7  and  C_26
REMARK    6  A    between atoms: C_8  and  C_9
REMARK    7  A    between atoms: C_10  and  C_19
REMARK    8  A    between atoms: C_20  and  C_21
REMARK    9  A    between atoms: C_26  and  C_27
REMARK                            x       y       z     vdW  Elec       q    Type
REMARK                         _______ _______ _______ _____ _____    ______ ____
ROOT
ATOM      1  O   UNL     1      -7.115  -9.785  12.683  0.00  0.00    -0.336 OA
ATOM      4  N   UNL     1      -6.026  -9.735  10.727  0.00  0.00    -0.190 NA
ATOM      5  N   UNL     1      -5.752  -9.720  12.998  0.00  0.00    -0.056 NA
ATOM     19  C   UNL     1      -7.188  -9.791  11.326  0.00  0.00    +0.245 A 
ATOM     20  C   UNL     1      -5.175  -9.693  11.793  0.00  0.00    +0.204 A 
ENDROOT
BRANCH  20  21
ATOM      6  N   UNL     1      -1.543 -10.102  12.478  0.00  0.00    -0.240 NA
ATOM     21  C   UNL     1      -3.753  -9.627  11.620  0.00  0.00    +0.041 A 
ATOM     22  C   UNL     1      -3.195  -9.052  10.483  0.00  0.00    +0.016 A 
ATOM     23  C   UNL     1      -2.891 -10.133  12.580  0.00  0.00    +0.124 A 
ATOM     24  C   UNL     1      -1.812  -9.002  10.342  0.00  0.00    +0.044 A 
ATOM     25  C   UNL     1      -1.038  -9.536  11.359  0.00  0.00    +0.119 A 
BRANCH  25   7
ATOM      7  N   UNL     1       0.369  -9.478  11.201  0.00  0.00    -0.327 N 
ATOM     29  H   UNL     1       0.858 -10.366  11.183  0.00  0.00    +0.148 HD
BRANCH   7  26
ATOM     26  C   UNL     1       1.080  -8.247  11.078  0.00  0.00    +0.131 C 
BRANCH  26  27
ATOM     27  C   UNL     1       0.695  -7.309  12.209  0.00  0.00    +0.178 C 
BRANCH  27   2
ATOM      2  O   UNL     1       1.650  -6.259  12.299  0.00  0.00    -0.381 OA
ATOM     28  C   UNL     1       2.974  -6.741  12.107  0.00  0.00    +0.194 C 
ENDBRANCH  27   2
ENDBRANCH  26  27
ENDBRANCH   7  26
ENDBRANCH  25   7
ENDBRANCH  20  21
BRANCH  19  10
ATOM      3  N   UNL     1      -9.629  -9.469  11.685  0.00  0.00    -0.291 NA
ATOM     10  C   UNL     1      -8.576  -9.855  10.725  0.00  0.00    +0.146 C 
ATOM     13  C   UNL     1     -10.719  -8.897  10.895  0.00  0.00    +0.085 C 
ATOM     14  C   UNL     1      -8.755  -8.890   9.538  0.00  0.00    +0.030 C 
ATOM     15  C   UNL     1      -9.967  -8.042   9.894  0.00  0.00    +0.017 C 
BRANCH   3   9
ATOM      9  C   UNL     1     -10.078 -10.575  12.520  0.00  0.00    +0.088 C 
BRANCH   9   8
ATOM      8  C   UNL     1     -10.340 -10.106  13.951  0.00  0.00    +0.003 C 
ATOM     11  C   UNL     1      -9.360 -10.769  14.926  0.00  0.00    +0.005 C 
ATOM     12  C   UNL     1     -10.253  -8.576  14.044  0.00  0.00    +0.005 C 
ATOM     16  C   UNL     1      -9.567 -10.276  16.357  0.00  0.00    +0.000 C 
ATOM     17  C   UNL     1     -10.459  -8.086  15.475  0.00  0.00    +0.000 C 
ATOM     18  C   UNL     1      -9.488  -8.754  16.443  0.00  0.00    +0.000 C 
ENDBRANCH   9   8
ENDBRANCH   3   9
ENDBRANCH  19  10
TORSDOF 8
ENDMDL
MODEL 3
REMARK VINA RESULT:      -1.7      1.890      3.665
REMARK  Name = 45783474
REMARK  9 active torsions:
REMARK  status: ('A' for Active; 'I' for Inactive)
REMARK    1  A    between atoms: O_2  and  C_27
REMARK    2  A    between atoms: O_2  and  C_28
REMARK    3  A    between atoms: N_3  and  C_9
REMARK    4  A    between atoms: N_7  and  C_25
REMARK    5  A    between atoms: N_7  and  C_26
REMARK    6  A    between atoms: C_8  and  C_9
REMARK    7  A    between atoms: C_10  and  C_19
REMARK    8  A    between atoms: C_20  and  C_21
REMARK    9  A    between atoms: C_26  and  C_27
REMARK                            x       y       z     vdW  Elec       q    Type
REMARK                         _______ _______ _______ _____ _____    ______ ____
ROOT
ATOM      1  O   UNL     1      -3.187  -0.816  24.928  0.00  0.00    -0.336 OA
ATOM      4  N   UNL     1      -2.191   1.168  24.628  0.00  0.00    -0.190 NA
ATOM      5  N   UNL     1      -1.923  -1.091  24.390  0.00  0.00    -0.056 NA
ATOM     19  C   UNL     1      -3.263   0.537  25.034  0.00  0.00    +0.245 A 
ATOM     20  C   UNL     1      -1.397   0.128  24.241  0.00  0.00    +0.204 A 
ENDROOT
BRANCH  20  21
ATOM      6  N   UNL     1       1.948   1.653  23.683  0.00  0.00    -0.240 NA
ATOM     21  C   UNL     1      -0.082   0.341  23.708  0.00  0.00    +0.041 A 
ATOM     22  C   UNL     1       0.444  -0.504  22.737  0.00  0.00    +0.016 A 
ATOM     23  C   UNL     1       0.703   1.396  24.144  0.00  0.00    +0.124 A 
ATOM     24  C   UNL     1       1.721  -0.272  22.239  0.00  0.00    +0.044 A 
ATOM     25  C   UNL     1       2.426   0.810  22.741  0.00  0.00    +0.119 A 
BRANCH  25   7
ATOM      7  N   UNL     1       3.726   1.033  22.224  0.00  0.00    -0.327 N 
ATOM     29  H   UNL     1       3.841   1.845  21.627  0.00  0.00    +0.148 HD
BRANCH   7  26
ATOM     26  C   UNL     1       4.827   0.173  22.511  0.00  0.00    +0.131 C 
BRANCH  26  27
ATOM     27  C   UNL     1       5.380   0.480  23.893  0.00  0.00    +0.178 C 
BRANCH  27   2
ATOM      2  O   UNL     1       5.546  -0.733  24.616  0.00  0.00    -0.381 OA
ATOM     28  C   UNL     1       4.802  -1.794  24.033  0.00  0.00    +0.194 C 
ENDBRANCH  27   2
ENDBRANCH  26  27
ENDBRANCH   7  26
ENDBRANCH  25   7
ENDBRANCH  20  21
BRANCH  19  10
ATOM      3  N   UNL     1      -4.609   2.571  25.527  0.00  0.00    -0.291 NA
ATOM     10  C   UNL     1      -4.551   1.098  25.600  0.00  0.00    +0.146 C 
ATOM     13  C   UNL     1      -6.024   2.923  25.407  0.00  0.00    +0.085 C 
ATOM     14  C   UNL     1      -5.796   0.618  24.830  0.00  0.00    +0.030 C 
ATOM     15  C   UNL     1      -6.523   1.890  24.417  0.00  0.00    +0.017 C 
BRANCH   3   9
ATOM      9  C   UNL     1      -3.975   3.228  26.663  0.00  0.00    +0.088 C 
BRANCH   9   8
ATOM      8  C   UNL     1      -2.783   4.070  26.209  0.00  0.00    +0.003 C 
ATOM     11  C   UNL     1      -1.488   3.251  26.268  0.00  0.00    +0.005 C 
ATOM     12  C   UNL     1      -3.017   4.622  24.797  0.00  0.00    +0.005 C 
ATOM     16  C   UNL     1      -0.289   4.055  25.769  0.00  0.00    +0.000 C 
ATOM     17  C   UNL     1      -1.817   5.425  24.301  0.00  0.00    +0.000 C 
ATOM     18  C   UNL     1      -0.528   4.610  24.368  0.00  0.00    +0.000 C 
ENDBRANCH   9   8
ENDBRANCH   3   9
ENDBRANCH  19  10
TORSDOF 8
ENDMDL
MODEL 4
REMARK VINA RESULT:      -1.5     14.127     15.905
REMARK  Name = 45783474
REMARK  9 active torsions:
REMARK  status: ('A' for Active; 'I' for Inactive)
REMARK    1  A    between atoms: O_2  and  C_27
REMARK    2  A    between atoms: O_2  and  C_28
REMARK    3  A    between atoms: N_3  and  C_9
REMARK    4  A    between atoms: N_7  and  C_25
REMARK    5  A    between atoms: N_7  and  C_26
REMARK    6  A    between atoms: C_8  and  C_9
REMARK    7  A    between atoms: C_10  and  C_19
REMARK    8  A    between atoms: C_20  and  C_21
REMARK    9  A    between atoms: C_26  and  C_27
REMARK                            x       y       z     vdW  Elec       q    Type
REMARK                         _______ _______ _______ _____ _____    ______ ____
ROOT
ATOM      1  O   UNL     1      -3.246 -10.781  11.952  0.00  0.00    -0.336 OA
ATOM      4  N   UNL     1      -2.644  -9.062  10.649  0.00  0.00    -0.190 NA
ATOM      5  N   UNL     1      -1.958 -10.412  12.363  0.00  0.00    -0.056 NA
ATOM     19  C   UNL     1      -3.573  -9.937  10.939  0.00  0.00    +0.245 A 
ATOM     20  C   UNL     1      -1.673  -9.392  11.549  0.00  0.00    +0.204 A 
ENDROOT
BRANCH  20  21
ATOM      6  N   UNL     1       1.797  -8.342  10.722  0.00  0.00    -0.240 NA
ATOM     21  C   UNL     1      -0.427  -8.684  11.606  0.00  0.00    +0.041 A 
ATOM     22  C   UNL     1      -0.211  -7.688  12.553  0.00  0.00    +0.016 A 
ATOM     23  C   UNL     1       0.600  -8.971  10.722  0.00  0.00    +0.124 A 
ATOM     24  C   UNL     1       1.008  -7.018  12.585  0.00  0.00    +0.044 A 
ATOM     25  C   UNL     1       1.970  -7.380  11.656  0.00  0.00    +0.119 A 
BRANCH  25   7
ATOM      7  N   UNL     1       3.206  -6.688  11.701  0.00  0.00    -0.327 N 
ATOM     29  H   UNL     1       3.378  -6.023  10.955  0.00  0.00    +0.148 HD
BRANCH   7  26
ATOM     26  C   UNL     1       4.172  -6.903  12.728  0.00  0.00    +0.131 C 
BRANCH  26  27
ATOM     27  C   UNL     1       5.281  -7.807  12.217  0.00  0.00    +0.178 C 
BRANCH  27   2
ATOM      2  O   UNL     1       6.542  -7.214  12.497  0.00  0.00    -0.381 OA
ATOM     28  C   UNL     1       6.505  -6.453  13.697  0.00  0.00    +0.194 C 
ENDBRANCH  27   2
ENDBRANCH  26  27
ENDBRANCH   7  26
ENDBRANCH  25   7
ENDBRANCH  20  21
BRANCH  19  10
ATOM      3  N   UNL     1      -6.030  -9.611  11.161  0.00  0.00    -0.291 NA
ATOM     10  C   UNL     1      -4.938 -10.131  10.314  0.00  0.00    +0.146 C 
ATOM     13  C   UNL     1      -7.101  -9.203  10.251  0.00  0.00    +0.085 C 
ATOM     14  C   UNL     1      -5.091  -9.382   8.976  0.00  0.00    +0.030 C 
ATOM     15  C   UNL     1      -6.328  -8.512   9.146  0.00  0.00    +0.017 C 
BRANCH   3   9
ATOM      9  C   UNL     1      -6.491 -10.571  12.156  0.00  0.00    +0.088 C 
BRANCH   9   8
ATOM      8  C   UNL     1      -6.694  -9.895  13.511  0.00  0.00    +0.003 C 
ATOM     11  C   UNL     1      -8.068 -10.249  14.092  0.00  0.00    +0.005 C 
ATOM     12  C   UNL     1      -5.573 -10.283  14.484  0.00  0.00    +0.005 C 
ATOM     16  C   UNL     1      -8.275  -9.628  15.472  0.00  0.00    +0.000 C 
ATOM     17  C   UNL     1      -5.782  -9.661  15.862  0.00  0.00    +0.000 C 
ATOM     18  C   UNL     1      -7.153 -10.009  16.434  0.00  0.00    +0.000 C 
ENDBRANCH   9   8
ENDBRANCH   3   9
ENDBRANCH  19  10
TORSDOF 8
ENDMDL
MODEL 5
REMARK VINA RESULT:      -0.4     18.579     19.863
REMARK  Name = 45783474
REMARK  9 active torsions:
REMARK  status: ('A' for Active; 'I' for Inactive)
REMARK    1  A    between atoms: O_2  and  C_27
REMARK    2  A    between atoms: O_2  and  C_28
REMARK    3  A    between atoms: N_3  and  C_9
REMARK    4  A    between atoms: N_7  and  C_25
REMARK    5  A    between atoms: N_7  and  C_26
REMARK    6  A    between atoms: C_8  and  C_9
REMARK    7  A    between atoms: C_10  and  C_19
REMARK    8  A    between atoms: C_20  and  C_21
REMARK    9  A    between atoms: C_26  and  C_27
REMARK                            x       y       z     vdW  Elec       q    Type
REMARK                         _______ _______ _______ _____ _____    ______ ____
ROOT
ATOM      1  O   UNL     1      15.605  -6.789  26.358  0.00  0.00    -0.336 OA
ATOM      4  N   UNL     1      16.437  -7.535  28.299  0.00  0.00    -0.190 NA
ATOM      5  N   UNL     1      15.745  -5.664  27.180  0.00  0.00    -0.056 NA
ATOM     19  C   UNL     1      16.034  -7.848  27.094  0.00  0.00    +0.245 A 
ATOM     20  C   UNL     1      16.240  -6.185  28.306  0.00  0.00    +0.204 A 
ENDROOT
BRANCH  20  21
ATOM      6  N   UNL     1      16.558  -5.144  31.862  0.00  0.00    -0.240 NA
ATOM     21  C   UNL     1      16.548  -5.385  29.456  0.00  0.00    +0.041 A 
ATOM     22  C   UNL     1      17.112  -4.121  29.321  0.00  0.00    +0.016 A 
ATOM     23  C   UNL     1      16.292  -5.847  30.737  0.00  0.00    +0.124 A 
ATOM     24  C   UNL     1      17.400  -3.368  30.454  0.00  0.00    +0.044 A 
ATOM     25  C   UNL     1      17.106  -3.920  31.690  0.00  0.00    +0.119 A 
BRANCH  25   7
ATOM      7  N   UNL     1      17.405  -3.142  32.836  0.00  0.00    -0.327 N 
ATOM     29  H   UNL     1      17.668  -3.652  33.672  0.00  0.00    +0.148 HD
BRANCH   7  26
ATOM     26  C   UNL     1      17.343  -1.717  32.836  0.00  0.00    +0.131 C 
BRANCH  26  27
ATOM     27  C   UNL     1      17.166  -1.204  31.417  0.00  0.00    +0.178 C 
BRANCH  27   2
ATOM      2  O   UNL     1      17.172   0.218  31.423  0.00  0.00    -0.381 OA
ATOM     28  C   UNL     1      17.075   0.734  32.743  0.00  0.00    +0.194 C 
ENDBRANCH  27   2
ENDBRANCH  26  27
ENDBRANCH   7  26
ENDBRANCH  25   7
ENDBRANCH  20  21
BRANCH  19  10
ATOM      3  N   UNL     1      14.728  -9.927  26.689  0.00  0.00    -0.291 NA
ATOM     10  C   UNL     1      15.985  -9.203  26.419  0.00  0.00    +0.146 C 
ATOM     13  C   UNL     1      14.483 -10.779  25.525  0.00  0.00    +0.085 C 
ATOM     14  C   UNL     1      16.058  -9.104  24.883  0.00  0.00    +0.030 C 
ATOM     15  C   UNL     1      14.833  -9.852  24.378  0.00  0.00    +0.017 C 
BRANCH   3   9
ATOM      9  C   UNL     1      14.759 -10.689  27.931  0.00  0.00    +0.088 C 
BRANCH   9   8
ATOM      8  C   UNL     1      14.051  -9.932  29.053  0.00  0.00    +0.003 C 
ATOM     11  C   UNL     1      12.899 -10.766  29.626  0.00  0.00    +0.005 C 
ATOM     12  C   UNL     1      15.045  -9.543  30.156  0.00  0.00    +0.005 C 
ATOM     16  C   UNL     1      12.208 -10.053  30.786  0.00  0.00    +0.000 C 
ATOM     17  C   UNL     1      14.352  -8.831  31.314  0.00  0.00    +0.000 C 
ATOM     18  C   UNL     1      13.201  -9.660  31.876  0.00  0.00    +0.000 C 
ENDBRANCH   9   8
ENDBRANCH   3   9
ENDBRANCH  19  10
TORSDOF 8
ENDMDL
MODEL 6
REMARK VINA RESULT:       0.9      1.591      3.626
REMARK  Name = 45783474
REMARK  9 active torsions:
REMARK  status: ('A' for Active; 'I' for Inactive)
REMARK    1  A    between atoms: O_2  and  C_27
REMARK    2  A    between atoms: O_2  and  C_28
REMARK    3  A    between atoms: N_3  and  C_9
REMARK    4  A    between atoms: N_7  and  C_25
REMARK    5  A    between atoms: N_7  and  C_26
REMARK    6  A    between atoms: C_8  and  C_9
REMARK    7  A    between atoms: C_10  and  C_19
REMARK    8  A    between atoms: C_20  and  C_21
REMARK    9  A    between atoms: C_26  and  C_27
REMARK                            x       y       z     vdW  Elec       q    Type
REMARK                         _______ _______ _______ _____ _____    ______ ____
ROOT
ATOM      1  O   UNL     1      -2.159   0.353  25.806  0.00  0.00    -0.336 OA
ATOM      4  N   UNL     1      -1.349  -0.858  24.105  0.00  0.00    -0.190 NA
ATOM      5  N   UNL     1      -0.906   0.901  25.499  0.00  0.00    -0.056 NA
ATOM     19  C   UNL     1      -2.341  -0.678  24.939  0.00  0.00    +0.245 A 
ATOM     20  C   UNL     1      -0.492   0.134  24.487  0.00  0.00    +0.204 A 
ENDROOT
BRANCH  20  21
ATOM      6  N   UNL     1       2.709   1.727  23.467  0.00  0.00    -0.240 NA
ATOM     21  C   UNL     1       0.771   0.330  23.837  0.00  0.00    +0.041 A 
ATOM     22  C   UNL     1       1.289  -0.629  22.973  0.00  0.00    +0.016 A 
ATOM     23  C   UNL     1       1.513   1.480  24.048  0.00  0.00    +0.124 A 
ATOM     24  C   UNL     1       2.517  -0.411  22.356  0.00  0.00    +0.044 A 
ATOM     25  C   UNL     1       3.181   0.772  22.635  0.00  0.00    +0.119 A 
BRANCH  25   7
ATOM      7  N   UNL     1       4.430   0.979  22.000  0.00  0.00    -0.327 N 
ATOM     29  H   UNL     1       4.439   1.630  21.222  0.00  0.00    +0.148 HD
BRANCH   7  26
ATOM     26  C   UNL     1       5.624   0.316  22.413  0.00  0.00    +0.131 C 
BRANCH  26  27
ATOM     27  C   UNL     1       5.912   0.628  23.872  0.00  0.00    +0.178 C 
BRANCH  27   2
ATOM      2  O   UNL     1       5.548  -0.487  24.676  0.00  0.00    -0.381 OA
ATOM     28  C   UNL     1       5.298  -1.640  23.884  0.00  0.00    +0.194 C 
ENDBRANCH  27   2
ENDBRANCH  26  27
ENDBRANCH   7  26
ENDBRANCH  25   7
ENDBRANCH  20  21
BRANCH  19  10
ATOM      3  N   UNL     1      -4.635  -1.045  24.050  0.00  0.00    -0.291 NA
ATOM     10  C   UNL     1      -3.641  -1.444  25.065  0.00  0.00    +0.146 C 
ATOM     13  C   UNL     1      -5.467  -2.223  23.801  0.00  0.00    +0.085 C 
ATOM     14  C   UNL     1      -3.459  -2.960  24.861  0.00  0.00    +0.030 C 
ATOM     15  C   UNL     1      -4.435  -3.332  23.755  0.00  0.00    +0.017 C 
BRANCH   3   9
ATOM      9  C   UNL     1      -5.428   0.112  24.446  0.00  0.00    +0.088 C 
BRANCH   9   8
ATOM      8  C   UNL     1      -4.529   1.311  24.745  0.00  0.00    +0.003 C 
ATOM     11  C   UNL     1      -3.914   1.862  23.453  0.00  0.00    +0.005 C 
ATOM     12  C   UNL     1      -5.312   2.403  25.486  0.00  0.00    +0.005 C 
ATOM     16  C   UNL     1      -3.053   3.095  23.719  0.00  0.00    +0.000 C 
ATOM     17  C   UNL     1      -4.449   3.634  25.750  0.00  0.00    +0.000 C 
ATOM     18  C   UNL     1      -3.832   4.175  24.464  0.00  0.00    +0.000 C 
ENDBRANCH   9   8
ENDBRANCH   3   9
ENDBRANCH  19  10
TORSDOF 8
ENDMDL
