MODEL 1
REMARK VINA RESULT:      -4.2      0.000      0.000
REMARK  Name = 56774212
REMARK  9 active torsions:
REMARK  status: ('A' for Active; 'I' for Inactive)
REMARK    1  A    between atoms: S_1  and  N_6
REMARK    2  A    between atoms: S_1  and  C_18
REMARK    3  A    between atoms: N_6  and  C_11
REMARK    4  A    between atoms: N_8  and  C_20
REMARK    5  A    between atoms: C_9  and  C_14
REMARK    6  A    between atoms: C_9  and  C_15
REMARK    7  A    between atoms: C_10  and  C_13
REMARK    8  A    between atoms: C_13  and  C_16
REMARK    9  A    between atoms: C_19  and  C_20
REMARK                            x       y       z     vdW  Elec       q    Type
REMARK                         _______ _______ _______ _____ _____    ______ ____
ROOT
ATOM     13  C   UNL     1      -5.814   1.136  24.515  0.00  0.00    +0.063 C 
ENDROOT
BRANCH  13  10
ATOM      9  C   UNL     1      -4.035  -0.788  24.294  0.00  0.00    -0.015 C 
ATOM     10  C   UNL     1      -5.155  -0.114  25.115  0.00  0.00    +0.004 C 
ATOM     11  C   UNL     1      -3.310  -1.039  25.632  0.00  0.00    +0.082 C 
ATOM     12  C   UNL     1      -4.087   0.170  26.193  0.00  0.00    +0.025 C 
ATOM     14  C   UNL     1      -3.342   0.153  23.334  0.00  0.00    +0.013 C 
ATOM     15  C   UNL     1      -4.419  -2.069  23.576  0.00  0.00    +0.013 C 
BRANCH  11   6
ATOM      6  N   UNL     1      -1.811  -0.914  25.645  0.00  0.00    -0.191 NA
ATOM     25  H   UNL     1      -1.497   0.064  25.684  0.00  0.00    +0.148 HD
BRANCH   6   1
ATOM      1  S   UNL     1      -0.741  -1.964  24.825  0.00  0.00    +0.027 S 
ATOM      2  O   UNL     1      -1.500  -2.915  24.037  0.00  0.00    -0.158 OA
ATOM      3  O   UNL     1       0.276  -2.408  25.759  0.00  0.00    -0.158 OA
ATOM     18  C   UNL     1       0.023  -0.814  23.706  0.00  0.00    +0.214 C 
ENDBRANCH   6   1
ENDBRANCH  11   6
ENDBRANCH  13  10
BRANCH  13  16
ATOM      4  O   UNL     1      -4.636   4.260  25.782  0.00  0.00    -0.358 OA
ATOM      7  N   UNL     1      -5.599   3.264  25.669  0.00  0.00    -0.083 NA
ATOM     16  C   UNL     1      -5.058   2.351  24.858  0.00  0.00    +0.084 A 
ATOM     17  C   UNL     1      -3.769   2.713  24.431  0.00  0.00    +0.072 A 
ATOM     19  C   UNL     1      -3.551   3.921  25.040  0.00  0.00    +0.151 A 
BRANCH  19  20
ATOM     20  C   UNL     1      -2.402   4.893  25.044  0.00  0.00    +0.161 C 
BRANCH  20   8
ATOM      5  O   UNL     1       0.524   1.889  25.240  0.00  0.00    -0.377 OA
ATOM      8  N   UNL     1      -1.117   4.216  25.207  0.00  0.00    -0.291 NA
ATOM     21  C   UNL     1      -1.171   3.252  26.315  0.00  0.00    +0.113 C 
ATOM     22  C   UNL     1      -0.725   3.533  23.966  0.00  0.00    +0.113 C 
ATOM     23  C   UNL     1       0.176   2.550  26.458  0.00  0.00    +0.175 C 
ATOM     24  C   UNL     1       0.611   2.824  24.164  0.00  0.00    +0.175 C 
ENDBRANCH  20   8
ENDBRANCH  19  20
ENDBRANCH  13  16
TORSDOF 6
ENDMDL
MODEL 2
REMARK VINA RESULT:      -4.1      2.945      4.628
REMARK  Name = 56774212
REMARK  9 active torsions:
REMARK  status: ('A' for Active; 'I' for Inactive)
REMARK    1  A    between atoms: S_1  and  N_6
REMARK    2  A    between atoms: S_1  and  C_18
REMARK    3  A    between atoms: N_6  and  C_11
REMARK    4  A    between atoms: N_8  and  C_20
REMARK    5  A    between atoms: C_9  and  C_14
REMARK    6  A    between atoms: C_9  and  C_15
REMARK    7  A    between atoms: C_10  and  C_13
REMARK    8  A    between atoms: C_13  and  C_16
REMARK    9  A    between atoms: C_19  and  C_20
REMARK                            x       y       z     vdW  Elec       q    Type
REMARK                         _______ _______ _______ _____ _____    ______ ____
ROOT
ATOM     13  C   UNL     1      -1.935   3.264  25.049  0.00  0.00    +0.063 C 
ENDROOT
BRANCH  13  10
ATOM      9  C   UNL     1      -4.149   1.909  24.631  0.00  0.00    -0.015 C 
ATOM     10  C   UNL     1      -3.014   2.317  25.593  0.00  0.00    +0.004 C 
ATOM     11  C   UNL     1      -4.075   0.503  25.262  0.00  0.00    +0.082 C 
ATOM     12  C   UNL     1      -2.611   0.827  25.627  0.00  0.00    +0.025 C 
ATOM     14  C   UNL     1      -3.764   1.998  23.171  0.00  0.00    +0.013 C 
ATOM     15  C   UNL     1      -5.485   2.591  24.856  0.00  0.00    +0.013 C 
BRANCH  11   6
ATOM      6  N   UNL     1      -4.274  -0.679  24.353  0.00  0.00    -0.191 NA
ATOM     25  H   UNL     1      -5.211  -0.699  23.931  0.00  0.00    +0.148 HD
BRANCH   6   1
ATOM      1  S   UNL     1      -3.580  -2.222  24.599  0.00  0.00    +0.027 S 
ATOM      2  O   UNL     1      -4.190  -3.180  23.699  0.00  0.00    -0.158 OA
ATOM      3  O   UNL     1      -3.511  -2.473  26.026  0.00  0.00    -0.158 OA
ATOM     18  C   UNL     1      -1.926  -1.911  24.029  0.00  0.00    +0.214 C 
ENDBRANCH   6   1
ENDBRANCH  11   6
ENDBRANCH  13  10
BRANCH  13  16
ATOM      4  O   UNL     1       1.300   1.774  24.778  0.00  0.00    -0.358 OA
ATOM      7  N   UNL     1       0.364   2.572  25.427  0.00  0.00    -0.083 NA
ATOM     16  C   UNL     1      -0.726   2.522  24.657  0.00  0.00    +0.084 A 
ATOM     17  C   UNL     1      -0.540   1.717  23.520  0.00  0.00    +0.072 A 
ATOM     19  C   UNL     1       0.750   1.271  23.644  0.00  0.00    +0.151 A 
BRANCH  19  20
ATOM     20  C   UNL     1       1.628   0.378  22.809  0.00  0.00    +0.161 C 
BRANCH  20   8
ATOM      5  O   UNL     1       5.692  -0.550  23.300  0.00  0.00    -0.377 OA
ATOM      8  N   UNL     1       2.946   0.194  23.412  0.00  0.00    -0.291 NA
ATOM     21  C   UNL     1       3.359  -1.215  23.346  0.00  0.00    +0.113 C 
ATOM     22  C   UNL     1       3.946   1.043  22.750  0.00  0.00    +0.113 C 
ATOM     23  C   UNL     1       4.742  -1.380  23.970  0.00  0.00    +0.175 C 
ATOM     24  C   UNL     1       5.316   0.825  23.388  0.00  0.00    +0.175 C 
ENDBRANCH  20   8
ENDBRANCH  19  20
ENDBRANCH  13  16
TORSDOF 6
ENDMDL
MODEL 3
REMARK VINA RESULT:      -3.9      2.282      6.048
REMARK  Name = 56774212
REMARK  9 active torsions:
REMARK  status: ('A' for Active; 'I' for Inactive)
REMARK    1  A    between atoms: S_1  and  N_6
REMARK    2  A    between atoms: S_1  and  C_18
REMARK    3  A    between atoms: N_6  and  C_11
REMARK    4  A    between atoms: N_8  and  C_20
REMARK    5  A    between atoms: C_9  and  C_14
REMARK    6  A    between atoms: C_9  and  C_15
REMARK    7  A    between atoms: C_10  and  C_13
REMARK    8  A    between atoms: C_13  and  C_16
REMARK    9  A    between atoms: C_19  and  C_20
REMARK                            x       y       z     vdW  Elec       q    Type
REMARK                         _______ _______ _______ _____ _____    ______ ____
ROOT
ATOM     13  C   UNL     1      -0.109   3.633  24.267  0.00  0.00    +0.063 C 
ENDROOT
BRANCH  13  10
ATOM      9  C   UNL     1      -2.719   3.909  24.434  0.00  0.00    -0.015 C 
ATOM     10  C   UNL     1      -1.322   4.186  25.029  0.00  0.00    +0.004 C 
ATOM     11  C   UNL     1      -3.213   3.714  25.882  0.00  0.00    +0.082 C 
ATOM     12  C   UNL     1      -1.760   3.346  26.248  0.00  0.00    +0.025 C 
ATOM     14  C   UNL     1      -2.766   2.682  23.550  0.00  0.00    +0.013 C 
ATOM     15  C   UNL     1      -3.384   5.078  23.731  0.00  0.00    +0.013 C 
BRANCH  11   6
ATOM      6  N   UNL     1      -4.239   2.641  26.129  0.00  0.00    -0.191 NA
ATOM     25  H   UNL     1      -3.914   1.710  25.838  0.00  0.00    +0.148 HD
BRANCH   6   1
ATOM      1  S   UNL     1      -5.929   2.867  26.007  0.00  0.00    +0.027 S 
ATOM      2  O   UNL     1      -6.213   4.250  25.680  0.00  0.00    -0.158 OA
ATOM      3  O   UNL     1      -6.563   2.218  27.140  0.00  0.00    -0.158 OA
ATOM     18  C   UNL     1      -6.268   1.884  24.567  0.00  0.00    +0.214 C 
ENDBRANCH   6   1
ENDBRANCH  11   6
ENDBRANCH  13  10
BRANCH  13  16
ATOM      4  O   UNL     1       0.240   0.148  23.572  0.00  0.00    -0.358 OA
ATOM      7  N   UNL     1       0.369   1.489  23.229  0.00  0.00    -0.083 NA
ATOM     16  C   UNL     1      -0.097   2.162  24.284  0.00  0.00    +0.084 A 
ATOM     17  C   UNL     1      -0.529   1.308  25.313  0.00  0.00    +0.072 A 
ATOM     19  C   UNL     1      -0.295   0.053  24.816  0.00  0.00    +0.151 A 
BRANCH  19  20
ATOM     20  C   UNL     1      -0.507  -1.337  25.353  0.00  0.00    +0.161 C 
BRANCH  20   8
ATOM      5  O   UNL     1      -4.420  -1.960  23.967  0.00  0.00    -0.377 OA
ATOM      8  N   UNL     1      -1.913  -1.734  25.296  0.00  0.00    -0.291 NA
ATOM     21  C   UNL     1      -2.777  -0.564  25.080  0.00  0.00    +0.113 C 
ATOM     22  C   UNL     1      -2.133  -2.726  24.235  0.00  0.00    +0.113 C 
ATOM     23  C   UNL     1      -4.236  -1.004  25.013  0.00  0.00    +0.175 C 
ATOM     24  C   UNL     1      -3.608  -3.114  24.187  0.00  0.00    +0.175 C 
ENDBRANCH  20   8
ENDBRANCH  19  20
ENDBRANCH  13  16
TORSDOF 6
ENDMDL
MODEL 4
REMARK VINA RESULT:      -3.7      2.442      4.646
REMARK  Name = 56774212
REMARK  9 active torsions:
REMARK  status: ('A' for Active; 'I' for Inactive)
REMARK    1  A    between atoms: S_1  and  N_6
REMARK    2  A    between atoms: S_1  and  C_18
REMARK    3  A    between atoms: N_6  and  C_11
REMARK    4  A    between atoms: N_8  and  C_20
REMARK    5  A    between atoms: C_9  and  C_14
REMARK    6  A    between atoms: C_9  and  C_15
REMARK    7  A    between atoms: C_10  and  C_13
REMARK    8  A    between atoms: C_13  and  C_16
REMARK    9  A    between atoms: C_19  and  C_20
REMARK                            x       y       z     vdW  Elec       q    Type
REMARK                         _______ _______ _______ _____ _____    ______ ____
ROOT
ATOM     13  C   UNL     1      -1.077  -1.521  24.038  0.00  0.00    +0.063 C 
ENDROOT
BRANCH  13  10
ATOM      9  C   UNL     1      -3.640  -1.722  24.592  0.00  0.00    -0.015 C 
ATOM     10  C   UNL     1      -2.533  -1.324  23.593  0.00  0.00    +0.004 C 
ATOM     11  C   UNL     1      -4.418  -0.482  24.108  0.00  0.00    +0.082 C 
ATOM     12  C   UNL     1      -3.055   0.124  23.712  0.00  0.00    +0.025 C 
ATOM     14  C   UNL     1      -3.188  -1.696  26.035  0.00  0.00    +0.013 C 
ATOM     15  C   UNL     1      -4.358  -3.026  24.299  0.00  0.00    +0.013 C 
BRANCH  11   6
ATOM      6  N   UNL     1      -5.202   0.291  25.132  0.00  0.00    -0.191 NA
ATOM     25  H   UNL     1      -5.752  -0.318  25.752  0.00  0.00    +0.148 HD
BRANCH   6   1
ATOM      1  S   UNL     1      -5.896   1.831  24.866  0.00  0.00    +0.027 S 
ATOM      2  O   UNL     1      -7.266   1.677  24.420  0.00  0.00    -0.158 OA
ATOM      3  O   UNL     1      -4.951   2.639  24.119  0.00  0.00    -0.158 OA
ATOM     18  C   UNL     1      -5.929   2.447  26.532  0.00  0.00    +0.214 C 
ENDBRANCH   6   1
ENDBRANCH  11   6
ENDBRANCH  13  10
BRANCH  13  16
ATOM      4  O   UNL     1       0.837   1.493  24.076  0.00  0.00    -0.358 OA
ATOM      7  N   UNL     1       0.432   0.301  23.485  0.00  0.00    -0.083 NA
ATOM     16  C   UNL     1      -0.436  -0.234  24.348  0.00  0.00    +0.084 A 
ATOM     17  C   UNL     1      -0.617   0.567  25.489  0.00  0.00    +0.072 A 
ATOM     19  C   UNL     1       0.205   1.640  25.268  0.00  0.00    +0.151 A 
BRANCH  19  20
ATOM     20  C   UNL     1       0.528   2.884  26.052  0.00  0.00    +0.161 C 
BRANCH  20   8
ATOM      5  O   UNL     1      -2.950   4.936  24.906  0.00  0.00    -0.377 OA
ATOM      8  N   UNL     1      -0.579   3.838  26.037  0.00  0.00    -0.291 NA
ATOM     21  C   UNL     1      -0.541   4.663  24.820  0.00  0.00    +0.113 C 
ATOM     22  C   UNL     1      -1.870   3.143  26.132  0.00  0.00    +0.113 C 
ATOM     23  C   UNL     1      -1.711   5.642  24.822  0.00  0.00    +0.175 C 
ATOM     24  C   UNL     1      -3.009   4.158  26.102  0.00  0.00    +0.175 C 
ENDBRANCH  20   8
ENDBRANCH  19  20
ENDBRANCH  13  16
TORSDOF 6
ENDMDL
MODEL 5
REMARK VINA RESULT:      -3.6      3.392      5.802
REMARK  Name = 56774212
REMARK  9 active torsions:
REMARK  status: ('A' for Active; 'I' for Inactive)
REMARK    1  A    between atoms: S_1  and  N_6
REMARK    2  A    between atoms: S_1  and  C_18
REMARK    3  A    between atoms: N_6  and  C_11
REMARK    4  A    between atoms: N_8  and  C_20
REMARK    5  A    between atoms: C_9  and  C_14
REMARK    6  A    between atoms: C_9  and  C_15
REMARK    7  A    between atoms: C_10  and  C_13
REMARK    8  A    between atoms: C_13  and  C_16
REMARK    9  A    between atoms: C_19  and  C_20
REMARK                            x       y       z     vdW  Elec       q    Type
REMARK                         _______ _______ _______ _____ _____    ______ ____
ROOT
ATOM     13  C   UNL     1      -1.188  -0.936  24.425  0.00  0.00    +0.063 C 
ENDROOT
BRANCH  13  10
ATOM      9  C   UNL     1      -3.796  -0.643  24.600  0.00  0.00    -0.015 C 
ATOM     10  C   UNL     1      -2.487  -0.377  23.827  0.00  0.00    +0.004 C 
ATOM     11  C   UNL     1      -4.228   0.784  24.209  0.00  0.00    +0.082 C 
ATOM     12  C   UNL     1      -2.728   1.125  24.090  0.00  0.00    +0.025 C 
ATOM     14  C   UNL     1      -3.584  -0.886  26.078  0.00  0.00    +0.013 C 
ATOM     15  C   UNL     1      -4.699  -1.718  24.024  0.00  0.00    +0.013 C 
BRANCH  11   6
ATOM      6  N   UNL     1      -5.000   1.582  25.225  0.00  0.00    -0.191 NA
ATOM     25  H   UNL     1      -5.965   1.247  25.339  0.00  0.00    +0.148 HD
BRANCH   6   1
ATOM      1  S   UNL     1      -4.797   3.256  25.503  0.00  0.00    +0.027 S 
ATOM      2  O   UNL     1      -3.679   3.469  26.400  0.00  0.00    -0.158 OA
ATOM      3  O   UNL     1      -6.098   3.838  25.775  0.00  0.00    -0.158 OA
ATOM     18  C   UNL     1      -4.303   3.781  23.879  0.00  0.00    +0.214 C 
ENDBRANCH   6   1
ENDBRANCH  11   6
ENDBRANCH  13  10
BRANCH  13  16
ATOM      4  O   UNL     1       1.336   1.559  24.027  0.00  0.00    -0.358 OA
ATOM      7  N   UNL     1       0.178   1.065  24.617  0.00  0.00    -0.083 NA
ATOM     16  C   UNL     1      -0.029  -0.119  24.034  0.00  0.00    +0.084 A 
ATOM     17  C   UNL     1       0.956  -0.422  23.077  0.00  0.00    +0.072 A 
ATOM     19  C   UNL     1       1.789   0.665  23.112  0.00  0.00    +0.151 A 
BRANCH  19  20
ATOM     20  C   UNL     1       3.045   1.039  22.371  0.00  0.00    +0.161 C 
BRANCH  20   8
ATOM      5  O   UNL     1       5.857  -1.103  24.634  0.00  0.00    -0.377 OA
ATOM      8  N   UNL     1       4.168   0.177  22.733  0.00  0.00    -0.291 NA
ATOM     21  C   UNL     1       5.178   0.928  23.493  0.00  0.00    +0.113 C 
ATOM     22  C   UNL     1       3.708  -0.980  23.514  0.00  0.00    +0.113 C 
ATOM     23  C   UNL     1       6.334   0.006  23.870  0.00  0.00    +0.175 C 
ATOM     24  C   UNL     1       4.899  -1.857  23.891  0.00  0.00    +0.175 C 
ENDBRANCH  20   8
ENDBRANCH  19  20
ENDBRANCH  13  16
TORSDOF 6
ENDMDL
MODEL 6
REMARK VINA RESULT:      -3.1      2.379      4.986
REMARK  Name = 56774212
REMARK  9 active torsions:
REMARK  status: ('A' for Active; 'I' for Inactive)
REMARK    1  A    between atoms: S_1  and  N_6
REMARK    2  A    between atoms: S_1  and  C_18
REMARK    3  A    between atoms: N_6  and  C_11
REMARK    4  A    between atoms: N_8  and  C_20
REMARK    5  A    between atoms: C_9  and  C_14
REMARK    6  A    between atoms: C_9  and  C_15
REMARK    7  A    between atoms: C_10  and  C_13
REMARK    8  A    between atoms: C_13  and  C_16
REMARK    9  A    between atoms: C_19  and  C_20
REMARK                            x       y       z     vdW  Elec       q    Type
REMARK                         _______ _______ _______ _____ _____    ______ ____
ROOT
ATOM     13  C   UNL     1      -1.370  -2.282  24.337  0.00  0.00    +0.063 C 
ENDROOT
BRANCH  13  10
ATOM      9  C   UNL     1      -0.017  -0.183  23.514  0.00  0.00    -0.015 C 
ATOM     10  C   UNL     1      -0.262  -1.252  24.599  0.00  0.00    +0.004 C 
ATOM     11  C   UNL     1       0.217   0.820  24.662  0.00  0.00    +0.082 C 
ATOM     12  C   UNL     1      -0.664  -0.095  25.539  0.00  0.00    +0.025 C 
ATOM     14  C   UNL     1      -1.226   0.082  22.644  0.00  0.00    +0.013 C 
ATOM     15  C   UNL     1       1.209  -0.389  22.645  0.00  0.00    +0.013 C 
BRANCH  11   6
ATOM      6  N   UNL     1      -0.287   2.225  24.474  0.00  0.00    -0.191 NA
ATOM     25  H   UNL     1       0.032   2.644  23.591  0.00  0.00    +0.148 HD
BRANCH   6   1
ATOM      1  S   UNL     1      -0.527   3.348  25.739  0.00  0.00    +0.027 S 
ATOM      2  O   UNL     1       0.642   3.374  26.595  0.00  0.00    -0.158 OA
ATOM      3  O   UNL     1      -1.855   3.146  26.289  0.00  0.00    -0.158 OA
ATOM     18  C   UNL     1      -0.557   4.861  24.808  0.00  0.00    +0.214 C 
ENDBRANCH   6   1
ENDBRANCH  11   6
ENDBRANCH  13  10
BRANCH  13  16
ATOM      4  O   UNL     1      -4.809  -1.358  24.069  0.00  0.00    -0.358 OA
ATOM      7  N   UNL     1      -3.718  -2.149  23.725  0.00  0.00    -0.083 NA
ATOM     16  C   UNL     1      -2.703  -1.670  24.449  0.00  0.00    +0.084 A 
ATOM     17  C   UNL     1      -3.089  -0.588  25.260  0.00  0.00    +0.072 A 
ATOM     19  C   UNL     1      -4.422  -0.432  24.983  0.00  0.00    +0.151 A 
BRANCH  19  20
ATOM     20  C   UNL     1      -5.483   0.517  25.471  0.00  0.00    +0.161 C 
BRANCH  20   8
ATOM      5  O   UNL     1      -3.978   4.319  24.524  0.00  0.00    -0.377 OA
ATOM      8  N   UNL     1      -5.341   1.844  24.877  0.00  0.00    -0.291 NA
ATOM     21  C   UNL     1      -5.355   2.885  25.915  0.00  0.00    +0.113 C 
ATOM     22  C   UNL     1      -4.103   1.935  24.091  0.00  0.00    +0.113 C 
ATOM     23  C   UNL     1      -5.194   4.259  25.273  0.00  0.00    +0.175 C 
ATOM     24  C   UNL     1      -3.970   3.332  23.492  0.00  0.00    +0.175 C 
ENDBRANCH  20   8
ENDBRANCH  19  20
ENDBRANCH  13  16
TORSDOF 6
ENDMDL
MODEL 7
REMARK VINA RESULT:      -3.0      3.346      6.214
REMARK  Name = 56774212
REMARK  9 active torsions:
REMARK  status: ('A' for Active; 'I' for Inactive)
REMARK    1  A    between atoms: S_1  and  N_6
REMARK    2  A    between atoms: S_1  and  C_18
REMARK    3  A    between atoms: N_6  and  C_11
REMARK    4  A    between atoms: N_8  and  C_20
REMARK    5  A    between atoms: C_9  and  C_14
REMARK    6  A    between atoms: C_9  and  C_15
REMARK    7  A    between atoms: C_10  and  C_13
REMARK    8  A    between atoms: C_13  and  C_16
REMARK    9  A    between atoms: C_19  and  C_20
REMARK                            x       y       z     vdW  Elec       q    Type
REMARK                         _______ _______ _______ _____ _____    ______ ____
ROOT
ATOM     13  C   UNL     1      -0.726   2.015  25.317  0.00  0.00    +0.063 C 
ENDROOT
BRANCH  13  10
ATOM      9  C   UNL     1      -2.683   2.478  23.623  0.00  0.00    -0.015 C 
ATOM     10  C   UNL     1      -1.502   3.020  24.454  0.00  0.00    +0.004 C 
ATOM     11  C   UNL     1      -3.426   3.784  23.966  0.00  0.00    +0.082 C 
ATOM     12  C   UNL     1      -2.535   3.872  25.222  0.00  0.00    +0.025 C 
ATOM     14  C   UNL     1      -3.284   1.209  24.186  0.00  0.00    +0.013 C 
ATOM     15  C   UNL     1      -2.427   2.312  22.136  0.00  0.00    +0.013 C 
BRANCH  11   6
ATOM      6  N   UNL     1      -4.907   3.697  24.222  0.00  0.00    -0.191 NA
ATOM     25  H   UNL     1      -5.457   4.244  23.548  0.00  0.00    +0.148 HD
BRANCH   6   1
ATOM      1  S   UNL     1      -5.618   3.568  25.771  0.00  0.00    +0.027 S 
ATOM      2  O   UNL     1      -6.599   4.620  25.945  0.00  0.00    -0.158 OA
ATOM      3  O   UNL     1      -4.565   3.355  26.746  0.00  0.00    -0.158 OA
ATOM     18  C   UNL     1      -6.492   2.032  25.582  0.00  0.00    +0.214 C 
ENDBRANCH   6   1
ENDBRANCH  11   6
ENDBRANCH  13  10
BRANCH  13  16
ATOM      4  O   UNL     1       0.576  -0.881  23.682  0.00  0.00    -0.358 OA
ATOM      7  N   UNL     1      -0.264  -0.260  24.600  0.00  0.00    -0.083 NA
ATOM     16  C   UNL     1      -0.003   1.044  24.481  0.00  0.00    +0.084 A 
ATOM     17  C   UNL     1       0.983   1.305  23.513  0.00  0.00    +0.072 A 
ATOM     19  C   UNL     1       1.313   0.062  23.041  0.00  0.00    +0.151 A 
BRANCH  19  20
ATOM     20  C   UNL     1       2.285  -0.434  22.004  0.00  0.00    +0.161 C 
BRANCH  20   8
ATOM      5  O   UNL     1       5.594  -0.103  24.565  0.00  0.00    -0.377 OA
ATOM      8  N   UNL     1       3.653  -0.476  22.516  0.00  0.00    -0.291 NA
ATOM     21  C   UNL     1       4.102   0.866  22.915  0.00  0.00    +0.113 C 
ATOM     22  C   UNL     1       3.757  -1.400  23.653  0.00  0.00    +0.113 C 
ATOM     23  C   UNL     1       5.527   0.795  23.456  0.00  0.00    +0.175 C 
ATOM     24  C   UNL     1       5.190  -1.417  24.178  0.00  0.00    +0.175 C 
ENDBRANCH  20   8
ENDBRANCH  19  20
ENDBRANCH  13  16
TORSDOF 6
ENDMDL
MODEL 8
REMARK VINA RESULT:      -2.8      1.757      2.073
REMARK  Name = 56774212
REMARK  9 active torsions:
REMARK  status: ('A' for Active; 'I' for Inactive)
REMARK    1  A    between atoms: S_1  and  N_6
REMARK    2  A    between atoms: S_1  and  C_18
REMARK    3  A    between atoms: N_6  and  C_11
REMARK    4  A    between atoms: N_8  and  C_20
REMARK    5  A    between atoms: C_9  and  C_14
REMARK    6  A    between atoms: C_9  and  C_15
REMARK    7  A    between atoms: C_10  and  C_13
REMARK    8  A    between atoms: C_13  and  C_16
REMARK    9  A    between atoms: C_19  and  C_20
REMARK                            x       y       z     vdW  Elec       q    Type
REMARK                         _______ _______ _______ _____ _____    ______ ____
ROOT
ATOM     13  C   UNL     1      -5.271  -0.126  24.970  0.00  0.00    +0.063 C 
ENDROOT
BRANCH  13  10
ATOM      9  C   UNL     1      -3.328  -1.807  24.412  0.00  0.00    -0.015 C 
ATOM     10  C   UNL     1      -4.047  -0.920  25.449  0.00  0.00    +0.004 C 
ATOM     11  C   UNL     1      -2.003  -1.375  25.074  0.00  0.00    +0.082 C 
ATOM     12  C   UNL     1      -2.741  -0.103  25.542  0.00  0.00    +0.025 C 
ATOM     14  C   UNL     1      -3.531  -1.352  22.984  0.00  0.00    +0.013 C 
ATOM     15  C   UNL     1      -3.588  -3.298  24.522  0.00  0.00    +0.013 C 
BRANCH  11   6
ATOM      6  N   UNL     1      -0.818  -1.147  24.176  0.00  0.00    -0.191 NA
ATOM     25  H   UNL     1      -0.120  -1.900  24.245  0.00  0.00    +0.148 HD
BRANCH   6   1
ATOM      1  S   UNL     1      -0.163   0.386  23.801  0.00  0.00    +0.027 S 
ATOM      2  O   UNL     1       0.449   0.957  24.985  0.00  0.00    -0.158 OA
ATOM      3  O   UNL     1      -1.143   1.130  23.032  0.00  0.00    -0.158 OA
ATOM     18  C   UNL     1       1.137  -0.096  22.691  0.00  0.00    +0.214 C 
ENDBRANCH   6   1
ENDBRANCH  11   6
ENDBRANCH  13  10
BRANCH  13  16
ATOM      4  O   UNL     1      -5.688   3.149  26.332  0.00  0.00    -0.358 OA
ATOM      7  N   UNL     1      -6.075   1.822  26.179  0.00  0.00    -0.083 NA
ATOM     16  C   UNL     1      -5.169   1.290  25.354  0.00  0.00    +0.084 A 
ATOM     17  C   UNL     1      -4.196   2.224  24.958  0.00  0.00    +0.072 A 
ATOM     19  C   UNL     1      -4.568   3.375  25.600  0.00  0.00    +0.151 A 
BRANCH  19  20
ATOM     20  C   UNL     1      -4.004   4.770  25.647  0.00  0.00    +0.161 C 
BRANCH  20   8
ATOM      5  O   UNL     1       0.028   3.908  24.858  0.00  0.00    -0.377 OA
ATOM      8  N   UNL     1      -2.545   4.764  25.727  0.00  0.00    -0.291 NA
ATOM     21  C   UNL     1      -2.043   3.414  26.021  0.00  0.00    +0.113 C 
ATOM     22  C   UNL     1      -1.951   5.260  24.478  0.00  0.00    +0.113 C 
ATOM     23  C   UNL     1      -0.519   3.431  26.088  0.00  0.00    +0.175 C 
ATOM     24  C   UNL     1      -0.428   5.233  24.581  0.00  0.00    +0.175 C 
ENDBRANCH  20   8
ENDBRANCH  19  20
ENDBRANCH  13  16
TORSDOF 6
ENDMDL
MODEL 9
REMARK VINA RESULT:      -1.4      2.785      4.911
REMARK  Name = 56774212
REMARK  9 active torsions:
REMARK  status: ('A' for Active; 'I' for Inactive)
REMARK    1  A    between atoms: S_1  and  N_6
REMARK    2  A    between atoms: S_1  and  C_18
REMARK    3  A    between atoms: N_6  and  C_11
REMARK    4  A    between atoms: N_8  and  C_20
REMARK    5  A    between atoms: C_9  and  C_14
REMARK    6  A    between atoms: C_9  and  C_15
REMARK    7  A    between atoms: C_10  and  C_13
REMARK    8  A    between atoms: C_13  and  C_16
REMARK    9  A    between atoms: C_19  and  C_20
REMARK                            x       y       z     vdW  Elec       q    Type
REMARK                         _______ _______ _______ _____ _____    ______ ____
ROOT
ATOM     13  C   UNL     1      -1.115  -1.014  23.780  0.00  0.00    +0.063 C 
ENDROOT
BRANCH  13  10
ATOM      9  C   UNL     1      -3.615  -1.355  24.519  0.00  0.00    -0.015 C 
ATOM     10  C   UNL     1      -2.607  -0.773  23.507  0.00  0.00    +0.004 C 
ATOM     11  C   UNL     1      -4.440  -0.067  24.323  0.00  0.00    +0.082 C 
ATOM     12  C   UNL     1      -3.122   0.624  23.914  0.00  0.00    +0.025 C 
ATOM     14  C   UNL     1      -3.033  -1.561  25.900  0.00  0.00    +0.013 C 
ATOM     15  C   UNL     1      -4.351  -2.606  24.077  0.00  0.00    +0.013 C 
BRANCH  11   6
ATOM      6  N   UNL     1      -5.130   0.509  25.529  0.00  0.00    -0.191 NA
ATOM     25  H   UNL     1      -5.529  -0.217  26.139  0.00  0.00    +0.148 HD
BRANCH   6   1
ATOM      1  S   UNL     1      -5.984   1.989  25.546  0.00  0.00    +0.027 S 
ATOM      2  O   UNL     1      -6.371   2.313  26.905  0.00  0.00    -0.158 OA
ATOM      3  O   UNL     1      -6.959   1.971  24.472  0.00  0.00    -0.158 OA
ATOM     18  C   UNL     1      -4.683   3.101  25.069  0.00  0.00    +0.214 C 
ENDBRANCH   6   1
ENDBRANCH  11   6
ENDBRANCH  13  10
BRANCH  13  16
ATOM      4  O   UNL     1       0.846   1.919  24.333  0.00  0.00    -0.358 OA
ATOM      7  N   UNL     1       0.448   0.834  23.560  0.00  0.00    -0.083 NA
ATOM     16  C   UNL     1      -0.467   0.201  24.299  0.00  0.00    +0.084 A 
ATOM     17  C   UNL     1      -0.685   0.833  25.535  0.00  0.00    +0.072 A 
ATOM     19  C   UNL     1       0.164   1.907  25.507  0.00  0.00    +0.151 A 
BRANCH  19  20
ATOM     20  C   UNL     1       0.472   3.018  26.475  0.00  0.00    +0.161 C 
BRANCH  20   8
ATOM      5  O   UNL     1       2.298   2.867  30.251  0.00  0.00    -0.377 OA
ATOM      8  N   UNL     1       1.196   2.533  27.647  0.00  0.00    -0.291 NA
ATOM     21  C   UNL     1       2.416   3.322  27.871  0.00  0.00    +0.113 C 
ATOM     22  C   UNL     1       0.344   2.575  28.843  0.00  0.00    +0.113 C 
ATOM     23  C   UNL     1       3.149   2.805  29.106  0.00  0.00    +0.175 C 
ATOM     24  C   UNL     1       1.125   2.076  30.055  0.00  0.00    +0.175 C 
ENDBRANCH  20   8
ENDBRANCH  19  20
ENDBRANCH  13  16
TORSDOF 6
ENDMDL
MODEL 10
REMARK VINA RESULT:      -1.2      2.214      3.475
REMARK  Name = 56774212
REMARK  9 active torsions:
REMARK  status: ('A' for Active; 'I' for Inactive)
REMARK    1  A    between atoms: S_1  and  N_6
REMARK    2  A    between atoms: S_1  and  C_18
REMARK    3  A    between atoms: N_6  and  C_11
REMARK    4  A    between atoms: N_8  and  C_20
REMARK    5  A    between atoms: C_9  and  C_14
REMARK    6  A    between atoms: C_9  and  C_15
REMARK    7  A    between atoms: C_10  and  C_13
REMARK    8  A    between atoms: C_13  and  C_16
REMARK    9  A    between atoms: C_19  and  C_20
REMARK                            x       y       z     vdW  Elec       q    Type
REMARK                         _______ _______ _______ _____ _____    ______ ____
ROOT
ATOM     13  C   UNL     1      -3.698   3.723  25.660  0.00  0.00    +0.063 C 
ENDROOT
BRANCH  13  10
ATOM      9  C   UNL     1      -5.126   1.762  24.646  0.00  0.00    -0.015 C 
ATOM     10  C   UNL     1      -4.430   2.390  25.871  0.00  0.00    +0.004 C 
ATOM     11  C   UNL     1      -4.656   0.392  25.176  0.00  0.00    +0.082 C 
ATOM     12  C   UNL     1      -3.516   1.146  25.892  0.00  0.00    +0.025 C 
ATOM     14  C   UNL     1      -4.532   2.198  23.325  0.00  0.00    +0.013 C 
ATOM     15  C   UNL     1      -6.637   1.896  24.602  0.00  0.00    +0.013 C 
BRANCH  11   6
ATOM      6  N   UNL     1      -4.224  -0.635  24.165  0.00  0.00    -0.191 NA
ATOM     25  H   UNL     1      -4.792  -0.608  23.308  0.00  0.00    +0.148 HD
BRANCH   6   1
ATOM      1  S   UNL     1      -3.608  -2.181  24.553  0.00  0.00    +0.027 S 
ATOM      2  O   UNL     1      -4.196  -3.174  23.676  0.00  0.00    -0.158 OA
ATOM      3  O   UNL     1      -3.639  -2.341  25.995  0.00  0.00    -0.158 OA
ATOM     18  C   UNL     1      -1.910  -1.966  24.074  0.00  0.00    +0.214 C 
ENDBRANCH   6   1
ENDBRANCH  11   6
ENDBRANCH  13  10
BRANCH  13  16
ATOM      4  O   UNL     1      -0.182   3.175  25.965  0.00  0.00    -0.358 OA
ATOM      7  N   UNL     1      -1.451   3.351  26.507  0.00  0.00    -0.083 NA
ATOM     16  C   UNL     1      -2.256   3.512  25.454  0.00  0.00    +0.084 A 
ATOM     17  C   UNL     1      -1.560   3.448  24.234  0.00  0.00    +0.072 A 
ATOM     19  C   UNL     1      -0.261   3.235  24.612  0.00  0.00    +0.151 A 
BRANCH  19  20
ATOM     20  C   UNL     1       1.029   3.064  23.855  0.00  0.00    +0.161 C 
BRANCH  20   8
ATOM      5  O   UNL     1       1.976  -0.745  22.367  0.00  0.00    -0.377 OA
ATOM      8  N   UNL     1       1.439   1.663  23.788  0.00  0.00    -0.291 NA
ATOM     21  C   UNL     1       0.354   0.827  23.253  0.00  0.00    +0.113 C 
ATOM     22  C   UNL     1       2.645   1.510  22.964  0.00  0.00    +0.113 C 
ATOM     23  C   UNL     1       0.809  -0.628  23.182  0.00  0.00    +0.175 C 
ATOM     24  C   UNL     1       3.046   0.038  22.898  0.00  0.00    +0.175 C 
ENDBRANCH  20   8
ENDBRANCH  19  20
ENDBRANCH  13  16
TORSDOF 6
ENDMDL
