MODEL 1
REMARK VINA RESULT:      -5.8      0.000      0.000
REMARK  Name = 75536631
REMARK  8 active torsions:
REMARK  status: ('A' for Active; 'I' for Inactive)
REMARK    1  A    between atoms: O_2  and  C_8
REMARK    2  A    between atoms: N_4  and  C_7
REMARK    3  A    between atoms: N_4  and  C_12
REMARK    4  A    between atoms: N_5  and  C_11
REMARK    5  A    between atoms: C_9  and  C_11
REMARK    6  A    between atoms: C_12  and  C_13
REMARK    7  A    between atoms: C_14  and  C_17
REMARK    8  A    between atoms: C_18  and  C_26
REMARK                            x       y       z     vdW  Elec       q    Type
REMARK                         _______ _______ _______ _____ _____    ______ ____
ROOT
ATOM      1  O   UNL     1      -1.911  -0.711  25.901  0.00  0.00    -0.371 OA
ATOM      7  C   UNL     1      -3.690  -1.615  24.627  0.00  0.00    +0.111 C 
ATOM      8  C   UNL     1      -2.386  -2.071  23.997  0.00  0.00    +0.164 C 
ATOM      9  C   UNL     1      -1.301  -1.280  24.727  0.00  0.00    +0.165 C 
ATOM     10  C   UNL     1      -3.241  -1.228  26.027  0.00  0.00    +0.181 C 
ENDROOT
BRANCH   8   2
ATOM      2  O   UNL     1      -2.224  -3.461  24.288  0.00  0.00    -0.388 OA
ATOM     28  H   UNL     1      -1.821  -3.876  23.506  0.00  0.00    +0.210 HD
ENDBRANCH   8   2
BRANCH   7   4
ATOM      4  N   UNL     1      -4.253  -0.463  23.927  0.00  0.00    -0.305 NA
ATOM     27  H   UNL     1      -3.500   0.178  23.678  0.00  0.00    +0.123 HD
BRANCH   4  12
ATOM     12  C   UNL     1      -5.207   0.248  24.769  0.00  0.00    +0.116 C 
BRANCH  12  13
ATOM     13  C   UNL     1      -4.791   1.677  25.003  0.00  0.00    -0.032 A 
ATOM     15  C   UNL     1      -3.457   2.051  24.850  0.00  0.00    +0.023 A 
ATOM     16  C   UNL     1      -5.745   2.627  25.372  0.00  0.00    +0.005 A 
ATOM     18  C   UNL     1      -3.074   3.374  25.066  0.00  0.00    +0.052 A 
ATOM     19  C   UNL     1      -5.362   3.950  25.587  0.00  0.00    +0.002 A 
ATOM     20  C   UNL     1      -4.027   4.325  25.434  0.00  0.00    +0.019 A 
BRANCH  18  26
ATOM      6  N   UNL     1      -0.597   4.071  24.781  0.00  0.00    -0.191 NA
ATOM     26  C   UNL     1      -1.707   3.759  24.909  0.00  0.00    +0.099 C 
ENDBRANCH  18  26
ENDBRANCH  12  13
ENDBRANCH   4  12
ENDBRANCH   7   4
BRANCH   9  11
ATOM     11  C   UNL     1      -0.712  -0.148  23.898  0.00  0.00    +0.138 C 
BRANCH  11   5
ATOM      3  O   UNL     1       1.146  -0.314  21.716  0.00  0.00    -0.270 OA
ATOM      5  N   UNL     1       0.720  -0.125  23.989  0.00  0.00    -0.309 N 
ATOM     14  C   UNL     1       1.546  -0.211  22.873  0.00  0.00    +0.244 C 
ATOM     29  H   UNL     1       1.116  -0.124  24.923  0.00  0.00    +0.149 HD
BRANCH  14  17
ATOM     17  C   UNL     1       3.008  -0.198  23.137  0.00  0.00    +0.037 A 
ATOM     21  C   UNL     1       3.629  -1.326  23.674  0.00  0.00    +0.013 A 
ATOM     22  C   UNL     1       3.759   0.942  22.852  0.00  0.00    +0.013 A 
ATOM     23  C   UNL     1       5.002  -1.315  23.924  0.00  0.00    +0.001 A 
ATOM     24  C   UNL     1       5.131   0.954  23.101  0.00  0.00    +0.001 A 
ATOM     25  C   UNL     1       5.753  -0.174  23.637  0.00  0.00    +0.000 A 
ENDBRANCH  14  17
ENDBRANCH  11   5
ENDBRANCH   9  11
TORSDOF 8
ENDMDL
MODEL 2
REMARK VINA RESULT:      -5.8      2.749      6.821
REMARK  Name = 75536631
REMARK  8 active torsions:
REMARK  status: ('A' for Active; 'I' for Inactive)
REMARK    1  A    between atoms: O_2  and  C_8
REMARK    2  A    between atoms: N_4  and  C_7
REMARK    3  A    between atoms: N_4  and  C_12
REMARK    4  A    between atoms: N_5  and  C_11
REMARK    5  A    between atoms: C_9  and  C_11
REMARK    6  A    between atoms: C_12  and  C_13
REMARK    7  A    between atoms: C_14  and  C_17
REMARK    8  A    between atoms: C_18  and  C_26
REMARK                            x       y       z     vdW  Elec       q    Type
REMARK                         _______ _______ _______ _____ _____    ______ ____
ROOT
ATOM      1  O   UNL     1      -4.233   3.929  25.771  0.00  0.00    -0.371 OA
ATOM      7  C   UNL     1      -1.893   3.723  26.071  0.00  0.00    +0.111 C 
ATOM      8  C   UNL     1      -2.133   4.508  24.793  0.00  0.00    +0.164 C 
ATOM      9  C   UNL     1      -3.639   4.410  24.551  0.00  0.00    +0.165 C 
ATOM     10  C   UNL     1      -3.225   3.881  26.788  0.00  0.00    +0.181 C 
ENDROOT
BRANCH   8   2
ATOM      2  O   UNL     1      -1.790   5.872  25.050  0.00  0.00    -0.388 OA
ATOM     28  H   UNL     1      -0.827   5.953  24.944  0.00  0.00    +0.210 HD
ENDBRANCH   8   2
BRANCH   7   4
ATOM      4  N   UNL     1      -1.617   2.315  25.795  0.00  0.00    -0.305 NA
ATOM     27  H   UNL     1      -2.064   1.740  26.509  0.00  0.00    +0.123 HD
BRANCH   4  12
ATOM     12  C   UNL     1      -0.185   2.048  25.814  0.00  0.00    +0.116 C 
BRANCH  12  13
ATOM     13  C   UNL     1       0.234   1.155  24.676  0.00  0.00    -0.032 A 
ATOM     15  C   UNL     1       1.504   1.287  24.113  0.00  0.00    +0.023 A 
ATOM     16  C   UNL     1      -0.650   0.193  24.184  0.00  0.00    +0.005 A 
ATOM     18  C   UNL     1       1.890   0.458  23.061  0.00  0.00    +0.052 A 
ATOM     19  C   UNL     1      -0.262  -0.636  23.132  0.00  0.00    +0.002 A 
ATOM     20  C   UNL     1       1.007  -0.503  22.570  0.00  0.00    +0.019 A 
BRANCH  18  26
ATOM      6  N   UNL     1       4.247   0.703  22.017  0.00  0.00    -0.191 NA
ATOM     26  C   UNL     1       3.191   0.593  22.485  0.00  0.00    +0.099 C 
ENDBRANCH  18  26
ENDBRANCH  12  13
ENDBRANCH   4  12
ENDBRANCH   7   4
BRANCH   9  11
ATOM     11  C   UNL     1      -4.013   3.455  23.428  0.00  0.00    +0.138 C 
BRANCH  11   5
ATOM      3  O   UNL     1      -5.814   1.555  24.607  0.00  0.00    -0.270 OA
ATOM      5  N   UNL     1      -3.715   2.096  23.778  0.00  0.00    -0.309 N 
ATOM     14  C   UNL     1      -4.654   1.242  24.348  0.00  0.00    +0.244 C 
ATOM     29  H   UNL     1      -2.752   1.798  23.666  0.00  0.00    +0.149 HD
BRANCH  14  17
ATOM     17  C   UNL     1      -4.182  -0.128  24.675  0.00  0.00    +0.037 A 
ATOM     21  C   UNL     1      -3.662  -0.403  25.940  0.00  0.00    +0.013 A 
ATOM     22  C   UNL     1      -4.256  -1.139  23.716  0.00  0.00    +0.013 A 
ATOM     23  C   UNL     1      -3.218  -1.689  26.248  0.00  0.00    +0.001 A 
ATOM     24  C   UNL     1      -3.811  -2.425  24.024  0.00  0.00    +0.001 A 
ATOM     25  C   UNL     1      -3.292  -2.700  25.289  0.00  0.00    +0.000 A 
ENDBRANCH  14  17
ENDBRANCH  11   5
ENDBRANCH   9  11
TORSDOF 8
ENDMDL
MODEL 3
REMARK VINA RESULT:      -5.0      2.678      4.321
REMARK  Name = 75536631
REMARK  8 active torsions:
REMARK  status: ('A' for Active; 'I' for Inactive)
REMARK    1  A    between atoms: O_2  and  C_8
REMARK    2  A    between atoms: N_4  and  C_7
REMARK    3  A    between atoms: N_4  and  C_12
REMARK    4  A    between atoms: N_5  and  C_11
REMARK    5  A    between atoms: C_9  and  C_11
REMARK    6  A    between atoms: C_12  and  C_13
REMARK    7  A    between atoms: C_14  and  C_17
REMARK    8  A    between atoms: C_18  and  C_26
REMARK                            x       y       z     vdW  Elec       q    Type
REMARK                         _______ _______ _______ _____ _____    ______ ____
ROOT
ATOM      1  O   UNL     1      -1.444  -0.813  26.086  0.00  0.00    -0.371 OA
ATOM      7  C   UNL     1      -2.754  -2.434  24.963  0.00  0.00    +0.111 C 
ATOM      8  C   UNL     1      -1.303  -2.654  24.573  0.00  0.00    +0.164 C 
ATOM      9  C   UNL     1      -0.557  -1.452  25.150  0.00  0.00    +0.165 C 
ATOM     10  C   UNL     1      -2.614  -1.626  26.243  0.00  0.00    +0.181 C 
ENDROOT
BRANCH   8   2
ATOM      2  O   UNL     1      -0.852  -3.842  25.227  0.00  0.00    -0.388 OA
ATOM     28  H   UNL     1      -0.497  -3.578  26.094  0.00  0.00    +0.210 HD
ENDBRANCH   8   2
BRANCH   7   4
ATOM      4  N   UNL     1      -3.476  -1.672  23.946  0.00  0.00    -0.305 NA
ATOM     27  H   UNL     1      -2.823  -1.057  23.461  0.00  0.00    +0.123 HD
BRANCH   4  12
ATOM     12  C   UNL     1      -4.521  -0.854  24.548  0.00  0.00    +0.116 C 
BRANCH  12  13
ATOM     13  C   UNL     1      -4.361   0.603  24.202  0.00  0.00    -0.032 A 
ATOM     15  C   UNL     1      -5.053   1.574  24.926  0.00  0.00    +0.023 A 
ATOM     16  C   UNL     1      -3.517   0.982  23.157  0.00  0.00    +0.005 A 
ATOM     18  C   UNL     1      -4.902   2.923  24.607  0.00  0.00    +0.052 A 
ATOM     19  C   UNL     1      -3.367   2.331  22.838  0.00  0.00    +0.002 A 
ATOM     20  C   UNL     1      -4.059   3.302  23.562  0.00  0.00    +0.019 A 
BRANCH  18  26
ATOM      6  N   UNL     1      -6.186   4.725  25.950  0.00  0.00    -0.191 NA
ATOM     26  C   UNL     1      -5.611   3.918  25.349  0.00  0.00    +0.099 C 
ENDBRANCH  18  26
ENDBRANCH  12  13
ENDBRANCH   4  12
ENDBRANCH   7   4
BRANCH   9  11
ATOM     11  C   UNL     1      -0.149  -0.428  24.101  0.00  0.00    +0.138 C 
BRANCH  11   5
ATOM      3  O   UNL     1       1.313   2.032  24.320  0.00  0.00    -0.270 OA
ATOM      5  N   UNL     1      -0.691   0.867  24.398  0.00  0.00    -0.309 N 
ATOM     14  C   UNL     1       0.096   2.010  24.484  0.00  0.00    +0.244 C 
ATOM     29  H   UNL     1      -1.679   0.905  24.626  0.00  0.00    +0.149 HD
BRANCH  14  17
ATOM     17  C   UNL     1      -0.613   3.271  24.824  0.00  0.00    +0.037 A 
ATOM     21  C   UNL     1      -1.545   3.288  25.862  0.00  0.00    +0.013 A 
ATOM     22  C   UNL     1      -0.349   4.436  24.104  0.00  0.00    +0.013 A 
ATOM     23  C   UNL     1      -2.212   4.471  26.181  0.00  0.00    +0.001 A 
ATOM     24  C   UNL     1      -1.016   5.619  24.423  0.00  0.00    +0.001 A 
ATOM     25  C   UNL     1      -1.947   5.637  25.461  0.00  0.00    +0.000 A 
ENDBRANCH  14  17
ENDBRANCH  11   5
ENDBRANCH   9  11
TORSDOF 8
ENDMDL
MODEL 4
REMARK VINA RESULT:      -4.9      1.917      4.122
REMARK  Name = 75536631
REMARK  8 active torsions:
REMARK  status: ('A' for Active; 'I' for Inactive)
REMARK    1  A    between atoms: O_2  and  C_8
REMARK    2  A    between atoms: N_4  and  C_7
REMARK    3  A    between atoms: N_4  and  C_12
REMARK    4  A    between atoms: N_5  and  C_11
REMARK    5  A    between atoms: C_9  and  C_11
REMARK    6  A    between atoms: C_12  and  C_13
REMARK    7  A    between atoms: C_14  and  C_17
REMARK    8  A    between atoms: C_18  and  C_26
REMARK                            x       y       z     vdW  Elec       q    Type
REMARK                         _______ _______ _______ _____ _____    ______ ____
ROOT
ATOM      1  O   UNL     1      -0.704   4.152  24.078  0.00  0.00    -0.371 OA
ATOM      7  C   UNL     1      -2.537   3.335  25.336  0.00  0.00    +0.111 C 
ATOM      8  C   UNL     1      -1.306   2.539  25.733  0.00  0.00    +0.164 C 
ATOM      9  C   UNL     1      -0.228   2.964  24.737  0.00  0.00    +0.165 C 
ATOM     10  C   UNL     1      -1.918   4.575  24.711  0.00  0.00    +0.181 C 
ENDROOT
BRANCH   8   2
ATOM      2  O   UNL     1      -0.921   2.960  27.044  0.00  0.00    -0.388 OA
ATOM     28  H   UNL     1      -1.363   2.372  27.679  0.00  0.00    +0.210 HD
ENDBRANCH   8   2
BRANCH   7   4
ATOM      4  N   UNL     1      -3.352   2.616  24.359  0.00  0.00    -0.305 NA
ATOM     27  H   UNL     1      -3.929   3.283  23.847  0.00  0.00    +0.123 HD
BRANCH   4  12
ATOM     12  C   UNL     1      -4.228   1.654  25.015  0.00  0.00    +0.116 C 
BRANCH  12  13
ATOM     13  C   UNL     1      -3.796   0.234  24.755  0.00  0.00    -0.032 A 
ATOM     15  C   UNL     1      -2.512  -0.181  25.105  0.00  0.00    +0.023 A 
ATOM     16  C   UNL     1      -4.684  -0.666  24.164  0.00  0.00    +0.005 A 
ATOM     18  C   UNL     1      -2.115  -1.496  24.866  0.00  0.00    +0.052 A 
ATOM     19  C   UNL     1      -4.286  -1.981  23.925  0.00  0.00    +0.002 A 
ATOM     20  C   UNL     1      -3.002  -2.396  24.275  0.00  0.00    +0.019 A 
BRANCH  18  26
ATOM      6  N   UNL     1       0.270  -2.269  25.516  0.00  0.00    -0.191 NA
ATOM     26  C   UNL     1      -0.798  -1.923  25.225  0.00  0.00    +0.099 C 
ENDBRANCH  18  26
ENDBRANCH  12  13
ENDBRANCH   4  12
ENDBRANCH   7   4
BRANCH   9  11
ATOM     11  C   UNL     1       0.066   1.914  23.676  0.00  0.00    +0.138 C 
BRANCH  11   5
ATOM      3  O   UNL     1       1.253  -0.187  22.121  0.00  0.00    -0.270 OA
ATOM      5  N   UNL     1       1.407   1.416  23.791  0.00  0.00    -0.309 N 
ATOM     14  C   UNL     1       1.900   0.390  22.991  0.00  0.00    +0.244 C 
ATOM     29  H   UNL     1       1.969   1.794  24.546  0.00  0.00    +0.149 HD
BRANCH  14  17
ATOM     17  C   UNL     1       3.302  -0.028  23.251  0.00  0.00    +0.037 A 
ATOM     21  C   UNL     1       4.346   0.878  23.063  0.00  0.00    +0.013 A 
ATOM     22  C   UNL     1       3.574  -1.328  23.679  0.00  0.00    +0.013 A 
ATOM     23  C   UNL     1       5.662   0.486  23.305  0.00  0.00    +0.001 A 
ATOM     24  C   UNL     1       4.891  -1.720  23.921  0.00  0.00    +0.001 A 
ATOM     25  C   UNL     1       5.934  -0.814  23.735  0.00  0.00    +0.000 A 
ENDBRANCH  14  17
ENDBRANCH  11   5
ENDBRANCH   9  11
TORSDOF 8
ENDMDL
MODEL 5
REMARK VINA RESULT:      -4.7      2.577      5.090
REMARK  Name = 75536631
REMARK  8 active torsions:
REMARK  status: ('A' for Active; 'I' for Inactive)
REMARK    1  A    between atoms: O_2  and  C_8
REMARK    2  A    between atoms: N_4  and  C_7
REMARK    3  A    between atoms: N_4  and  C_12
REMARK    4  A    between atoms: N_5  and  C_11
REMARK    5  A    between atoms: C_9  and  C_11
REMARK    6  A    between atoms: C_12  and  C_13
REMARK    7  A    between atoms: C_14  and  C_17
REMARK    8  A    between atoms: C_18  and  C_26
REMARK                            x       y       z     vdW  Elec       q    Type
REMARK                         _______ _______ _______ _____ _____    ______ ____
ROOT
ATOM      1  O   UNL     1      -2.990   4.413  24.294  0.00  0.00    -0.371 OA
ATOM      7  C   UNL     1      -4.774   2.857  24.231  0.00  0.00    +0.111 C 
ATOM      8  C   UNL     1      -4.586   3.294  25.673  0.00  0.00    +0.164 C 
ATOM      9  C   UNL     1      -3.296   4.114  25.668  0.00  0.00    +0.165 C 
ATOM     10  C   UNL     1      -4.081   3.978  23.473  0.00  0.00    +0.181 C 
ENDROOT
BRANCH   8   2
ATOM      2  O   UNL     1      -5.680   4.150  26.015  0.00  0.00    -0.388 OA
ATOM     28  H   UNL     1      -6.463   3.823  25.539  0.00  0.00    +0.210 HD
ENDBRANCH   8   2
BRANCH   7   4
ATOM      4  N   UNL     1      -4.125   1.575  23.967  0.00  0.00    -0.305 NA
ATOM     27  H   UNL     1      -4.373   1.260  23.029  0.00  0.00    +0.123 HD
BRANCH   4  12
ATOM     12  C   UNL     1      -4.555   0.563  24.924  0.00  0.00    +0.116 C 
BRANCH  12  13
ATOM     13  C   UNL     1      -3.866  -0.756  24.692  0.00  0.00    -0.032 A 
ATOM     15  C   UNL     1      -2.552  -0.944  25.122  0.00  0.00    +0.023 A 
ATOM     16  C   UNL     1      -4.544  -1.791  24.047  0.00  0.00    +0.005 A 
ATOM     18  C   UNL     1      -1.917  -2.167  24.908  0.00  0.00    +0.052 A 
ATOM     19  C   UNL     1      -3.908  -3.014  23.834  0.00  0.00    +0.002 A 
ATOM     20  C   UNL     1      -2.595  -3.202  24.263  0.00  0.00    +0.019 A 
BRANCH  18  26
ATOM      6  N   UNL     1       0.521  -2.518  25.706  0.00  0.00    -0.191 NA
ATOM     26  C   UNL     1      -0.571  -2.361  25.348  0.00  0.00    +0.099 C 
ENDBRANCH  18  26
ENDBRANCH  12  13
ENDBRANCH   4  12
ENDBRANCH   7   4
BRANCH   9  11
ATOM     11  C   UNL     1      -2.108   3.380  26.273  0.00  0.00    +0.138 C 
BRANCH  11   5
ATOM      3  O   UNL     1       0.665   2.639  26.245  0.00  0.00    -0.270 OA
ATOM      5  N   UNL     1      -1.452   2.557  25.299  0.00  0.00    -0.309 N 
ATOM     14  C   UNL     1      -0.097   2.248  25.365  0.00  0.00    +0.244 C 
ATOM     29  H   UNL     1      -2.006   2.268  24.500  0.00  0.00    +0.149 HD
BRANCH  14  17
ATOM     17  C   UNL     1       0.438   1.403  24.265  0.00  0.00    +0.037 A 
ATOM     21  C   UNL     1      -0.424   0.589  23.529  0.00  0.00    +0.013 A 
ATOM     22  C   UNL     1       1.801   1.422  23.971  0.00  0.00    +0.013 A 
ATOM     23  C   UNL     1       0.077  -0.205  22.497  0.00  0.00    +0.001 A 
ATOM     24  C   UNL     1       2.302   0.628  22.939  0.00  0.00    +0.001 A 
ATOM     25  C   UNL     1       1.441  -0.185  22.202  0.00  0.00    +0.000 A 
ENDBRANCH  14  17
ENDBRANCH  11   5
ENDBRANCH   9  11
TORSDOF 8
ENDMDL
MODEL 6
REMARK VINA RESULT:      -3.9      1.359      2.067
REMARK  Name = 75536631
REMARK  8 active torsions:
REMARK  status: ('A' for Active; 'I' for Inactive)
REMARK    1  A    between atoms: O_2  and  C_8
REMARK    2  A    between atoms: N_4  and  C_7
REMARK    3  A    between atoms: N_4  and  C_12
REMARK    4  A    between atoms: N_5  and  C_11
REMARK    5  A    between atoms: C_9  and  C_11
REMARK    6  A    between atoms: C_12  and  C_13
REMARK    7  A    between atoms: C_14  and  C_17
REMARK    8  A    between atoms: C_18  and  C_26
REMARK                            x       y       z     vdW  Elec       q    Type
REMARK                         _______ _______ _______ _____ _____    ______ ____
ROOT
ATOM      1  O   UNL     1      -2.098  -0.729  26.001  0.00  0.00    -0.371 OA
ATOM      7  C   UNL     1      -3.369  -2.251  24.707  0.00  0.00    +0.111 C 
ATOM      8  C   UNL     1      -1.902  -2.475  24.383  0.00  0.00    +0.164 C 
ATOM      9  C   UNL     1      -1.170  -1.326  25.076  0.00  0.00    +0.165 C 
ATOM     10  C   UNL     1      -3.287  -1.528  26.042  0.00  0.00    +0.181 C 
ENDROOT
BRANCH   8   2
ATOM      2  O   UNL     1      -1.507  -3.710  24.984  0.00  0.00    -0.388 OA
ATOM     28  H   UNL     1      -0.907  -4.156  24.362  0.00  0.00    +0.210 HD
ENDBRANCH   8   2
BRANCH   7   4
ATOM      4  N   UNL     1      -4.022  -1.413  23.703  0.00  0.00    -0.305 NA
ATOM     27  H   UNL     1      -3.316  -0.856  23.223  0.00  0.00    +0.123 HD
BRANCH   4  12
ATOM     12  C   UNL     1      -4.984  -0.509  24.320  0.00  0.00    +0.116 C 
BRANCH  12  13
ATOM     13  C   UNL     1      -4.537   0.927  24.238  0.00  0.00    -0.032 A 
ATOM     15  C   UNL     1      -5.272   1.926  24.877  0.00  0.00    +0.023 A 
ATOM     16  C   UNL     1      -3.385   1.257  23.523  0.00  0.00    +0.005 A 
ATOM     18  C   UNL     1      -4.855   3.254  24.802  0.00  0.00    +0.052 A 
ATOM     19  C   UNL     1      -2.969   2.586  23.448  0.00  0.00    +0.002 A 
ATOM     20  C   UNL     1      -3.704   3.585  24.087  0.00  0.00    +0.019 A 
BRANCH  18  26
ATOM      6  N   UNL     1      -6.218   5.109  25.987  0.00  0.00    -0.191 NA
ATOM     26  C   UNL     1      -5.608   4.278  25.456  0.00  0.00    +0.099 C 
ENDBRANCH  18  26
ENDBRANCH  12  13
ENDBRANCH   4  12
ENDBRANCH   7   4
BRANCH   9  11
ATOM     11  C   UNL     1      -0.689  -0.246  24.118  0.00  0.00    +0.138 C 
BRANCH  11   5
ATOM      3  O   UNL     1       1.047  -0.455  21.841  0.00  0.00    -0.270 OA
ATOM      5  N   UNL     1       0.742  -0.146  24.120  0.00  0.00    -0.309 N 
ATOM     14  C   UNL     1       1.506  -0.260  22.964  0.00  0.00    +0.244 C 
ATOM     29  H   UNL     1       1.191  -0.067  25.026  0.00  0.00    +0.149 HD
BRANCH  14  17
ATOM     17  C   UNL     1       2.979  -0.158  23.137  0.00  0.00    +0.037 A 
ATOM     21  C   UNL     1       3.645   1.010  22.765  0.00  0.00    +0.013 A 
ATOM     22  C   UNL     1       3.695  -1.231  23.668  0.00  0.00    +0.013 A 
ATOM     23  C   UNL     1       5.027   1.107  22.927  0.00  0.00    +0.001 A 
ATOM     24  C   UNL     1       5.077  -1.134  23.830  0.00  0.00    +0.001 A 
ATOM     25  C   UNL     1       5.743   0.034  23.459  0.00  0.00    +0.000 A 
ENDBRANCH  14  17
ENDBRANCH  11   5
ENDBRANCH   9  11
TORSDOF 8
ENDMDL
MODEL 7
REMARK VINA RESULT:      -3.8      2.733      6.151
REMARK  Name = 75536631
REMARK  8 active torsions:
REMARK  status: ('A' for Active; 'I' for Inactive)
REMARK    1  A    between atoms: O_2  and  C_8
REMARK    2  A    between atoms: N_4  and  C_7
REMARK    3  A    between atoms: N_4  and  C_12
REMARK    4  A    between atoms: N_5  and  C_11
REMARK    5  A    between atoms: C_9  and  C_11
REMARK    6  A    between atoms: C_12  and  C_13
REMARK    7  A    between atoms: C_14  and  C_17
REMARK    8  A    between atoms: C_18  and  C_26
REMARK                            x       y       z     vdW  Elec       q    Type
REMARK                         _______ _______ _______ _____ _____    ______ ____
ROOT
ATOM      1  O   UNL     1      -1.964  -2.815  24.247  0.00  0.00    -0.371 OA
ATOM      7  C   UNL     1      -0.894  -0.949  25.237  0.00  0.00    +0.111 C 
ATOM      8  C   UNL     1      -2.319  -1.004  25.763  0.00  0.00    +0.164 C 
ATOM      9  C   UNL     1      -3.002  -2.083  24.924  0.00  0.00    +0.165 C 
ATOM     10  C   UNL     1      -0.692  -2.370  24.735  0.00  0.00    +0.181 C 
ENDROOT
BRANCH   8   2
ATOM      2  O   UNL     1      -2.264  -1.437  27.124  0.00  0.00    -0.388 OA
ATOM     28  H   UNL     1      -3.179  -1.484  27.450  0.00  0.00    +0.210 HD
ENDBRANCH   8   2
BRANCH   7   4
ATOM      4  N   UNL     1      -0.760   0.011  24.144  0.00  0.00    -0.305 NA
ATOM     27  H   UNL     1      -0.507  -0.487  23.290  0.00  0.00    +0.123 HD
BRANCH   4  12
ATOM     12  C   UNL     1       0.278   0.992  24.433  0.00  0.00    +0.116 C 
BRANCH  12  13
ATOM     13  C   UNL     1      -0.299   2.358  24.697  0.00  0.00    -0.032 A 
ATOM     15  C   UNL     1      -1.241   2.535  25.711  0.00  0.00    +0.023 A 
ATOM     16  C   UNL     1       0.109   3.448  23.926  0.00  0.00    +0.005 A 
ATOM     18  C   UNL     1      -1.773   3.801  25.955  0.00  0.00    +0.052 A 
ATOM     19  C   UNL     1      -0.423   4.712  24.171  0.00  0.00    +0.002 A 
ATOM     20  C   UNL     1      -1.365   4.890  25.185  0.00  0.00    +0.019 A 
BRANCH  18  26
ATOM      6  N   UNL     1      -3.519   4.132  27.837  0.00  0.00    -0.191 NA
ATOM     26  C   UNL     1      -2.737   3.983  26.994  0.00  0.00    +0.099 C 
ENDBRANCH  18  26
ENDBRANCH  12  13
ENDBRANCH   4  12
ENDBRANCH   7   4
BRANCH   9  11
ATOM     11  C   UNL     1      -3.955  -1.526  23.876  0.00  0.00    +0.138 C 
BRANCH  11   5
ATOM      3  O   UNL     1      -3.075   1.055  22.977  0.00  0.00    -0.270 OA
ATOM      5  N   UNL     1      -4.484  -0.254  24.276  0.00  0.00    -0.309 N 
ATOM     14  C   UNL     1      -3.994   0.952  23.786  0.00  0.00    +0.244 C 
ATOM     29  H   UNL     1      -5.190  -0.263  25.004  0.00  0.00    +0.149 HD
BRANCH  14  17
ATOM     17  C   UNL     1      -4.633   2.184  24.318  0.00  0.00    +0.037 A 
ATOM     21  C   UNL     1      -4.279   3.431  23.802  0.00  0.00    +0.013 A 
ATOM     22  C   UNL     1      -5.584   2.094  25.334  0.00  0.00    +0.013 A 
ATOM     23  C   UNL     1      -4.877   4.588  24.302  0.00  0.00    +0.001 A 
ATOM     24  C   UNL     1      -6.183   3.251  25.834  0.00  0.00    +0.001 A 
ATOM     25  C   UNL     1      -5.829   4.498  25.318  0.00  0.00    +0.000 A 
ENDBRANCH  14  17
ENDBRANCH  11   5
ENDBRANCH   9  11
TORSDOF 8
ENDMDL
MODEL 8
REMARK VINA RESULT:      -3.6      3.003      4.318
REMARK  Name = 75536631
REMARK  8 active torsions:
REMARK  status: ('A' for Active; 'I' for Inactive)
REMARK    1  A    between atoms: O_2  and  C_8
REMARK    2  A    between atoms: N_4  and  C_7
REMARK    3  A    between atoms: N_4  and  C_12
REMARK    4  A    between atoms: N_5  and  C_11
REMARK    5  A    between atoms: C_9  and  C_11
REMARK    6  A    between atoms: C_12  and  C_13
REMARK    7  A    between atoms: C_14  and  C_17
REMARK    8  A    between atoms: C_18  and  C_26
REMARK                            x       y       z     vdW  Elec       q    Type
REMARK                         _______ _______ _______ _____ _____    ______ ____
ROOT
ATOM      1  O   UNL     1      -2.966  -1.219  26.085  0.00  0.00    -0.371 OA
ATOM      7  C   UNL     1      -2.931  -1.077  23.722  0.00  0.00    +0.111 C 
ATOM      8  C   UNL     1      -1.801  -1.997  24.152  0.00  0.00    +0.164 C 
ATOM      9  C   UNL     1      -1.747  -1.865  25.673  0.00  0.00    +0.165 C 
ATOM     10  C   UNL     1      -3.829  -1.093  24.949  0.00  0.00    +0.181 C 
ENDROOT
BRANCH   8   2
ATOM      2  O   UNL     1      -2.175  -3.334  23.812  0.00  0.00    -0.388 OA
ATOM     28  H   UNL     1      -1.421  -3.738  23.351  0.00  0.00    +0.210 HD
ENDBRANCH   8   2
BRANCH   7   4
ATOM      4  N   UNL     1      -2.451   0.276  23.450  0.00  0.00    -0.305 NA
ATOM     27  H   UNL     1      -2.223   0.735  24.332  0.00  0.00    +0.123 HD
BRANCH   4  12
ATOM     12  C   UNL     1      -3.467   1.066  22.767  0.00  0.00    +0.116 C 
BRANCH  12  13
ATOM     13  C   UNL     1      -4.160   2.020  23.704  0.00  0.00    -0.032 A 
ATOM     15  C   UNL     1      -4.962   1.530  24.734  0.00  0.00    +0.023 A 
ATOM     16  C   UNL     1      -3.996   3.397  23.542  0.00  0.00    +0.005 A 
ATOM     18  C   UNL     1      -5.601   2.414  25.602  0.00  0.00    +0.052 A 
ATOM     19  C   UNL     1      -4.635   4.281  24.410  0.00  0.00    +0.002 A 
ATOM     20  C   UNL     1      -5.438   3.790  25.440  0.00  0.00    +0.019 A 
BRANCH  18  26
ATOM      6  N   UNL     1      -7.091   1.506  27.515  0.00  0.00    -0.191 NA
ATOM     26  C   UNL     1      -6.423   1.913  26.658  0.00  0.00    +0.099 C 
ENDBRANCH  18  26
ENDBRANCH  12  13
ENDBRANCH   4  12
ENDBRANCH   7   4
BRANCH   9  11
ATOM     11  C   UNL     1      -0.574  -1.034  26.170  0.00  0.00    +0.138 C 
BRANCH  11   5
ATOM      3  O   UNL     1       0.410   0.753  24.150  0.00  0.00    -0.270 OA
ATOM      5  N   UNL     1      -0.846   0.371  26.063  0.00  0.00    -0.309 N 
ATOM     14  C   UNL     1      -0.324   1.163  25.045  0.00  0.00    +0.244 C 
ATOM     29  H   UNL     1      -1.379   0.790  26.817  0.00  0.00    +0.149 HD
BRANCH  14  17
ATOM     17  C   UNL     1      -0.680   2.605  25.088  0.00  0.00    +0.037 A 
ATOM     21  C   UNL     1      -0.144   3.483  24.146  0.00  0.00    +0.013 A 
ATOM     22  C   UNL     1      -1.547   3.080  26.072  0.00  0.00    +0.013 A 
ATOM     23  C   UNL     1      -0.476   4.837  24.187  0.00  0.00    +0.001 A 
ATOM     24  C   UNL     1      -1.880   4.434  26.112  0.00  0.00    +0.001 A 
ATOM     25  C   UNL     1      -1.345   5.313  25.170  0.00  0.00    +0.000 A 
ENDBRANCH  14  17
ENDBRANCH  11   5
ENDBRANCH   9  11
TORSDOF 8
ENDMDL
MODEL 9
REMARK VINA RESULT:      -3.6      1.726      2.696
REMARK  Name = 75536631
REMARK  8 active torsions:
REMARK  status: ('A' for Active; 'I' for Inactive)
REMARK    1  A    between atoms: O_2  and  C_8
REMARK    2  A    between atoms: N_4  and  C_7
REMARK    3  A    between atoms: N_4  and  C_12
REMARK    4  A    between atoms: N_5  and  C_11
REMARK    5  A    between atoms: C_9  and  C_11
REMARK    6  A    between atoms: C_12  and  C_13
REMARK    7  A    between atoms: C_14  and  C_17
REMARK    8  A    between atoms: C_18  and  C_26
REMARK                            x       y       z     vdW  Elec       q    Type
REMARK                         _______ _______ _______ _____ _____    ______ ____
ROOT
ATOM      1  O   UNL     1      -0.443  -1.923  24.917  0.00  0.00    -0.371 OA
ATOM      7  C   UNL     1      -1.391  -0.064  26.034  0.00  0.00    +0.111 C 
ATOM      8  C   UNL     1      -2.106  -0.223  24.704  0.00  0.00    +0.164 C 
ATOM      9  C   UNL     1      -1.304  -1.287  23.955  0.00  0.00    +0.165 C 
ATOM     10  C   UNL     1      -0.776  -1.441  26.224  0.00  0.00    +0.181 C 
ENDROOT
BRANCH   8   2
ATOM      2  O   UNL     1      -3.416  -0.730  24.971  0.00  0.00    -0.388 OA
ATOM     28  H   UNL     1      -3.489  -1.592  24.528  0.00  0.00    +0.210 HD
ENDBRANCH   8   2
BRANCH   7   4
ATOM      4  N   UNL     1      -0.353   0.963  25.969  0.00  0.00    -0.305 NA
ATOM     27  H   UNL     1      -0.448   1.586  26.771  0.00  0.00    +0.123 HD
BRANCH   4  12
ATOM     12  C   UNL     1      -0.474   1.753  24.751  0.00  0.00    +0.116 C 
BRANCH  12  13
ATOM     13  C   UNL     1      -1.315   2.985  24.963  0.00  0.00    -0.032 A 
ATOM     15  C   UNL     1      -2.689   2.866  25.173  0.00  0.00    +0.023 A 
ATOM     16  C   UNL     1      -0.718   4.246  24.950  0.00  0.00    +0.005 A 
ATOM     18  C   UNL     1      -3.465   4.007  25.371  0.00  0.00    +0.052 A 
ATOM     19  C   UNL     1      -1.495   5.387  25.148  0.00  0.00    +0.002 A 
ATOM     20  C   UNL     1      -2.869   5.268  25.358  0.00  0.00    +0.019 A 
BRANCH  18  26
ATOM      6  N   UNL     1      -6.016   3.788  25.762  0.00  0.00    -0.191 NA
ATOM     26  C   UNL     1      -4.873   3.886  25.587  0.00  0.00    +0.099 C 
ENDBRANCH  18  26
ENDBRANCH  12  13
ENDBRANCH   4  12
ENDBRANCH   7   4
BRANCH   9  11
ATOM     11  C   UNL     1      -0.438  -0.721  22.839  0.00  0.00    +0.138 C 
BRANCH  11   5
ATOM      3  O   UNL     1       1.836  -0.268  21.146  0.00  0.00    -0.270 OA
ATOM      5  N   UNL     1       0.927  -0.580  23.258  0.00  0.00    -0.309 N 
ATOM     14  C   UNL     1       1.970  -0.361  22.364  0.00  0.00    +0.244 C 
ATOM     29  H   UNL     1       1.118  -0.729  24.243  0.00  0.00    +0.149 HD
BRANCH  14  17
ATOM     17  C   UNL     1       3.330  -0.263  22.954  0.00  0.00    +0.037 A 
ATOM     21  C   UNL     1       3.886  -1.361  23.611  0.00  0.00    +0.013 A 
ATOM     22  C   UNL     1       4.049   0.929  22.855  0.00  0.00    +0.013 A 
ATOM     23  C   UNL     1       5.163  -1.269  24.166  0.00  0.00    +0.001 A 
ATOM     24  C   UNL     1       5.325   1.021  23.410  0.00  0.00    +0.001 A 
ATOM     25  C   UNL     1       5.882  -0.077  24.065  0.00  0.00    +0.000 A 
ENDBRANCH  14  17
ENDBRANCH  11   5
ENDBRANCH   9  11
TORSDOF 8
ENDMDL
MODEL 10
REMARK VINA RESULT:      -3.3      2.745      4.216
REMARK  Name = 75536631
REMARK  8 active torsions:
REMARK  status: ('A' for Active; 'I' for Inactive)
REMARK    1  A    between atoms: O_2  and  C_8
REMARK    2  A    between atoms: N_4  and  C_7
REMARK    3  A    between atoms: N_4  and  C_12
REMARK    4  A    between atoms: N_5  and  C_11
REMARK    5  A    between atoms: C_9  and  C_11
REMARK    6  A    between atoms: C_12  and  C_13
REMARK    7  A    between atoms: C_14  and  C_17
REMARK    8  A    between atoms: C_18  and  C_26
REMARK                            x       y       z     vdW  Elec       q    Type
REMARK                         _______ _______ _______ _____ _____    ______ ____
ROOT
ATOM      1  O   UNL     1      -1.041  -0.715  26.121  0.00  0.00    -0.371 OA
ATOM      7  C   UNL     1      -2.610  -2.358  25.453  0.00  0.00    +0.111 C 
ATOM      8  C   UNL     1      -1.309  -2.628  24.718  0.00  0.00    +0.164 C 
ATOM      9  C   UNL     1      -0.429  -1.417  25.024  0.00  0.00    +0.165 C 
ATOM     10  C   UNL     1      -2.139  -1.494  26.612  0.00  0.00    +0.181 C 
ENDROOT
BRANCH   8   2
ATOM      2  O   UNL     1      -0.717  -3.794  25.295  0.00  0.00    -0.388 OA
ATOM     28  H   UNL     1      -1.433  -4.429  25.464  0.00  0.00    +0.210 HD
ENDBRANCH   8   2
BRANCH   7   4
ATOM      4  N   UNL     1      -3.561  -1.628  24.617  0.00  0.00    -0.305 NA
ATOM     27  H   UNL     1      -3.048  -1.078  23.928  0.00  0.00    +0.123 HD
BRANCH   4  12
ATOM     12  C   UNL     1      -4.377  -0.724  25.417  0.00  0.00    +0.116 C 
BRANCH  12  13
ATOM     13  C   UNL     1      -4.409   0.665  24.835  0.00  0.00    -0.032 A 
ATOM     15  C   UNL     1      -3.694   0.953  23.672  0.00  0.00    +0.023 A 
ATOM     16  C   UNL     1      -5.156   1.665  25.460  0.00  0.00    +0.005 A 
ATOM     18  C   UNL     1      -3.726   2.238  23.134  0.00  0.00    +0.052 A 
ATOM     19  C   UNL     1      -5.187   2.950  24.921  0.00  0.00    +0.002 A 
ATOM     20  C   UNL     1      -4.472   3.238  23.759  0.00  0.00    +0.019 A 
BRANCH  18  26
ATOM      6  N   UNL     1      -2.400   2.774  20.976  0.00  0.00    -0.191 NA
ATOM     26  C   UNL     1      -2.994   2.534  21.943  0.00  0.00    +0.099 C 
ENDBRANCH  18  26
ENDBRANCH  12  13
ENDBRANCH   4  12
ENDBRANCH   7   4
BRANCH   9  11
ATOM     11  C   UNL     1      -0.293  -0.453  23.856  0.00  0.00    +0.138 C 
BRANCH  11   5
ATOM      3  O   UNL     1       1.244   1.929  24.311  0.00  0.00    -0.270 OA
ATOM      5  N   UNL     1      -0.804   0.846  24.189  0.00  0.00    -0.309 N 
ATOM     14  C   UNL     1       0.018   1.949  24.392  0.00  0.00    +0.244 C 
ATOM     29  H   UNL     1      -1.803   0.914  24.352  0.00  0.00    +0.149 HD
BRANCH  14  17
ATOM     17  C   UNL     1      -0.664   3.218  24.756  0.00  0.00    +0.037 A 
ATOM     21  C   UNL     1      -0.353   4.396  24.074  0.00  0.00    +0.013 A 
ATOM     22  C   UNL     1      -1.611   3.233  25.779  0.00  0.00    +0.013 A 
ATOM     23  C   UNL     1      -0.992   5.588  24.416  0.00  0.00    +0.001 A 
ATOM     24  C   UNL     1      -2.250   4.425  26.121  0.00  0.00    +0.001 A 
ATOM     25  C   UNL     1      -1.941   5.602  25.439  0.00  0.00    +0.000 A 
ENDBRANCH  14  17
ENDBRANCH  11   5
ENDBRANCH   9  11
TORSDOF 8
ENDMDL
