MODEL 1
REMARK VINA RESULT:      -0.4      0.000      0.000
REMARK  Name = 25389952
REMARK  8 active torsions:
REMARK  status: ('A' for Active; 'I' for Inactive)
REMARK    1  A    between atoms: O_2  and  C_20
REMARK    2  A    between atoms: O_2  and  C_32
REMARK    3  A    between atoms: O_4  and  C_26
REMARK    4  A    between atoms: N_7  and  C_11
REMARK    5  A    between atoms: N_7  and  C_21
REMARK    6  A    between atoms: C_9  and  C_17
REMARK    7  A    between atoms: C_13  and  C_20
REMARK    8  A    between atoms: C_21  and  C_26
REMARK                            x       y       z     vdW  Elec       q    Type
REMARK                         _______ _______ _______ _____ _____    ______ ____
ROOT
ATOM      5  N   UNL     1      14.437  -6.847  30.257  0.00  0.00    -0.274 NA
ATOM      6  N   UNL     1      16.979  -8.264  27.883  0.00  0.00    -0.356 N 
ATOM      8  C   UNL     1      15.854  -7.171  29.906  0.00  0.00    +0.106 C 
ATOM      9  C   UNL     1      14.343  -6.047  31.504  0.00  0.00    +0.090 C 
ATOM     10  C   UNL     1      16.679  -5.884  29.742  0.00  0.00    +0.044 C 
ATOM     11  C   UNL     1      16.644  -5.058  31.028  0.00  0.00    +0.057 C 
ATOM     12  C   UNL     1      15.193  -4.758  31.403  0.00  0.00    +0.042 C 
ATOM     13  C   UNL     1      13.544  -8.037  30.211  0.00  0.00    +0.172 C 
ATOM     14  C   UNL     1      15.887  -8.010  28.664  0.00  0.00    +0.038 A 
ATOM     15  C   UNL     1      13.480  -8.678  28.801  0.00  0.00    +0.068 C 
ATOM     16  C   UNL     1      14.820  -8.719  28.155  0.00  0.00    -0.016 A 
ATOM     18  C   UNL     1      15.270  -9.407  26.995  0.00  0.00    +0.003 A 
ATOM     19  C   UNL     1      16.627  -9.103  26.846  0.00  0.00    +0.047 A 
ATOM     24  C   UNL     1      14.661 -10.263  26.056  0.00  0.00    +0.010 A 
ATOM     25  C   UNL     1      17.404  -9.616  25.801  0.00  0.00    +0.026 A 
ATOM     27  C   UNL     1      15.426 -10.780  25.005  0.00  0.00    +0.001 A 
ATOM     30  C   UNL     1      16.776 -10.460  24.881  0.00  0.00    +0.002 A 
ATOM     33  H   UNL     1      17.907  -7.895  28.033  0.00  0.00    +0.166 HD
ENDROOT
BRANCH   9  17
ATOM      1  F   UNL     1       9.072  -4.520  32.873  0.00  0.00    -0.205 F 
ATOM     17  C   UNL     1      12.920  -5.635  31.875  0.00  0.00    -0.030 A 
ATOM     22  C   UNL     1      12.501  -4.319  31.673  0.00  0.00    +0.008 A 
ATOM     23  C   UNL     1      12.040  -6.572  32.413  0.00  0.00    +0.008 A 
ATOM     28  C   UNL     1      11.201  -3.942  32.011  0.00  0.00    +0.038 A 
ATOM     29  C   UNL     1      10.740  -6.196  32.750  0.00  0.00    +0.038 A 
ATOM     31  C   UNL     1      10.321  -4.881  32.549  0.00  0.00    +0.123 A 
ENDBRANCH   9  17
BRANCH  13  20
ATOM      3  O   UNL     1      14.847  -8.864  32.063  0.00  0.00    -0.249 OA
ATOM     20  C   UNL     1      13.959  -9.048  31.241  0.00  0.00    +0.325 C 
BRANCH  20   2
ATOM      2  O   UNL     1      13.200 -10.174  31.109  0.00  0.00    -0.467 OA
ATOM     32  C   UNL     1      12.506 -10.590  32.288  0.00  0.00    +0.280 C 
ENDBRANCH  20   2
ENDBRANCH  13  20
BRANCH  11   7
ATOM      7  N   UNL     1      17.403  -3.822  30.853  0.00  0.00    -0.311 NA
ATOM     34  H   UNL     1      17.724  -3.482  31.759  0.00  0.00    +0.122 HD
BRANCH   7  21
ATOM     21  C   UNL     1      16.580  -2.795  30.233  0.00  0.00    +0.109 C 
BRANCH  21  26
ATOM     26  C   UNL     1      17.048  -1.409  30.648  0.00  0.00    +0.171 C 
BRANCH  26   4
ATOM      4  O   UNL     1      16.319  -1.007  31.799  0.00  0.00    -0.394 OA
ATOM     35  H   UNL     1      15.397  -0.871  31.519  0.00  0.00    +0.209 HD
ENDBRANCH  26   4
ENDBRANCH  21  26
ENDBRANCH   7  21
ENDBRANCH  11   7
TORSDOF 7
ENDMDL
