MODEL 1
REMARK VINA RESULT:       8.5      0.000      0.000
REMARK  Name = 51136599
REMARK  11 active torsions:
REMARK  status: ('A' for Active; 'I' for Inactive)
REMARK    1  A    between atoms: O_2  and  C_19
REMARK    2  A    between atoms: O_4  and  C_26
REMARK    3  A    between atoms: O_4  and  C_33
REMARK    4  A    between atoms: O_5  and  C_27
REMARK    5  A    between atoms: O_5  and  C_34
REMARK    6  A    between atoms: C_9  and  C_14
REMARK    7  A    between atoms: C_10  and  C_15
REMARK    8  A    between atoms: C_14  and  C_16
REMARK    9  A    between atoms: C_15  and  C_19
REMARK   10  A    between atoms: C_17  and  C_23
REMARK   11  A    between atoms: C_32  and  C_35
REMARK                            x       y       z     vdW  Elec       q    Type
REMARK                         _______ _______ _______ _____ _____    ______ ____
ROOT
ATOM      1  O   UNL     1      -0.140   0.823  27.638  0.00  0.00    -0.270 OA
ATOM      6  N   UNL     1      -0.252  -0.093  25.488  0.00  0.00    -0.297 N 
ATOM      9  C   UNL     1      -1.601  -0.903  23.564  0.00  0.00    +0.016 C 
ATOM     10  C   UNL     1      -1.279  -2.356  24.001  0.00  0.00    +0.006 C 
ATOM     11  C   UNL     1      -0.994  -2.442  25.510  0.00  0.00    +0.023 C 
ATOM     12  C   UNL     1      -0.488   0.047  24.044  0.00  0.00    +0.112 C 
ATOM     13  C   UNL     1       0.084  -1.446  25.926  0.00  0.00    +0.108 C 
ATOM     17  C   UNL     1      -0.332   0.937  26.428  0.00  0.00    +0.247 C 
ENDROOT
BRANCH  17  23
ATOM     23  C   UNL     1      -0.672   2.282  25.951  0.00  0.00    +0.037 A 
ATOM     28  C   UNL     1       0.031   2.842  24.883  0.00  0.00    +0.014 A 
ATOM     29  C   UNL     1      -1.699   2.999  26.563  0.00  0.00    +0.014 A 
ATOM     30  C   UNL     1      -0.295   4.120  24.429  0.00  0.00    +0.019 A 
ATOM     31  C   UNL     1      -2.025   4.277  26.109  0.00  0.00    +0.019 A 
ATOM     32  C   UNL     1      -1.323   4.838  25.041  0.00  0.00    +0.052 A 
BRANCH  32  35
ATOM      8  N   UNL     1      -1.924   7.210  24.196  0.00  0.00    -0.191 NA
ATOM     35  C   UNL     1      -1.655   6.147  24.576  0.00  0.00    +0.099 C 
ENDBRANCH  32  35
ENDBRANCH  17  23
BRANCH   9  14
ATOM     14  C   UNL     1      -2.971  -0.401  24.035  0.00  0.00    +0.061 C 
BRANCH  14  16
ATOM      7  N   UNL     1      -2.843   1.098  22.162  0.00  0.00    -0.287 NA
ATOM     16  C   UNL     1      -3.296   0.909  23.357  0.00  0.00    +0.044 C 
ATOM     18  C   UNL     1      -4.110   1.912  24.091  0.00  0.00    +0.003 A 
ATOM     20  C   UNL     1      -4.068   3.228  23.616  0.00  0.00    -0.033 A 
ATOM     21  C   UNL     1      -3.209   3.538  22.426  0.00  0.00    +0.059 C 
ATOM     22  C   UNL     1      -3.211   2.344  21.480  0.00  0.00    +0.146 C 
ATOM     24  C   UNL     1      -4.875   1.588  25.214  0.00  0.00    +0.059 A 
ATOM     25  C   UNL     1      -4.779   4.227  24.287  0.00  0.00    +0.053 A 
ATOM     26  C   UNL     1      -5.594   2.589  25.867  0.00  0.00    +0.162 A 
ATOM     27  C   UNL     1      -5.544   3.905  25.408  0.00  0.00    +0.162 A 
BRANCH  26   4
ATOM      4  O   UNL     1      -6.342   2.268  26.961  0.00  0.00    -0.491 OA
ATOM     33  C   UNL     1      -6.632   0.886  27.164  0.00  0.00    +0.277 C 
ENDBRANCH  26   4
BRANCH  27   5
ATOM      5  O   UNL     1      -6.238   4.888  26.048  0.00  0.00    -0.491 OA
ATOM     34  C   UNL     1      -6.629   6.017  25.269  0.00  0.00    +0.277 C 
ENDBRANCH  27   5
ENDBRANCH  14  16
ENDBRANCH   9  14
BRANCH  10  15
ATOM     15  C   UNL     1      -2.361  -3.357  23.599  0.00  0.00    +0.124 C 
BRANCH  15  19
ATOM      3  O   UNL     1      -3.739  -3.190  25.603  0.00  0.00    -0.251 OA
ATOM     19  C   UNL     1      -3.626  -3.153  24.387  0.00  0.00    +0.305 C 
BRANCH  19   2
ATOM      2  O   UNL     1      -4.661  -2.917  23.540  0.00  0.00    -0.481 OA
ATOM     36  H   UNL     1      -4.950  -3.733  23.080  0.00  0.00    +0.295 HD
ENDBRANCH  19   2
ENDBRANCH  15  19
ENDBRANCH  10  15
TORSDOF 9
ENDMDL
MODEL 2
REMARK VINA RESULT:       9.1      2.386      6.001
REMARK  Name = 51136599
REMARK  11 active torsions:
REMARK  status: ('A' for Active; 'I' for Inactive)
REMARK    1  A    between atoms: O_2  and  C_19
REMARK    2  A    between atoms: O_4  and  C_26
REMARK    3  A    between atoms: O_4  and  C_33
REMARK    4  A    between atoms: O_5  and  C_27
REMARK    5  A    between atoms: O_5  and  C_34
REMARK    6  A    between atoms: C_9  and  C_14
REMARK    7  A    between atoms: C_10  and  C_15
REMARK    8  A    between atoms: C_14  and  C_16
REMARK    9  A    between atoms: C_15  and  C_19
REMARK   10  A    between atoms: C_17  and  C_23
REMARK   11  A    between atoms: C_32  and  C_35
REMARK                            x       y       z     vdW  Elec       q    Type
REMARK                         _______ _______ _______ _____ _____    ______ ____
ROOT
ATOM      1  O   UNL     1      -2.039  -2.543  24.259  0.00  0.00    -0.270 OA
ATOM      6  N   UNL     1      -3.164  -0.545  23.795  0.00  0.00    -0.297 N 
ATOM      9  C   UNL     1      -3.844   1.747  24.474  0.00  0.00    +0.016 C 
ATOM     10  C   UNL     1      -5.262   1.196  24.773  0.00  0.00    +0.006 C 
ATOM     11  C   UNL     1      -5.224  -0.301  25.126  0.00  0.00    +0.023 C 
ATOM     12  C   UNL     1      -3.155   0.873  23.409  0.00  0.00    +0.112 C 
ATOM     13  C   UNL     1      -4.491  -1.102  24.054  0.00  0.00    +0.108 C 
ATOM     17  C   UNL     1      -2.036  -1.357  23.932  0.00  0.00    +0.247 C 
ENDROOT
BRANCH  17  23
ATOM     23  C   UNL     1      -0.722  -0.763  23.664  0.00  0.00    +0.037 A 
ATOM     28  C   UNL     1      -0.179   0.161  24.558  0.00  0.00    +0.014 A 
ATOM     29  C   UNL     1      -0.014  -1.124  22.518  0.00  0.00    +0.014 A 
ATOM     30  C   UNL     1       1.072   0.724  24.303  0.00  0.00    +0.019 A 
ATOM     31  C   UNL     1       1.236  -0.562  22.264  0.00  0.00    +0.019 A 
ATOM     32  C   UNL     1       1.780   0.363  23.157  0.00  0.00    +0.052 A 
BRANCH  32  35
ATOM      8  N   UNL     1       4.101   1.410  22.685  0.00  0.00    -0.191 NA
ATOM     35  C   UNL     1       3.061   0.940  22.897  0.00  0.00    +0.099 C 
ENDBRANCH  32  35
ENDBRANCH  17  23
BRANCH   9  14
ATOM     14  C   UNL     1      -2.953   1.878  25.715  0.00  0.00    +0.061 C 
BRANCH  14  16
ATOM      7  N   UNL     1      -2.308   3.954  24.695  0.00  0.00    -0.287 NA
ATOM     16  C   UNL     1      -1.989   3.025  25.534  0.00  0.00    +0.044 C 
ATOM     18  C   UNL     1      -0.727   3.031  26.319  0.00  0.00    +0.003 A 
ATOM     20  C   UNL     1       0.297   3.870  25.861  0.00  0.00    -0.033 A 
ATOM     21  C   UNL     1       0.063   4.684  24.623  0.00  0.00    +0.059 C 
ATOM     22  C   UNL     1      -1.401   5.100  24.565  0.00  0.00    +0.146 C 
ATOM     24  C   UNL     1      -0.539   2.236  27.452  0.00  0.00    +0.059 A 
ATOM     25  C   UNL     1       1.523   3.890  26.532  0.00  0.00    +0.053 A 
ATOM     26  C   UNL     1       0.683   2.276  28.123  0.00  0.00    +0.162 A 
ATOM     27  C   UNL     1       1.712   3.098  27.664  0.00  0.00    +0.162 A 
BRANCH  26   4
ATOM      4  O   UNL     1       0.862   1.501  29.230  0.00  0.00    -0.491 OA
ATOM     33  C   UNL     1       1.017   2.177  30.477  0.00  0.00    +0.277 C 
ENDBRANCH  26   4
BRANCH  27   5
ATOM      5  O   UNL     1       2.911   3.133  28.312  0.00  0.00    -0.491 OA
ATOM     34  C   UNL     1       3.176   4.277  29.121  0.00  0.00    +0.277 C 
ENDBRANCH  27   5
ENDBRANCH  14  16
ENDBRANCH   9  14
BRANCH  10  15
ATOM     15  C   UNL     1      -5.997   1.985  25.855  0.00  0.00    +0.124 C 
BRANCH  15  19
ATOM      3  O   UNL     1      -6.034   4.276  25.023  0.00  0.00    -0.251 OA
ATOM     19  C   UNL     1      -5.633   3.444  25.823  0.00  0.00    +0.305 C 
BRANCH  19   2
ATOM      2  O   UNL     1      -4.770   3.724  26.833  0.00  0.00    -0.481 OA
ATOM     36  H   UNL     1      -4.949   3.179  27.628  0.00  0.00    +0.295 HD
ENDBRANCH  19   2
ENDBRANCH  15  19
ENDBRANCH  10  15
TORSDOF 9
ENDMDL
MODEL 3
REMARK VINA RESULT:      10.0      2.687      5.062
REMARK  Name = 51136599
REMARK  11 active torsions:
REMARK  status: ('A' for Active; 'I' for Inactive)
REMARK    1  A    between atoms: O_2  and  C_19
REMARK    2  A    between atoms: O_4  and  C_26
REMARK    3  A    between atoms: O_4  and  C_33
REMARK    4  A    between atoms: O_5  and  C_27
REMARK    5  A    between atoms: O_5  and  C_34
REMARK    6  A    between atoms: C_9  and  C_14
REMARK    7  A    between atoms: C_10  and  C_15
REMARK    8  A    between atoms: C_14  and  C_16
REMARK    9  A    between atoms: C_15  and  C_19
REMARK   10  A    between atoms: C_17  and  C_23
REMARK   11  A    between atoms: C_32  and  C_35
REMARK                            x       y       z     vdW  Elec       q    Type
REMARK                         _______ _______ _______ _____ _____    ______ ____
ROOT
ATOM      1  O   UNL     1      -1.693  -3.056  24.491  0.00  0.00    -0.270 OA
ATOM      6  N   UNL     1      -0.339  -1.168  24.758  0.00  0.00    -0.297 N 
ATOM      9  C   UNL     1       0.708   0.879  23.813  0.00  0.00    +0.016 C 
ATOM     10  C   UNL     1       2.054   0.112  23.745  0.00  0.00    +0.006 C 
ATOM     11  C   UNL     1       1.834  -1.405  23.621  0.00  0.00    +0.023 C 
ATOM     12  C   UNL     1      -0.179   0.284  24.923  0.00  0.00    +0.112 C 
ATOM     13  C   UNL     1       0.913  -1.922  24.722  0.00  0.00    +0.108 C 
ATOM     17  C   UNL     1      -1.555  -1.842  24.633  0.00  0.00    +0.247 C 
ENDROOT
BRANCH  17  23
ATOM     23  C   UNL     1      -2.790  -1.052  24.674  0.00  0.00    +0.037 A 
ATOM     28  C   UNL     1      -3.052  -0.221  25.765  0.00  0.00    +0.014 A 
ATOM     29  C   UNL     1      -3.702  -1.128  23.621  0.00  0.00    +0.014 A 
ATOM     30  C   UNL     1      -4.226   0.531  25.802  0.00  0.00    +0.019 A 
ATOM     31  C   UNL     1      -4.875  -0.375  23.658  0.00  0.00    +0.019 A 
ATOM     32  C   UNL     1      -5.137   0.455  24.749  0.00  0.00    +0.052 A 
BRANCH  32  35
ATOM      8  N   UNL     1      -7.315   1.853  24.821  0.00  0.00    -0.191 NA
ATOM     35  C   UNL     1      -6.340   1.226  24.788  0.00  0.00    +0.099 C 
ENDBRANCH  32  35
ENDBRANCH  17  23
BRANCH   9  14
ATOM     14  C   UNL     1      -0.055   0.916  22.484  0.00  0.00    +0.061 C 
BRANCH  14  16
ATOM      7  N   UNL     1      -2.263   1.486  21.729  0.00  0.00    -0.287 NA
ATOM     16  C   UNL     1      -1.393   1.589  22.679  0.00  0.00    +0.044 C 
ATOM     18  C   UNL     1      -1.642   2.334  23.939  0.00  0.00    +0.003 A 
ATOM     20  C   UNL     1      -2.703   3.248  23.933  0.00  0.00    -0.033 A 
ATOM     21  C   UNL     1      -3.497   3.422  22.672  0.00  0.00    +0.059 C 
ATOM     22  C   UNL     1      -3.584   2.087  21.945  0.00  0.00    +0.146 C 
ATOM     24  C   UNL     1      -0.861   2.163  25.085  0.00  0.00    +0.059 A 
ATOM     25  C   UNL     1      -2.964   4.010  25.075  0.00  0.00    +0.053 A 
ATOM     26  C   UNL     1      -1.140   2.917  26.225  0.00  0.00    +0.162 A 
ATOM     27  C   UNL     1      -2.186   3.841  26.220  0.00  0.00    +0.162 A 
BRANCH  26   4
ATOM      4  O   UNL     1      -0.377   2.745  27.342  0.00  0.00    -0.491 OA
ATOM     33  C   UNL     1       1.037   2.712  27.161  0.00  0.00    +0.277 C 
ENDBRANCH  26   4
BRANCH  27   5
ATOM      5  O   UNL     1      -2.456   4.586  27.328  0.00  0.00    -0.491 OA
ATOM     34  C   UNL     1      -3.553   4.169  28.138  0.00  0.00    +0.277 C 
ENDBRANCH  27   5
ENDBRANCH  14  16
ENDBRANCH   9  14
BRANCH  10  15
ATOM     15  C   UNL     1       2.976   0.615  22.636  0.00  0.00    +0.124 C 
BRANCH  15  19
ATOM      3  O   UNL     1       5.313   0.054  22.229  0.00  0.00    -0.251 OA
ATOM     19  C   UNL     1       4.425   0.416  22.986  0.00  0.00    +0.305 C 
BRANCH  19   2
ATOM      2  O   UNL     1       4.623   0.701  24.299  0.00  0.00    -0.481 OA
ATOM     36  H   UNL     1       5.404   0.230  24.661  0.00  0.00    +0.295 HD
ENDBRANCH  19   2
ENDBRANCH  15  19
ENDBRANCH  10  15
TORSDOF 9
ENDMDL
MODEL 4
REMARK VINA RESULT:      10.4      2.815      4.904
REMARK  Name = 51136599
REMARK  11 active torsions:
REMARK  status: ('A' for Active; 'I' for Inactive)
REMARK    1  A    between atoms: O_2  and  C_19
REMARK    2  A    between atoms: O_4  and  C_26
REMARK    3  A    between atoms: O_4  and  C_33
REMARK    4  A    between atoms: O_5  and  C_27
REMARK    5  A    between atoms: O_5  and  C_34
REMARK    6  A    between atoms: C_9  and  C_14
REMARK    7  A    between atoms: C_10  and  C_15
REMARK    8  A    between atoms: C_14  and  C_16
REMARK    9  A    between atoms: C_15  and  C_19
REMARK   10  A    between atoms: C_17  and  C_23
REMARK   11  A    between atoms: C_32  and  C_35
REMARK                            x       y       z     vdW  Elec       q    Type
REMARK                         _______ _______ _______ _____ _____    ______ ____
ROOT
ATOM      1  O   UNL     1      -2.058  -2.880  23.479  0.00  0.00    -0.270 OA
ATOM      6  N   UNL     1      -0.517  -1.357  24.361  0.00  0.00    -0.297 N 
ATOM      9  C   UNL     1       0.532   0.896  24.340  0.00  0.00    +0.016 C 
ATOM     10  C   UNL     1       1.775   0.269  23.657  0.00  0.00    +0.006 C 
ATOM     11  C   UNL     1       1.404  -0.994  22.861  0.00  0.00    +0.023 C 
ATOM     12  C   UNL     1      -0.204  -0.171  25.172  0.00  0.00    +0.112 C 
ATOM     13  C   UNL     1       0.639  -1.990  23.728  0.00  0.00    +0.108 C 
ATOM     17  C   UNL     1      -1.791  -1.891  24.160  0.00  0.00    +0.247 C 
ENDROOT
BRANCH  17  23
ATOM     23  C   UNL     1      -2.927  -1.229  24.810  0.00  0.00    +0.037 A 
ATOM     28  C   UNL     1      -4.156  -1.146  24.154  0.00  0.00    +0.014 A 
ATOM     29  C   UNL     1      -2.780  -0.686  26.086  0.00  0.00    +0.014 A 
ATOM     30  C   UNL     1      -5.236  -0.518  24.775  0.00  0.00    +0.019 A 
ATOM     31  C   UNL     1      -3.859  -0.058  26.707  0.00  0.00    +0.019 A 
ATOM     32  C   UNL     1      -5.089   0.026  26.051  0.00  0.00    +0.052 A 
BRANCH  32  35
ATOM      8  N   UNL     1      -7.094   1.192  27.200  0.00  0.00    -0.191 NA
ATOM     35  C   UNL     1      -6.195   0.669  26.686  0.00  0.00    +0.099 C 
ENDBRANCH  32  35
ENDBRANCH  17  23
BRANCH   9  14
ATOM     14  C   UNL     1      -0.438   1.576  23.366  0.00  0.00    +0.061 C 
BRANCH  14  16
ATOM      7  N   UNL     1       0.135   3.830  23.965  0.00  0.00    -0.287 NA
ATOM     16  C   UNL     1      -0.804   2.947  23.881  0.00  0.00    +0.044 C 
ATOM     18  C   UNL     1      -2.213   3.213  24.270  0.00  0.00    +0.003 A 
ATOM     20  C   UNL     1      -2.443   4.326  25.087  0.00  0.00    -0.033 A 
ATOM     21  C   UNL     1      -1.271   5.157  25.520  0.00  0.00    +0.059 C 
ATOM     22  C   UNL     1      -0.232   5.180  24.406  0.00  0.00    +0.146 C 
ATOM     24  C   UNL     1      -3.274   2.398  23.868  0.00  0.00    +0.059 A 
ATOM     25  C   UNL     1      -3.741   4.608  25.521  0.00  0.00    +0.053 A 
ATOM     26  C   UNL     1      -4.568   2.697  24.293  0.00  0.00    +0.162 A 
ATOM     27  C   UNL     1      -4.802   3.796  25.120  0.00  0.00    +0.162 A 
BRANCH  26   4
ATOM      4  O   UNL     1      -5.602   1.901  23.896  0.00  0.00    -0.491 OA
ATOM     33  C   UNL     1      -6.914   2.298  24.290  0.00  0.00    +0.277 C 
ENDBRANCH  26   4
BRANCH  27   5
ATOM      5  O   UNL     1      -6.064   4.086  25.545  0.00  0.00    -0.491 OA
ATOM     34  C   UNL     1      -6.432   5.463  25.588  0.00  0.00    +0.277 C 
ENDBRANCH  27   5
ENDBRANCH  14  16
ENDBRANCH   9  14
BRANCH  10  15
ATOM     15  C   UNL     1       2.537   1.256  22.776  0.00  0.00    +0.124 C 
BRANCH  15  19
ATOM      3  O   UNL     1       4.827   0.871  23.518  0.00  0.00    -0.251 OA
ATOM     19  C   UNL     1       3.984   0.871  22.634  0.00  0.00    +0.305 C 
BRANCH  19   2
ATOM      2  O   UNL     1       4.239   0.511  21.349  0.00  0.00    -0.481 OA
ATOM     36  H   UNL     1       4.989   1.015  20.970  0.00  0.00    +0.295 HD
ENDBRANCH  19   2
ENDBRANCH  15  19
ENDBRANCH  10  15
TORSDOF 9
ENDMDL
MODEL 5
REMARK VINA RESULT:      10.6      2.815      5.726
REMARK  Name = 51136599
REMARK  11 active torsions:
REMARK  status: ('A' for Active; 'I' for Inactive)
REMARK    1  A    between atoms: O_2  and  C_19
REMARK    2  A    between atoms: O_4  and  C_26
REMARK    3  A    between atoms: O_4  and  C_33
REMARK    4  A    between atoms: O_5  and  C_27
REMARK    5  A    between atoms: O_5  and  C_34
REMARK    6  A    between atoms: C_9  and  C_14
REMARK    7  A    between atoms: C_10  and  C_15
REMARK    8  A    between atoms: C_14  and  C_16
REMARK    9  A    between atoms: C_15  and  C_19
REMARK   10  A    between atoms: C_17  and  C_23
REMARK   11  A    between atoms: C_32  and  C_35
REMARK                            x       y       z     vdW  Elec       q    Type
REMARK                         _______ _______ _______ _____ _____    ______ ____
ROOT
ATOM      1  O   UNL     1      -0.592   5.307  25.001  0.00  0.00    -0.270 OA
ATOM      6  N   UNL     1      -0.422   3.404  23.650  0.00  0.00    -0.297 N 
ATOM      9  C   UNL     1      -0.027   0.962  23.417  0.00  0.00    +0.016 C 
ATOM     10  C   UNL     1       1.393   1.282  22.881  0.00  0.00    +0.006 C 
ATOM     11  C   UNL     1       1.906   2.632  23.411  0.00  0.00    +0.023 C 
ATOM     12  C   UNL     1      -0.973   2.143  23.134  0.00  0.00    +0.112 C 
ATOM     13  C   UNL     1       0.903   3.749  23.138  0.00  0.00    +0.108 C 
ATOM     17  C   UNL     1      -1.052   4.253  24.562  0.00  0.00    +0.247 C 
ENDROOT
BRANCH  17  23
ATOM     23  C   UNL     1      -2.381   3.874  25.054  0.00  0.00    +0.037 A 
ATOM     28  C   UNL     1      -3.392   3.544  24.150  0.00  0.00    +0.014 A 
ATOM     29  C   UNL     1      -2.634   3.840  26.425  0.00  0.00    +0.014 A 
ATOM     30  C   UNL     1      -4.655   3.182  24.618  0.00  0.00    +0.019 A 
ATOM     31  C   UNL     1      -3.896   3.477  26.893  0.00  0.00    +0.019 A 
ATOM     32  C   UNL     1      -4.908   3.148  25.990  0.00  0.00    +0.052 A 
BRANCH  32  35
ATOM      8  N   UNL     1      -7.252   2.474  26.856  0.00  0.00    -0.191 NA
ATOM     35  C   UNL     1      -6.202   2.777  26.468  0.00  0.00    +0.099 C 
ENDBRANCH  32  35
ENDBRANCH  17  23
BRANCH   9  14
ATOM     14  C   UNL     1      -0.062   0.595  24.905  0.00  0.00    +0.061 C 
BRANCH  14  16
ATOM      7  N   UNL     1       0.425  -1.671  25.536  0.00  0.00    -0.287 NA
ATOM     16  C   UNL     1      -0.458  -0.853  25.067  0.00  0.00    +0.044 C 
ATOM     18  C   UNL     1      -1.830  -1.267  24.677  0.00  0.00    +0.003 A 
ATOM     20  C   UNL     1      -2.042  -2.636  24.470  0.00  0.00    -0.033 A 
ATOM     21  C   UNL     1      -0.886  -3.578  24.640  0.00  0.00    +0.059 C 
ATOM     22  C   UNL     1       0.021  -3.064  25.751  0.00  0.00    +0.146 C 
ATOM     24  C   UNL     1      -2.874  -0.356  24.503  0.00  0.00    +0.059 A 
ATOM     25  C   UNL     1      -3.300  -3.087  24.063  0.00  0.00    +0.053 A 
ATOM     26  C   UNL     1      -4.131  -0.817  24.111  0.00  0.00    +0.162 A 
ATOM     27  C   UNL     1      -4.344  -2.178  23.889  0.00  0.00    +0.162 A 
BRANCH  26   4
ATOM      4  O   UNL     1      -5.147   0.076  23.944  0.00  0.00    -0.491 OA
ATOM     33  C   UNL     1      -5.978   0.330  25.076  0.00  0.00    +0.277 C 
ENDBRANCH  26   4
BRANCH  27   5
ATOM      5  O   UNL     1      -5.568  -2.631  23.498  0.00  0.00    -0.491 OA
ATOM     34  C   UNL     1      -5.599  -3.843  22.746  0.00  0.00    +0.277 C 
ENDBRANCH  27   5
ENDBRANCH  14  16
ENDBRANCH   9  14
BRANCH  10  15
ATOM     15  C   UNL     1       2.405   0.173  23.162  0.00  0.00    +0.124 C 
BRANCH  15  19
ATOM      3  O   UNL     1       4.740   0.794  23.483  0.00  0.00    -0.251 OA
ATOM     19  C   UNL     1       3.794   0.570  22.743  0.00  0.00    +0.305 C 
BRANCH  19   2
ATOM      2  O   UNL     1       3.860   0.650  21.389  0.00  0.00    -0.481 OA
ATOM     36  H   UNL     1       4.222   1.512  21.092  0.00  0.00    +0.295 HD
ENDBRANCH  19   2
ENDBRANCH  15  19
ENDBRANCH  10  15
TORSDOF 9
ENDMDL
MODEL 6
REMARK VINA RESULT:      10.7      2.398      4.492
REMARK  Name = 51136599
REMARK  11 active torsions:
REMARK  status: ('A' for Active; 'I' for Inactive)
REMARK    1  A    between atoms: O_2  and  C_19
REMARK    2  A    between atoms: O_4  and  C_26
REMARK    3  A    between atoms: O_4  and  C_33
REMARK    4  A    between atoms: O_5  and  C_27
REMARK    5  A    between atoms: O_5  and  C_34
REMARK    6  A    between atoms: C_9  and  C_14
REMARK    7  A    between atoms: C_10  and  C_15
REMARK    8  A    between atoms: C_14  and  C_16
REMARK    9  A    between atoms: C_15  and  C_19
REMARK   10  A    between atoms: C_17  and  C_23
REMARK   11  A    between atoms: C_32  and  C_35
REMARK                            x       y       z     vdW  Elec       q    Type
REMARK                         _______ _______ _______ _____ _____    ______ ____
ROOT
ATOM      1  O   UNL     1      -4.805  -1.980  23.728  0.00  0.00    -0.270 OA
ATOM      6  N   UNL     1      -2.844  -1.643  24.959  0.00  0.00    -0.297 N 
ATOM      9  C   UNL     1      -0.604  -0.592  25.189  0.00  0.00    +0.016 C 
ATOM     10  C   UNL     1       0.032  -1.962  24.840  0.00  0.00    +0.006 C 
ATOM     11  C   UNL     1      -0.913  -2.821  23.982  0.00  0.00    +0.023 C 
ATOM     12  C   UNL     1      -1.995  -0.804  25.816  0.00  0.00    +0.112 C 
ATOM     13  C   UNL     1      -2.284  -2.955  24.637  0.00  0.00    +0.108 C 
ATOM     17  C   UNL     1      -4.093  -1.282  24.449  0.00  0.00    +0.247 C 
ENDROOT
BRANCH  17  23
ATOM     23  C   UNL     1      -4.622   0.042  24.794  0.00  0.00    +0.037 A 
ATOM     28  C   UNL     1      -3.927   0.862  25.684  0.00  0.00    +0.014 A 
ATOM     29  C   UNL     1      -5.819   0.483  24.229  0.00  0.00    +0.014 A 
ATOM     30  C   UNL     1      -4.430   2.121  26.009  0.00  0.00    +0.019 A 
ATOM     31  C   UNL     1      -6.322   1.742  24.554  0.00  0.00    +0.019 A 
ATOM     32  C   UNL     1      -5.627   2.562  25.444  0.00  0.00    +0.052 A 
BRANCH  32  35
ATOM      8  N   UNL     1      -6.560   4.900  26.049  0.00  0.00    -0.191 NA
ATOM     35  C   UNL     1      -6.142   3.853  25.779  0.00  0.00    +0.099 C 
ENDBRANCH  32  35
ENDBRANCH  17  23
BRANCH   9  14
ATOM     14  C   UNL     1      -0.696   0.373  24.002  0.00  0.00    +0.061 C 
BRANCH  14  16
ATOM      7  N   UNL     1       0.457   2.099  25.210  0.00  0.00    -0.287 NA
ATOM     16  C   UNL     1      -0.571   1.797  24.487  0.00  0.00    +0.044 C 
ATOM     18  C   UNL     1      -1.627   2.774  24.120  0.00  0.00    +0.003 A 
ATOM     20  C   UNL     1      -1.694   3.948  24.882  0.00  0.00    -0.033 A 
ATOM     21  C   UNL     1      -0.720   4.133  26.008  0.00  0.00    +0.059 C 
ATOM     22  C   UNL     1       0.611   3.496  25.630  0.00  0.00    +0.146 C 
ATOM     24  C   UNL     1      -2.534   2.552  23.081  0.00  0.00    +0.059 A 
ATOM     25  C   UNL     1      -2.692   4.889  24.613  0.00  0.00    +0.053 A 
ATOM     26  C   UNL     1      -3.516   3.505  22.811  0.00  0.00    +0.162 A 
ATOM     27  C   UNL     1      -3.597   4.669  23.576  0.00  0.00    +0.162 A 
BRANCH  26   4
ATOM      4  O   UNL     1      -4.397   3.285  21.794  0.00  0.00    -0.491 OA
ATOM     33  C   UNL     1      -4.052   3.811  20.513  0.00  0.00    +0.277 C 
ENDBRANCH  26   4
BRANCH  27   5
ATOM      5  O   UNL     1      -4.561   5.598  23.321  0.00  0.00    -0.491 OA
ATOM     34  C   UNL     1      -4.147   6.797  22.668  0.00  0.00    +0.277 C 
ENDBRANCH  27   5
ENDBRANCH  14  16
ENDBRANCH   9  14
BRANCH  10  15
ATOM     15  C   UNL     1       1.400  -1.835  24.171  0.00  0.00    +0.124 C 
BRANCH  15  19
ATOM      3  O   UNL     1       0.703  -0.830  22.063  0.00  0.00    -0.251 OA
ATOM     19  C   UNL     1       1.389  -0.807  23.074  0.00  0.00    +0.305 C 
BRANCH  19   2
ATOM      2  O   UNL     1       2.273   0.182  23.363  0.00  0.00    -0.481 OA
ATOM     36  H   UNL     1       1.927   0.792  24.049  0.00  0.00    +0.295 HD
ENDBRANCH  19   2
ENDBRANCH  15  19
ENDBRANCH  10  15
TORSDOF 9
ENDMDL
MODEL 7
REMARK VINA RESULT:      11.2      2.760      5.893
REMARK  Name = 51136599
REMARK  11 active torsions:
REMARK  status: ('A' for Active; 'I' for Inactive)
REMARK    1  A    between atoms: O_2  and  C_19
REMARK    2  A    between atoms: O_4  and  C_26
REMARK    3  A    between atoms: O_4  and  C_33
REMARK    4  A    between atoms: O_5  and  C_27
REMARK    5  A    between atoms: O_5  and  C_34
REMARK    6  A    between atoms: C_9  and  C_14
REMARK    7  A    between atoms: C_10  and  C_15
REMARK    8  A    between atoms: C_14  and  C_16
REMARK    9  A    between atoms: C_15  and  C_19
REMARK   10  A    between atoms: C_17  and  C_23
REMARK   11  A    between atoms: C_32  and  C_35
REMARK                            x       y       z     vdW  Elec       q    Type
REMARK                         _______ _______ _______ _____ _____    ______ ____
ROOT
ATOM      1  O   UNL     1      -6.270   1.584  23.630  0.00  0.00    -0.270 OA
ATOM      6  N   UNL     1      -4.839   0.303  24.966  0.00  0.00    -0.297 N 
ATOM      9  C   UNL     1      -2.680  -0.889  25.274  0.00  0.00    +0.016 C 
ATOM     10  C   UNL     1      -3.434  -2.228  25.065  0.00  0.00    +0.006 C 
ATOM     11  C   UNL     1      -4.697  -2.037  24.208  0.00  0.00    +0.023 C 
ATOM     12  C   UNL     1      -3.648   0.179  25.818  0.00  0.00    +0.112 C 
ATOM     13  C   UNL     1      -5.589  -0.937  24.775  0.00  0.00    +0.108 C 
ATOM     17  C   UNL     1      -5.277   1.477  24.348  0.00  0.00    +0.247 C 
ENDROOT
BRANCH  17  23
ATOM     23  C   UNL     1      -4.499   2.701  24.562  0.00  0.00    +0.037 A 
ATOM     28  C   UNL     1      -4.403   3.253  25.840  0.00  0.00    +0.014 A 
ATOM     29  C   UNL     1      -3.851   3.312  23.488  0.00  0.00    +0.014 A 
ATOM     30  C   UNL     1      -3.661   4.417  26.042  0.00  0.00    +0.019 A 
ATOM     31  C   UNL     1      -3.109   4.475  23.691  0.00  0.00    +0.019 A 
ATOM     32  C   UNL     1      -3.013   5.028  24.969  0.00  0.00    +0.052 A 
BRANCH  32  35
ATOM      8  N   UNL     1      -1.636   7.188  25.346  0.00  0.00    -0.191 NA
ATOM     35  C   UNL     1      -2.254   6.220  25.177  0.00  0.00    +0.099 C 
ENDBRANCH  32  35
ENDBRANCH  17  23
BRANCH   9  14
ATOM     14  C   UNL     1      -1.968  -0.373  24.018  0.00  0.00    +0.061 C 
BRANCH  14  16
ATOM      7  N   UNL     1      -1.603   1.755  25.068  0.00  0.00    -0.287 NA
ATOM     16  C   UNL     1      -1.083   0.797  24.375  0.00  0.00    +0.044 C 
ATOM     18  C   UNL     1       0.328   0.795  23.912  0.00  0.00    +0.003 A 
ATOM     20  C   UNL     1       0.995   2.026  23.915  0.00  0.00    -0.033 A 
ATOM     21  C   UNL     1       0.251   3.248  24.366  0.00  0.00    +0.059 C 
ATOM     22  C   UNL     1      -0.728   2.863  25.468  0.00  0.00    +0.146 C 
ATOM     24  C   UNL     1       0.977  -0.361  23.474  0.00  0.00    +0.059 A 
ATOM     25  C   UNL     1       2.312   2.098  23.453  0.00  0.00    +0.053 A 
ATOM     26  C   UNL     1       2.297  -0.282  23.029  0.00  0.00    +0.162 A 
ATOM     27  C   UNL     1       2.962   0.945  23.015  0.00  0.00    +0.162 A 
BRANCH  26   4
ATOM      4  O   UNL     1       2.928  -1.413  22.604  0.00  0.00    -0.491 OA
ATOM     33  C   UNL     1       3.866  -2.006  23.501  0.00  0.00    +0.277 C 
ENDBRANCH  26   4
BRANCH  27   5
ATOM      5  O   UNL     1       4.249   1.029  22.573  0.00  0.00    -0.491 OA
ATOM     34  C   UNL     1       5.278   0.745  23.519  0.00  0.00    +0.277 C 
ENDBRANCH  27   5
ENDBRANCH  14  16
ENDBRANCH   9  14
BRANCH  10  15
ATOM     15  C   UNL     1      -2.551  -3.330  24.485  0.00  0.00    +0.124 C 
BRANCH  15  19
ATOM      3  O   UNL     1      -0.420  -2.747  25.516  0.00  0.00    -0.251 OA
ATOM     19  C   UNL     1      -1.095  -2.951  24.519  0.00  0.00    +0.305 C 
BRANCH  19   2
ATOM      2  O   UNL     1      -0.615  -2.863  23.252  0.00  0.00    -0.481 OA
ATOM     36  H   UNL     1      -0.647  -1.944  22.912  0.00  0.00    +0.295 HD
ENDBRANCH  19   2
ENDBRANCH  15  19
ENDBRANCH  10  15
TORSDOF 9
ENDMDL
MODEL 8
REMARK VINA RESULT:      12.1      3.004      7.731
REMARK  Name = 51136599
REMARK  11 active torsions:
REMARK  status: ('A' for Active; 'I' for Inactive)
REMARK    1  A    between atoms: O_2  and  C_19
REMARK    2  A    between atoms: O_4  and  C_26
REMARK    3  A    between atoms: O_4  and  C_33
REMARK    4  A    between atoms: O_5  and  C_27
REMARK    5  A    between atoms: O_5  and  C_34
REMARK    6  A    between atoms: C_9  and  C_14
REMARK    7  A    between atoms: C_10  and  C_15
REMARK    8  A    between atoms: C_14  and  C_16
REMARK    9  A    between atoms: C_15  and  C_19
REMARK   10  A    between atoms: C_17  and  C_23
REMARK   11  A    between atoms: C_32  and  C_35
REMARK                            x       y       z     vdW  Elec       q    Type
REMARK                         _______ _______ _______ _____ _____    ______ ____
ROOT
ATOM      1  O   UNL     1      -5.818   1.249  26.664  0.00  0.00    -0.270 OA
ATOM      6  N   UNL     1      -4.496   2.332  25.066  0.00  0.00    -0.297 N 
ATOM      9  C   UNL     1      -2.256   3.025  24.242  0.00  0.00    +0.016 C 
ATOM     10  C   UNL     1      -2.560   4.461  24.740  0.00  0.00    +0.006 C 
ATOM     11  C   UNL     1      -3.566   4.454  25.904  0.00  0.00    +0.023 C 
ATOM     12  C   UNL     1      -3.572   2.290  23.924  0.00  0.00    +0.112 C 
ATOM     13  C   UNL     1      -4.826   3.675  25.540  0.00  0.00    +0.108 C 
ATOM     17  C   UNL     1      -5.049   1.219  25.705  0.00  0.00    +0.247 C 
ENDROOT
BRANCH  17  23
ATOM     23  C   UNL     1      -4.694  -0.112  25.201  0.00  0.00    +0.037 A 
ATOM     28  C   UNL     1      -4.012  -1.010  26.023  0.00  0.00    +0.014 A 
ATOM     29  C   UNL     1      -5.042  -0.481  23.902  0.00  0.00    +0.014 A 
ATOM     30  C   UNL     1      -3.677  -2.277  25.544  0.00  0.00    +0.019 A 
ATOM     31  C   UNL     1      -4.707  -1.748  23.423  0.00  0.00    +0.019 A 
ATOM     32  C   UNL     1      -4.024  -2.646  24.245  0.00  0.00    +0.052 A 
BRANCH  32  35
ATOM      8  N   UNL     1      -3.400  -4.997  23.357  0.00  0.00    -0.191 NA
ATOM     35  C   UNL     1      -3.680  -3.944  23.755  0.00  0.00    +0.099 C 
ENDBRANCH  32  35
ENDBRANCH  17  23
BRANCH   9  14
ATOM     14  C   UNL     1      -1.404   2.196  25.211  0.00  0.00    +0.061 C 
BRANCH  14  16
ATOM      7  N   UNL     1      -1.975  -0.034  24.527  0.00  0.00    -0.287 NA
ATOM     16  C   UNL     1      -1.054   0.870  24.580  0.00  0.00    +0.044 C 
ATOM     18  C   UNL     1       0.322   0.667  24.059  0.00  0.00    +0.003 A 
ATOM     20  C   UNL     1       0.727  -0.657  23.844  0.00  0.00    -0.033 A 
ATOM     21  C   UNL     1      -0.235  -1.765  24.161  0.00  0.00    +0.059 C 
ATOM     22  C   UNL     1      -1.654  -1.300  23.859  0.00  0.00    +0.146 C 
ATOM     24  C   UNL     1       1.197   1.725  23.803  0.00  0.00    +0.059 A 
ATOM     25  C   UNL     1       2.023  -0.918  23.394  0.00  0.00    +0.053 A 
ATOM     26  C   UNL     1       2.484   1.455  23.338  0.00  0.00    +0.162 A 
ATOM     27  C   UNL     1       2.898   0.138  23.137  0.00  0.00    +0.162 A 
BRANCH  26   4
ATOM      4  O   UNL     1       3.334   2.491  23.087  0.00  0.00    -0.491 OA
ATOM     33  C   UNL     1       3.945   2.529  21.799  0.00  0.00    +0.277 C 
ENDBRANCH  26   4
BRANCH  27   5
ATOM      5  O   UNL     1       4.158  -0.131  22.692  0.00  0.00    -0.491 OA
ATOM     34  C   UNL     1       5.187  -0.222  23.675  0.00  0.00    +0.277 C 
ENDBRANCH  27   5
ENDBRANCH  14  16
ENDBRANCH   9  14
BRANCH  10  15
ATOM     15  C   UNL     1      -1.304   5.243  25.120  0.00  0.00    +0.124 C 
BRANCH  15  19
ATOM      3  O   UNL     1       0.239   4.838  23.277  0.00  0.00    -0.251 OA
ATOM     19  C   UNL     1      -0.079   4.687  24.446  0.00  0.00    +0.305 C 
BRANCH  19   2
ATOM      2  O   UNL     1       0.651   3.971  25.340  0.00  0.00    -0.481 OA
ATOM     36  H   UNL     1       0.724   3.029  25.079  0.00  0.00    +0.295 HD
ENDBRANCH  19   2
ENDBRANCH  15  19
ENDBRANCH  10  15
TORSDOF 9
ENDMDL
MODEL 9
REMARK VINA RESULT:      12.5      2.208      4.853
REMARK  Name = 51136599
REMARK  11 active torsions:
REMARK  status: ('A' for Active; 'I' for Inactive)
REMARK    1  A    between atoms: O_2  and  C_19
REMARK    2  A    between atoms: O_4  and  C_26
REMARK    3  A    between atoms: O_4  and  C_33
REMARK    4  A    between atoms: O_5  and  C_27
REMARK    5  A    between atoms: O_5  and  C_34
REMARK    6  A    between atoms: C_9  and  C_14
REMARK    7  A    between atoms: C_10  and  C_15
REMARK    8  A    between atoms: C_14  and  C_16
REMARK    9  A    between atoms: C_15  and  C_19
REMARK   10  A    between atoms: C_17  and  C_23
REMARK   11  A    between atoms: C_32  and  C_35
REMARK                            x       y       z     vdW  Elec       q    Type
REMARK                         _______ _______ _______ _____ _____    ______ ____
ROOT
ATOM      1  O   UNL     1      -1.285  -3.530  24.059  0.00  0.00    -0.270 OA
ATOM      6  N   UNL     1      -2.657  -1.655  23.777  0.00  0.00    -0.297 N 
ATOM      9  C   UNL     1      -3.572   0.488  24.640  0.00  0.00    +0.016 C 
ATOM     10  C   UNL     1      -4.901  -0.248  24.948  0.00  0.00    +0.006 C 
ATOM     11  C   UNL     1      -4.672  -1.749  25.192  0.00  0.00    +0.023 C 
ATOM     12  C   UNL     1      -2.831  -0.224  23.493  0.00  0.00    +0.112 C 
ATOM     13  C   UNL     1      -3.896  -2.384  24.041  0.00  0.00    +0.108 C 
ATOM     17  C   UNL     1      -1.436  -2.333  23.817  0.00  0.00    +0.247 C 
ENDROOT
BRANCH  17  23
ATOM     23  C   UNL     1      -0.214  -1.569  23.547  0.00  0.00    +0.037 A 
ATOM     28  C   UNL     1       0.916  -1.755  24.344  0.00  0.00    +0.014 A 
ATOM     29  C   UNL     1      -0.180  -0.658  22.491  0.00  0.00    +0.014 A 
ATOM     30  C   UNL     1       2.079  -1.029  24.085  0.00  0.00    +0.019 A 
ATOM     31  C   UNL     1       0.983   0.067  22.232  0.00  0.00    +0.019 A 
ATOM     32  C   UNL     1       2.113  -0.118  23.029  0.00  0.00    +0.052 A 
BRANCH  32  35
ATOM      8  N   UNL     1       4.272   1.229  22.552  0.00  0.00    -0.191 NA
ATOM     35  C   UNL     1       3.305   0.625  22.766  0.00  0.00    +0.099 C 
ENDBRANCH  32  35
ENDBRANCH  17  23
BRANCH   9  14
ATOM     14  C   UNL     1      -2.649   0.642  25.856  0.00  0.00    +0.061 C 
BRANCH  14  16
ATOM      7  N   UNL     1      -0.326   1.196  25.603  0.00  0.00    -0.287 NA
ATOM     16  C   UNL     1      -1.544   1.621  25.539  0.00  0.00    +0.044 C 
ATOM     18  C   UNL     1      -1.905   3.016  25.179  0.00  0.00    +0.003 A 
ATOM     20  C   UNL     1      -0.889   3.976  25.273  0.00  0.00    -0.033 A 
ATOM     21  C   UNL     1       0.471   3.542  25.735  0.00  0.00    +0.059 C 
ATOM     22  C   UNL     1       0.745   2.129  25.235  0.00  0.00    +0.146 C 
ATOM     24  C   UNL     1      -3.192   3.384  24.779  0.00  0.00    +0.059 A 
ATOM     25  C   UNL     1      -1.175   5.313  24.986  0.00  0.00    +0.053 A 
ATOM     26  C   UNL     1      -3.463   4.720  24.481  0.00  0.00    +0.162 A 
ATOM     27  C   UNL     1      -2.459   5.683  24.587  0.00  0.00    +0.162 A 
BRANCH  26   4
ATOM      4  O   UNL     1      -4.719   5.074  24.088  0.00  0.00    -0.491 OA
ATOM     33  C   UNL     1      -5.698   5.233  25.115  0.00  0.00    +0.277 C 
ENDBRANCH  26   4
BRANCH  27   5
ATOM      5  O   UNL     1      -2.721   6.990  24.304  0.00  0.00    -0.491 OA
ATOM     34  C   UNL     1      -2.519   7.415  22.958  0.00  0.00    +0.277 C 
ENDBRANCH  27   5
ENDBRANCH  14  16
ENDBRANCH   9  14
BRANCH  10  15
ATOM     15  C   UNL     1      -5.677   0.374  26.108  0.00  0.00    +0.124 C 
BRANCH  15  19
ATOM      3  O   UNL     1      -5.794   2.773  26.520  0.00  0.00    -0.251 OA
ATOM     19  C   UNL     1      -6.051   1.803  25.824  0.00  0.00    +0.305 C 
BRANCH  19   2
ATOM      2  O   UNL     1      -6.735   1.873  24.653  0.00  0.00    -0.481 OA
ATOM     36  H   UNL     1      -7.407   2.587  24.666  0.00  0.00    +0.295 HD
ENDBRANCH  19   2
ENDBRANCH  15  19
ENDBRANCH  10  15
TORSDOF 9
ENDMDL
