MODEL 1
REMARK VINA RESULT:       2.0      0.000      0.000
REMARK  Name = 75536374
REMARK  10 active torsions:
REMARK  status: ('A' for Active; 'I' for Inactive)
REMARK    1  A    between atoms: O_2  and  C_12
REMARK    2  A    between atoms: O_5  and  C_25
REMARK    3  A    between atoms: O_6  and  C_32
REMARK    4  A    between atoms: O_6  and  C_33
REMARK    5  A    between atoms: N_7  and  C_16
REMARK    6  A    between atoms: N_9  and  C_22
REMARK    7  A    between atoms: C_10  and  C_15
REMARK    8  A    between atoms: C_11  and  C_16
REMARK    9  A    between atoms: C_15  and  C_17
REMARK   10  A    between atoms: C_20  and  C_21
REMARK                            x       y       z     vdW  Elec       q    Type
REMARK                         _______ _______ _______ _____ _____    ______ ____
ROOT
ATOM      1  O   UNL     1      -3.741   1.939  25.592  0.00  0.00    -0.369 OA
ATOM     10  C   UNL     1      -4.033   2.664  24.394  0.00  0.00    +0.125 C 
ATOM     11  C   UNL     1      -4.542   0.769  25.808  0.00  0.00    +0.164 C 
ATOM     12  C   UNL     1      -6.038   1.106  25.784  0.00  0.00    +0.145 C 
ATOM     13  C   UNL     1      -5.491   3.122  24.383  0.00  0.00    +0.034 C 
ATOM     14  C   UNL     1      -6.430   1.932  24.561  0.00  0.00    +0.036 C 
ENDROOT
BRANCH  12   2
ATOM      2  O   UNL     1      -6.357   1.873  26.948  0.00  0.00    -0.389 OA
ATOM     34  H   UNL     1      -5.560   2.370  27.200  0.00  0.00    +0.210 HD
ENDBRANCH  12   2
BRANCH  10  15
ATOM     15  C   UNL     1      -3.089   3.858  24.338  0.00  0.00    +0.090 C 
BRANCH  15  17
ATOM      3  O   UNL     1       0.307   3.327  25.424  0.00  0.00    -0.354 OA
ATOM      8  N   UNL     1      -0.644   3.595  24.447  0.00  0.00    -0.083 NA
ATOM     17  C   UNL     1      -1.813   3.596  25.094  0.00  0.00    +0.087 A 
ATOM     18  C   UNL     1      -1.664   3.337  26.467  0.00  0.00    +0.076 A 
ATOM     20  C   UNL     1      -0.313   3.174  26.623  0.00  0.00    +0.168 A 
BRANCH  20  21
ATOM     21  C   UNL     1       0.546   2.893  27.736  0.00  0.00    +0.023 A 
ATOM     23  C   UNL     1       1.926   2.824  27.552  0.00  0.00    +0.057 A 
ATOM     24  C   UNL     1      -0.000   2.685  29.002  0.00  0.00    +0.012 A 
ATOM     25  C   UNL     1       2.762   2.547  28.634  0.00  0.00    +0.118 A 
ATOM     26  C   UNL     1       0.835   2.409  30.085  0.00  0.00    +0.004 A 
ATOM     29  C   UNL     1       2.216   2.340  29.901  0.00  0.00    +0.045 A 
BRANCH  25   5
ATOM      5  O   UNL     1       4.109   2.479  28.454  0.00  0.00    -0.507 OA
ATOM     37  H   UNL     1       4.548   2.974  29.167  0.00  0.00    +0.292 HD
ENDBRANCH  25   5
ENDBRANCH  20  21
ENDBRANCH  15  17
ENDBRANCH  10  15
BRANCH  11  16
ATOM     16  C   UNL     1      -4.165  -0.343  24.833  0.00  0.00    +0.140 C 
BRANCH  16   7
ATOM      4  O   UNL     1      -1.337  -0.669  25.151  0.00  0.00    -0.253 OA
ATOM      7  N   UNL     1      -3.146   0.092  23.926  0.00  0.00    -0.297 N 
ATOM      9  N   UNL     1      -1.019   0.425  23.099  0.00  0.00    -0.269 N 
ATOM     19  C   UNL     1      -1.772  -0.104  24.151  0.00  0.00    +0.304 C 
ATOM     35  H   UNL     1      -3.430   0.609  23.100  0.00  0.00    +0.150 HD
ATOM     36  H   UNL     1      -1.538   0.861  22.340  0.00  0.00    +0.156 HD
BRANCH   9  22
ATOM     22  C   UNL     1       0.388   0.427  22.954  0.00  0.00    +0.035 A 
ATOM     27  C   UNL     1       0.993  -0.390  21.999  0.00  0.00    +0.027 A 
ATOM     28  C   UNL     1       1.171   1.248  23.767  0.00  0.00    +0.027 A 
ATOM     30  C   UNL     1       2.381  -0.385  21.855  0.00  0.00    +0.047 A 
ATOM     31  C   UNL     1       2.559   1.252  23.623  0.00  0.00    +0.047 A 
ATOM     32  C   UNL     1       3.163   0.435  22.667  0.00  0.00    +0.120 A 
BRANCH  32   6
ATOM      6  O   UNL     1       4.518   0.440  22.527  0.00  0.00    -0.495 OA
ATOM     33  C   UNL     1       5.291   0.153  23.691  0.00  0.00    +0.277 C 
ENDBRANCH  32   6
ENDBRANCH   9  22
ENDBRANCH  16   7
ENDBRANCH  11  16
TORSDOF 9
ENDMDL
MODEL 2
REMARK VINA RESULT:       2.4      0.802      1.435
REMARK  Name = 75536374
REMARK  10 active torsions:
REMARK  status: ('A' for Active; 'I' for Inactive)
REMARK    1  A    between atoms: O_2  and  C_12
REMARK    2  A    between atoms: O_5  and  C_25
REMARK    3  A    between atoms: O_6  and  C_32
REMARK    4  A    between atoms: O_6  and  C_33
REMARK    5  A    between atoms: N_7  and  C_16
REMARK    6  A    between atoms: N_9  and  C_22
REMARK    7  A    between atoms: C_10  and  C_15
REMARK    8  A    between atoms: C_11  and  C_16
REMARK    9  A    between atoms: C_15  and  C_17
REMARK   10  A    between atoms: C_20  and  C_21
REMARK                            x       y       z     vdW  Elec       q    Type
REMARK                         _______ _______ _______ _____ _____    ______ ____
ROOT
ATOM      1  O   UNL     1      -3.662   1.905  25.580  0.00  0.00    -0.369 OA
ATOM     10  C   UNL     1      -3.967   2.649  24.398  0.00  0.00    +0.125 C 
ATOM     11  C   UNL     1      -4.468   0.737  25.790  0.00  0.00    +0.164 C 
ATOM     12  C   UNL     1      -5.962   1.083  25.793  0.00  0.00    +0.145 C 
ATOM     13  C   UNL     1      -5.422   3.115  24.413  0.00  0.00    +0.034 C 
ATOM     14  C   UNL     1      -6.366   1.929  24.587  0.00  0.00    +0.036 C 
ENDROOT
BRANCH  12   2
ATOM      2  O   UNL     1      -6.260   1.835  26.972  0.00  0.00    -0.389 OA
ATOM     34  H   UNL     1      -6.648   2.680  26.692  0.00  0.00    +0.210 HD
ENDBRANCH  12   2
BRANCH  10  15
ATOM     15  C   UNL     1      -3.016   3.838  24.346  0.00  0.00    +0.090 C 
BRANCH  15  17
ATOM      3  O   UNL     1       0.381   3.168  25.345  0.00  0.00    -0.354 OA
ATOM      8  N   UNL     1      -0.592   3.416  24.385  0.00  0.00    -0.083 NA
ATOM     17  C   UNL     1      -1.729   3.555  25.073  0.00  0.00    +0.087 A 
ATOM     18  C   UNL     1      -1.537   3.407  26.457  0.00  0.00    +0.076 A 
ATOM     20  C   UNL     1      -0.194   3.165  26.576  0.00  0.00    +0.168 A 
BRANCH  20  21
ATOM     21  C   UNL     1       0.693   2.922  27.676  0.00  0.00    +0.023 A 
ATOM     23  C   UNL     1       0.176   2.686  28.950  0.00  0.00    +0.057 A 
ATOM     24  C   UNL     1       2.073   2.924  27.472  0.00  0.00    +0.012 A 
ATOM     25  C   UNL     1       1.040   2.452  30.020  0.00  0.00    +0.118 A 
ATOM     26  C   UNL     1       2.936   2.690  28.542  0.00  0.00    +0.004 A 
ATOM     29  C   UNL     1       2.420   2.454  29.817  0.00  0.00    +0.045 A 
BRANCH  25   5
ATOM      5  O   UNL     1       0.536   2.223  31.264  0.00  0.00    -0.507 OA
ATOM     37  H   UNL     1       0.418   1.266  31.385  0.00  0.00    +0.292 HD
ENDBRANCH  25   5
ENDBRANCH  20  21
ENDBRANCH  15  17
ENDBRANCH  10  15
BRANCH  11  16
ATOM     16  C   UNL     1      -4.112  -0.364  24.794  0.00  0.00    +0.140 C 
BRANCH  16   7
ATOM      4  O   UNL     1      -1.286  -0.706  25.114  0.00  0.00    -0.253 OA
ATOM      7  N   UNL     1      -3.089   0.072  23.892  0.00  0.00    -0.297 N 
ATOM      9  N   UNL     1      -0.959   0.400  23.070  0.00  0.00    -0.269 N 
ATOM     19  C   UNL     1      -1.716  -0.132  24.118  0.00  0.00    +0.304 C 
ATOM     35  H   UNL     1      -3.368   0.596  23.068  0.00  0.00    +0.150 HD
ATOM     36  H   UNL     1      -1.474   0.843  22.313  0.00  0.00    +0.156 HD
BRANCH   9  22
ATOM     22  C   UNL     1       0.449   0.396  22.927  0.00  0.00    +0.035 A 
ATOM     27  C   UNL     1       1.237   1.196  23.754  0.00  0.00    +0.027 A 
ATOM     28  C   UNL     1       1.049  -0.411  21.959  0.00  0.00    +0.027 A 
ATOM     30  C   UNL     1       2.625   1.190  23.614  0.00  0.00    +0.047 A 
ATOM     31  C   UNL     1       2.437  -0.416  21.819  0.00  0.00    +0.047 A 
ATOM     32  C   UNL     1       3.224   0.384  22.647  0.00  0.00    +0.120 A 
BRANCH  32   6
ATOM      6  O   UNL     1       4.579   0.378  22.510  0.00  0.00    -0.495 OA
ATOM     33  C   UNL     1       5.347   0.088  23.678  0.00  0.00    +0.277 C 
ENDBRANCH  32   6
ENDBRANCH   9  22
ENDBRANCH  16   7
ENDBRANCH  11  16
TORSDOF 9
ENDMDL
MODEL 3
REMARK VINA RESULT:       4.5      1.545      1.973
REMARK  Name = 75536374
REMARK  10 active torsions:
REMARK  status: ('A' for Active; 'I' for Inactive)
REMARK    1  A    between atoms: O_2  and  C_12
REMARK    2  A    between atoms: O_5  and  C_25
REMARK    3  A    between atoms: O_6  and  C_32
REMARK    4  A    between atoms: O_6  and  C_33
REMARK    5  A    between atoms: N_7  and  C_16
REMARK    6  A    between atoms: N_9  and  C_22
REMARK    7  A    between atoms: C_10  and  C_15
REMARK    8  A    between atoms: C_11  and  C_16
REMARK    9  A    between atoms: C_15  and  C_17
REMARK   10  A    between atoms: C_20  and  C_21
REMARK                            x       y       z     vdW  Elec       q    Type
REMARK                         _______ _______ _______ _____ _____    ______ ____
ROOT
ATOM      1  O   UNL     1      -2.606   0.732  25.144  0.00  0.00    -0.369 OA
ATOM     10  C   UNL     1      -3.016   1.463  23.986  0.00  0.00    +0.125 C 
ATOM     11  C   UNL     1      -3.221  -0.554  25.303  0.00  0.00    +0.164 C 
ATOM     12  C   UNL     1      -4.752  -0.444  25.300  0.00  0.00    +0.145 C 
ATOM     13  C   UNL     1      -4.525   1.698  24.001  0.00  0.00    +0.034 C 
ATOM     14  C   UNL     1      -5.274   0.374  24.122  0.00  0.00    +0.036 C 
ENDROOT
BRANCH  12   2
ATOM      2  O   UNL     1      -5.169   0.208  26.503  0.00  0.00    -0.389 OA
ATOM     34  H   UNL     1      -4.389   0.643  26.887  0.00  0.00    +0.210 HD
ENDBRANCH  12   2
BRANCH  10  15
ATOM     15  C   UNL     1      -2.261   2.786  23.988  0.00  0.00    +0.090 C 
BRANCH  15  17
ATOM      3  O   UNL     1       1.033   2.614  25.440  0.00  0.00    -0.354 OA
ATOM      8  N   UNL     1       0.168   2.630  24.353  0.00  0.00    -0.083 NA
ATOM     17  C   UNL     1      -1.053   2.738  24.885  0.00  0.00    +0.087 A 
ATOM     18  C   UNL     1      -1.021   2.795  26.289  0.00  0.00    +0.076 A 
ATOM     20  C   UNL     1       0.313   2.712  26.588  0.00  0.00    +0.168 A 
BRANCH  20  21
ATOM     21  C   UNL     1       1.075   2.711  27.802  0.00  0.00    +0.023 A 
ATOM     23  C   UNL     1       0.443   2.477  29.023  0.00  0.00    +0.057 A 
ATOM     24  C   UNL     1       2.450   2.946  27.762  0.00  0.00    +0.012 A 
ATOM     25  C   UNL     1       1.185   2.478  30.205  0.00  0.00    +0.118 A 
ATOM     26  C   UNL     1       3.191   2.947  28.944  0.00  0.00    +0.004 A 
ATOM     29  C   UNL     1       2.559   2.713  30.165  0.00  0.00    +0.045 A 
BRANCH  25   5
ATOM      5  O   UNL     1       0.567   2.250  31.396  0.00  0.00    -0.507 OA
ATOM     37  H   UNL     1       0.993   2.795  32.080  0.00  0.00    +0.292 HD
ENDBRANCH  25   5
ENDBRANCH  20  21
ENDBRANCH  15  17
ENDBRANCH  10  15
BRANCH  11  16
ATOM     16  C   UNL     1      -2.693  -1.548  24.271  0.00  0.00    +0.140 C 
BRANCH  16   7
ATOM      4  O   UNL     1       0.064  -1.546  25.051  0.00  0.00    -0.253 OA
ATOM      7  N   UNL     1      -1.596  -0.992  23.538  0.00  0.00    -0.297 N 
ATOM      9  N   UNL     1       0.585  -0.409  23.065  0.00  0.00    -0.269 N 
ATOM     19  C   UNL     1      -0.264  -1.028  23.986  0.00  0.00    +0.304 C 
ATOM     35  H   UNL     1      -1.798  -0.507  22.669  0.00  0.00    +0.150 HD
ATOM     36  H   UNL     1       0.150  -0.032  22.226  0.00  0.00    +0.156 HD
BRANCH   9  22
ATOM     22  C   UNL     1       1.987  -0.243  23.151  0.00  0.00    +0.035 A 
ATOM     27  C   UNL     1       2.784  -1.281  23.634  0.00  0.00    +0.027 A 
ATOM     28  C   UNL     1       2.572   0.960  22.753  0.00  0.00    +0.027 A 
ATOM     30  C   UNL     1       4.167  -1.117  23.717  0.00  0.00    +0.047 A 
ATOM     31  C   UNL     1       3.955   1.124  22.837  0.00  0.00    +0.047 A 
ATOM     32  C   UNL     1       4.752   0.085  23.319  0.00  0.00    +0.120 A 
BRANCH  32   6
ATOM      6  O   UNL     1       6.102   0.245  23.400  0.00  0.00    -0.495 OA
ATOM     33  C   UNL     1       6.912  -0.795  22.853  0.00  0.00    +0.277 C 
ENDBRANCH  32   6
ENDBRANCH   9  22
ENDBRANCH  16   7
ENDBRANCH  11  16
TORSDOF 9
ENDMDL
MODEL 4
REMARK VINA RESULT:       4.8      1.528      5.134
REMARK  Name = 75536374
REMARK  10 active torsions:
REMARK  status: ('A' for Active; 'I' for Inactive)
REMARK    1  A    between atoms: O_2  and  C_12
REMARK    2  A    between atoms: O_5  and  C_25
REMARK    3  A    between atoms: O_6  and  C_32
REMARK    4  A    between atoms: O_6  and  C_33
REMARK    5  A    between atoms: N_7  and  C_16
REMARK    6  A    between atoms: N_9  and  C_22
REMARK    7  A    between atoms: C_10  and  C_15
REMARK    8  A    between atoms: C_11  and  C_16
REMARK    9  A    between atoms: C_15  and  C_17
REMARK   10  A    between atoms: C_20  and  C_21
REMARK                            x       y       z     vdW  Elec       q    Type
REMARK                         _______ _______ _______ _____ _____    ______ ____
ROOT
ATOM      1  O   UNL     1      -4.180   1.504  23.594  0.00  0.00    -0.369 OA
ATOM     10  C   UNL     1      -3.576   0.906  24.744  0.00  0.00    +0.125 C 
ATOM     11  C   UNL     1      -4.993   2.655  23.862  0.00  0.00    +0.164 C 
ATOM     12  C   UNL     1      -6.088   2.338  24.889  0.00  0.00    +0.145 C 
ATOM     13  C   UNL     1      -4.642   0.468  25.747  0.00  0.00    +0.034 C 
ATOM     14  C   UNL     1      -5.535   1.644  26.132  0.00  0.00    +0.036 C 
ENDROOT
BRANCH  12   2
ATOM      2  O   UNL     1      -7.045   1.462  24.288  0.00  0.00    -0.389 OA
ATOM     34  H   UNL     1      -6.677   0.562  24.316  0.00  0.00    +0.210 HD
ENDBRANCH  12   2
BRANCH  10  15
ATOM     15  C   UNL     1      -2.758  -0.286  24.265  0.00  0.00    +0.090 C 
BRANCH  15  17
ATOM      3  O   UNL     1       0.229   1.350  23.086  0.00  0.00    -0.354 OA
ATOM      8  N   UNL     1      -1.142   1.302  23.305  0.00  0.00    -0.083 NA
ATOM     17  C   UNL     1      -1.360   0.116  23.879  0.00  0.00    +0.087 A 
ATOM     18  C   UNL     1      -0.175  -0.622  24.047  0.00  0.00    +0.076 A 
ATOM     20  C   UNL     1       0.794   0.197  23.532  0.00  0.00    +0.168 A 
BRANCH  20  21
ATOM     21  C   UNL     1       2.216   0.100  23.374  0.00  0.00    +0.023 A 
ATOM     23  C   UNL     1       2.883  -1.064  23.754  0.00  0.00    +0.057 A 
ATOM     24  C   UNL     1       2.932   1.172  22.841  0.00  0.00    +0.012 A 
ATOM     25  C   UNL     1       4.266  -1.157  23.602  0.00  0.00    +0.118 A 
ATOM     26  C   UNL     1       4.316   1.079  22.690  0.00  0.00    +0.004 A 
ATOM     29  C   UNL     1       4.983  -0.086  23.069  0.00  0.00    +0.045 A 
BRANCH  25   5
ATOM      5  O   UNL     1       4.917  -2.293  23.974  0.00  0.00    -0.507 OA
ATOM     37  H   UNL     1       5.844  -2.075  24.172  0.00  0.00    +0.292 HD
ENDBRANCH  25   5
ENDBRANCH  20  21
ENDBRANCH  15  17
ENDBRANCH  10  15
BRANCH  11  16
ATOM     16  C   UNL     1      -4.136   3.856  24.254  0.00  0.00    +0.140 C 
BRANCH  16   7
ATOM      4  O   UNL     1      -2.833   3.794  26.804  0.00  0.00    -0.253 OA
ATOM      7  N   UNL     1      -2.786   3.458  24.516  0.00  0.00    -0.297 N 
ATOM      9  N   UNL     1      -0.885   3.021  25.747  0.00  0.00    -0.269 N 
ATOM     19  C   UNL     1      -2.213   3.455  25.800  0.00  0.00    +0.304 C 
ATOM     35  H   UNL     1      -2.198   3.209  23.726  0.00  0.00    +0.150 HD
ATOM     36  H   UNL     1      -0.522   2.773  24.830  0.00  0.00    +0.156 HD
BRANCH   9  22
ATOM     22  C   UNL     1       0.025   2.879  26.821  0.00  0.00    +0.035 A 
ATOM     27  C   UNL     1       1.369   3.207  26.646  0.00  0.00    +0.027 A 
ATOM     28  C   UNL     1      -0.423   2.411  28.058  0.00  0.00    +0.027 A 
ATOM     30  C   UNL     1       2.265   3.069  27.706  0.00  0.00    +0.047 A 
ATOM     31  C   UNL     1       0.473   2.272  29.117  0.00  0.00    +0.047 A 
ATOM     32  C   UNL     1       1.817   2.602  28.941  0.00  0.00    +0.120 A 
BRANCH  32   6
ATOM      6  O   UNL     1       2.692   2.467  29.976  0.00  0.00    -0.495 OA
ATOM     33  C   UNL     1       2.288   1.633  31.061  0.00  0.00    +0.277 C 
ENDBRANCH  32   6
ENDBRANCH   9  22
ENDBRANCH  16   7
ENDBRANCH  11  16
TORSDOF 9
ENDMDL
