MODEL 1
REMARK VINA RESULT:      -4.8      0.000      0.000
REMARK  Name = 45783341
REMARK  9 active torsions:
REMARK  status: ('A' for Active; 'I' for Inactive)
REMARK    1  A    between atoms: O_2  and  C_24
REMARK    2  A    between atoms: O_2  and  C_26
REMARK    3  A    between atoms: O_3  and  C_27
REMARK    4  A    between atoms: O_3  and  C_28
REMARK    5  A    between atoms: N_4  and  C_12
REMARK    6  A    between atoms: C_8  and  C_13
REMARK    7  A    between atoms: C_12  and  C_14
REMARK    8  A    between atoms: C_17  and  C_20
REMARK    9  A    between atoms: C_26  and  C_27
REMARK                            x       y       z     vdW  Elec       q    Type
REMARK                         _______ _______ _______ _____ _____    ______ ____
ROOT
ATOM      1  O   UNL     1      -1.998   2.746  25.383  0.00  0.00    -0.336 OA
ATOM      5  N   UNL     1      -2.035   1.591  23.464  0.00  0.00    -0.190 NA
ATOM      6  N   UNL     1      -0.681   2.324  25.157  0.00  0.00    -0.056 NA
ATOM     13  C   UNL     1      -2.729   2.272  24.341  0.00  0.00    +0.245 A 
ATOM     17  C   UNL     1      -0.785   1.650  24.007  0.00  0.00    +0.202 A 
ENDROOT
BRANCH  17  20
ATOM      7  N   UNL     1       2.532  -0.200  22.148  0.00  0.00    -0.221 NA
ATOM     20  C   UNL     1       0.340   1.023  23.376  0.00  0.00    +0.029 A 
ATOM     22  C   UNL     1       1.614   1.557  23.531  0.00  0.00    +0.079 A 
ATOM     23  C   UNL     1       0.161  -0.121  22.607  0.00  0.00    +0.031 A 
ATOM     24  C   UNL     1       2.668   0.913  22.903  0.00  0.00    +0.215 A 
ATOM     25  C   UNL     1       1.279  -0.690  22.019  0.00  0.00    +0.115 A 
BRANCH  24   2
ATOM      2  O   UNL     1       3.934   1.420  23.041  0.00  0.00    -0.474 OA
BRANCH   2  26
ATOM     26  C   UNL     1       5.009   0.495  22.927  0.00  0.00    +0.258 C 
BRANCH  26  27
ATOM     27  C   UNL     1       5.707   0.380  24.268  0.00  0.00    +0.200 C 
BRANCH  27   3
ATOM      3  O   UNL     1       5.679  -0.976  24.693  0.00  0.00    -0.380 OA
ATOM     28  C   UNL     1       4.769  -1.746  23.920  0.00  0.00    +0.194 C 
ENDBRANCH  27   3
ENDBRANCH  26  27
ENDBRANCH   2  26
ENDBRANCH  24   2
ENDBRANCH  17  20
BRANCH  13   8
ATOM      4  N   UNL     1      -4.982   1.702  25.231  0.00  0.00    -0.287 NA
ATOM      8  C   UNL     1      -4.209   2.599  24.350  0.00  0.00    +0.146 C 
ATOM      9  C   UNL     1      -4.501   4.016  24.878  0.00  0.00    +0.030 C 
ATOM     10  C   UNL     1      -5.495   3.819  26.015  0.00  0.00    +0.017 C 
ATOM     11  C   UNL     1      -6.129   2.478  25.706  0.00  0.00    +0.085 C 
BRANCH   4  12
ATOM     12  C   UNL     1      -5.390   0.465  24.579  0.00  0.00    +0.120 C 
BRANCH  12  14
ATOM     14  C   UNL     1      -4.354  -0.617  24.729  0.00  0.00    -0.033 A 
ATOM     15  C   UNL     1      -3.426  -0.555  25.769  0.00  0.00    +0.005 A 
ATOM     16  C   UNL     1      -4.322  -1.679  23.826  0.00  0.00    +0.005 A 
ATOM     18  C   UNL     1      -2.466  -1.558  25.905  0.00  0.00    +0.000 A 
ATOM     19  C   UNL     1      -3.361  -2.681  23.963  0.00  0.00    +0.000 A 
ATOM     21  C   UNL     1      -2.434  -2.621  25.003  0.00  0.00    +0.000 A 
ENDBRANCH  12  14
ENDBRANCH   4  12
ENDBRANCH  13   8
TORSDOF 8
ENDMDL
MODEL 2
REMARK VINA RESULT:      -2.4      1.790      3.546
REMARK  Name = 45783341
REMARK  9 active torsions:
REMARK  status: ('A' for Active; 'I' for Inactive)
REMARK    1  A    between atoms: O_2  and  C_24
REMARK    2  A    between atoms: O_2  and  C_26
REMARK    3  A    between atoms: O_3  and  C_27
REMARK    4  A    between atoms: O_3  and  C_28
REMARK    5  A    between atoms: N_4  and  C_12
REMARK    6  A    between atoms: C_8  and  C_13
REMARK    7  A    between atoms: C_12  and  C_14
REMARK    8  A    between atoms: C_17  and  C_20
REMARK    9  A    between atoms: C_26  and  C_27
REMARK                            x       y       z     vdW  Elec       q    Type
REMARK                         _______ _______ _______ _____ _____    ______ ____
ROOT
ATOM      1  O   UNL     1      -2.198  -0.767  25.854  0.00  0.00    -0.336 OA
ATOM      5  N   UNL     1      -1.940   0.689  24.171  0.00  0.00    -0.190 NA
ATOM      6  N   UNL     1      -0.973  -1.081  25.251  0.00  0.00    -0.056 NA
ATOM     13  C   UNL     1      -2.701   0.285  25.157  0.00  0.00    +0.245 A 
ATOM     17  C   UNL     1      -0.892  -0.179  24.268  0.00  0.00    +0.202 A 
ENDROOT
BRANCH  17  20
ATOM      7  N   UNL     1       2.391  -0.003  21.608  0.00  0.00    -0.221 NA
ATOM     20  C   UNL     1       0.222  -0.119  23.366  0.00  0.00    +0.029 A 
ATOM     22  C   UNL     1       1.364   0.593  23.713  0.00  0.00    +0.079 A 
ATOM     23  C   UNL     1       0.162  -0.772  22.140  0.00  0.00    +0.031 A 
ATOM     24  C   UNL     1       2.412   0.620  22.807  0.00  0.00    +0.215 A 
ATOM     25  C   UNL     1       1.264  -0.685  21.305  0.00  0.00    +0.115 A 
BRANCH  24   2
ATOM      2  O   UNL     1       3.550   1.314  23.127  0.00  0.00    -0.474 OA
BRANCH   2  26
ATOM     26  C   UNL     1       4.788   0.641  22.929  0.00  0.00    +0.258 C 
BRANCH  26  27
ATOM     27  C   UNL     1       5.489   0.493  24.265  0.00  0.00    +0.200 C 
BRANCH  27   3
ATOM      3  O   UNL     1       5.655  -0.890  24.553  0.00  0.00    -0.380 OA
ATOM     28  C   UNL     1       4.667  -1.679  23.904  0.00  0.00    +0.194 C 
ENDBRANCH  27   3
ENDBRANCH  26  27
ENDBRANCH   2  26
ENDBRANCH  24   2
ENDBRANCH  17  20
BRANCH  13   8
ATOM      4  N   UNL     1      -4.238   2.240  25.260  0.00  0.00    -0.287 NA
ATOM      8  C   UNL     1      -4.041   0.822  25.618  0.00  0.00    +0.146 C 
ATOM      9  C   UNL     1      -5.230   0.086  24.974  0.00  0.00    +0.030 C 
ATOM     10  C   UNL     1      -6.072   1.178  24.329  0.00  0.00    +0.017 C 
ATOM     11  C   UNL     1      -5.680   2.427  25.092  0.00  0.00    +0.085 C 
BRANCH   4  12
ATOM     12  C   UNL     1      -3.676   3.164  26.236  0.00  0.00    +0.120 C 
BRANCH  12  14
ATOM     14  C   UNL     1      -2.421   3.822  25.728  0.00  0.00    -0.033 A 
ATOM     15  C   UNL     1      -2.475   5.111  25.197  0.00  0.00    +0.005 A 
ATOM     16  C   UNL     1      -1.204   3.143  25.789  0.00  0.00    +0.005 A 
ATOM     18  C   UNL     1      -1.311   5.720  24.726  0.00  0.00    +0.000 A 
ATOM     19  C   UNL     1      -0.041   3.751  25.317  0.00  0.00    +0.000 A 
ATOM     21  C   UNL     1      -0.094   5.040  24.787  0.00  0.00    +0.000 A 
ENDBRANCH  12  14
ENDBRANCH   4  12
ENDBRANCH  13   8
TORSDOF 8
ENDMDL
MODEL 3
REMARK VINA RESULT:      -1.1      2.163      3.884
REMARK  Name = 45783341
REMARK  9 active torsions:
REMARK  status: ('A' for Active; 'I' for Inactive)
REMARK    1  A    between atoms: O_2  and  C_24
REMARK    2  A    between atoms: O_2  and  C_26
REMARK    3  A    between atoms: O_3  and  C_27
REMARK    4  A    between atoms: O_3  and  C_28
REMARK    5  A    between atoms: N_4  and  C_12
REMARK    6  A    between atoms: C_8  and  C_13
REMARK    7  A    between atoms: C_12  and  C_14
REMARK    8  A    between atoms: C_17  and  C_20
REMARK    9  A    between atoms: C_26  and  C_27
REMARK                            x       y       z     vdW  Elec       q    Type
REMARK                         _______ _______ _______ _____ _____    ______ ____
ROOT
ATOM      1  O   UNL     1      -4.668  -0.253  24.572  0.00  0.00    -0.336 OA
ATOM      5  N   UNL     1      -2.853   0.793  25.366  0.00  0.00    -0.190 NA
ATOM      6  N   UNL     1      -3.567  -1.016  24.161  0.00  0.00    -0.056 NA
ATOM     13  C   UNL     1      -4.159   0.793  25.274  0.00  0.00    +0.245 A 
ATOM     17  C   UNL     1      -2.534  -0.335  24.668  0.00  0.00    +0.202 A 
ENDROOT
BRANCH  17  20
ATOM      7  N   UNL     1       1.477  -1.571  24.155  0.00  0.00    -0.221 NA
ATOM     20  C   UNL     1      -1.174  -0.754  24.494  0.00  0.00    +0.029 A 
ATOM     22  C   UNL     1      -0.347  -0.085  23.599  0.00  0.00    +0.079 A 
ATOM     23  C   UNL     1      -0.677  -1.832  25.218  0.00  0.00    +0.031 A 
ATOM     24  C   UNL     1       0.959  -0.528  23.468  0.00  0.00    +0.215 A 
ATOM     25  C   UNL     1       0.643  -2.197  25.015  0.00  0.00    +0.115 A 
BRANCH  24   2
ATOM      2  O   UNL     1       1.795   0.116  22.593  0.00  0.00    -0.474 OA
BRANCH   2  26
ATOM     26  C   UNL     1       3.176  -0.224  22.659  0.00  0.00    +0.258 C 
BRANCH  26  27
ATOM     27  C   UNL     1       3.991   1.046  22.801  0.00  0.00    +0.200 C 
BRANCH  27   3
ATOM      3  O   UNL     1       5.109   0.789  23.641  0.00  0.00    -0.380 OA
ATOM     28  C   UNL     1       5.217  -0.591  23.958  0.00  0.00    +0.194 C 
ENDBRANCH  27   3
ENDBRANCH  26  27
ENDBRANCH   2  26
ENDBRANCH  24   2
ENDBRANCH  17  20
BRANCH  13   8
ATOM      4  N   UNL     1      -4.808   3.181  25.534  0.00  0.00    -0.287 NA
ATOM      8  C   UNL     1      -5.161   1.780  25.836  0.00  0.00    +0.146 C 
ATOM      9  C   UNL     1      -6.572   1.595  25.247  0.00  0.00    +0.030 C 
ATOM     10  C   UNL     1      -6.952   2.960  24.690  0.00  0.00    +0.017 C 
ATOM     11  C   UNL     1      -6.071   3.919  25.464  0.00  0.00    +0.085 C 
BRANCH   4  12
ATOM     12  C   UNL     1      -3.886   3.764  26.500  0.00  0.00    +0.120 C 
BRANCH  12  14
ATOM     14  C   UNL     1      -2.545   4.064  25.885  0.00  0.00    -0.033 A 
ATOM     15  C   UNL     1      -2.322   5.295  25.267  0.00  0.00    +0.005 A 
ATOM     16  C   UNL     1      -1.528   3.112  25.934  0.00  0.00    +0.005 A 
ATOM     18  C   UNL     1      -1.079   5.572  24.697  0.00  0.00    +0.000 A 
ATOM     19  C   UNL     1      -0.285   3.390  25.364  0.00  0.00    +0.000 A 
ATOM     21  C   UNL     1      -0.060   4.620  24.746  0.00  0.00    +0.000 A 
ENDBRANCH  12  14
ENDBRANCH   4  12
ENDBRANCH  13   8
TORSDOF 8
ENDMDL
