MODEL 1
REMARK VINA RESULT:      -5.2      0.000      0.000
REMARK  Name = 75537101
REMARK  5 active torsions:
REMARK  status: ('A' for Active; 'I' for Inactive)
REMARK    1  A    between atoms: O_2  and  C_17
REMARK    2  A    between atoms: O_2  and  C_20
REMARK    3  A    between atoms: N_4  and  C_12
REMARK    4  A    between atoms: N_5  and  C_13
REMARK    5  A    between atoms: C_12  and  C_14
REMARK                            x       y       z     vdW  Elec       q    Type
REMARK                         _______ _______ _______ _____ _____    ______ ____
ROOT
ATOM      1  O   UNL     1       0.014   4.369  23.169  0.00  0.00    -0.252 OA
ATOM      3  N   UNL     1       0.035   2.429  24.494  0.00  0.00    -0.278 N 
ATOM      4  N   UNL     1      -0.076  -0.305  25.148  0.00  0.00    -0.295 NA
ATOM      5  N   UNL     1      -1.151   4.195  25.212  0.00  0.00    -0.287 N 
ATOM      6  C   UNL     1      -0.438   2.039  25.805  0.00  0.00    +0.109 C 
ATOM      7  C   UNL     1      -1.038   0.634  25.759  0.00  0.00    +0.109 C 
ATOM      8  C   UNL     1      -1.423   3.146  26.180  0.00  0.00    +0.132 C 
ATOM      9  C   UNL     1       0.867   1.514  23.740  0.00  0.00    +0.125 C 
ATOM     10  C   UNL     1       0.260   0.109  23.770  0.00  0.00    +0.104 C 
ATOM     11  C   UNL     1      -0.321   3.744  24.167  0.00  0.00    +0.305 C 
ATOM     13  C   UNL     1      -1.801   5.486  25.279  0.00  0.00    +0.133 C 
ENDROOT
BRANCH   4  12
ATOM     12  C   UNL     1      -0.617  -1.664  25.153  0.00  0.00    +0.119 C 
BRANCH  12  14
ATOM     14  C   UNL     1      -2.065  -1.692  24.742  0.00  0.00    -0.030 A 
ATOM     15  C   UNL     1      -2.821  -0.521  24.771  0.00  0.00    +0.050 A 
ATOM     16  C   UNL     1      -2.651  -2.890  24.331  0.00  0.00    +0.005 A 
ATOM     17  C   UNL     1      -4.164  -0.546  24.390  0.00  0.00    +0.120 A 
ATOM     18  C   UNL     1      -3.992  -2.916  23.951  0.00  0.00    +0.004 A 
ATOM     19  C   UNL     1      -4.748  -1.745  23.980  0.00  0.00    +0.045 A 
BRANCH  17   2
ATOM      2  O   UNL     1      -4.901   0.597  24.421  0.00  0.00    -0.495 OA
ATOM     20  C   UNL     1      -4.186   1.831  24.417  0.00  0.00    +0.277 C 
ENDBRANCH  17   2
ENDBRANCH  12  14
ENDBRANCH   4  12
TORSDOF 3
ENDMDL
MODEL 2
REMARK VINA RESULT:      -4.9      2.283      3.733
REMARK  Name = 75537101
REMARK  5 active torsions:
REMARK  status: ('A' for Active; 'I' for Inactive)
REMARK    1  A    between atoms: O_2  and  C_17
REMARK    2  A    between atoms: O_2  and  C_20
REMARK    3  A    between atoms: N_4  and  C_12
REMARK    4  A    between atoms: N_5  and  C_13
REMARK    5  A    between atoms: C_12  and  C_14
REMARK                            x       y       z     vdW  Elec       q    Type
REMARK                         _______ _______ _______ _____ _____    ______ ____
ROOT
ATOM      1  O   UNL     1      -3.079   5.019  26.691  0.00  0.00    -0.252 OA
ATOM      3  N   UNL     1      -3.848   3.362  25.214  0.00  0.00    -0.278 N 
ATOM      4  N   UNL     1      -5.003   0.946  24.349  0.00  0.00    -0.295 NA
ATOM      5  N   UNL     1      -1.849   4.301  24.811  0.00  0.00    -0.287 N 
ATOM      6  C   UNL     1      -3.431   2.797  23.947  0.00  0.00    +0.109 C 
ATOM      7  C   UNL     1      -3.620   1.281  23.953  0.00  0.00    +0.109 C 
ATOM      8  C   UNL     1      -1.983   3.264  23.802  0.00  0.00    +0.132 C 
ATOM      9  C   UNL     1      -5.130   2.982  25.771  0.00  0.00    +0.125 C 
ATOM     10  C   UNL     1      -5.302   1.462  25.701  0.00  0.00    +0.104 C 
ATOM     11  C   UNL     1      -2.945   4.319  25.696  0.00  0.00    +0.305 C 
ATOM     13  C   UNL     1      -0.644   5.092  24.940  0.00  0.00    +0.133 C 
ENDROOT
BRANCH   4  12
ATOM     12  C   UNL     1      -5.211  -0.501  24.299  0.00  0.00    +0.119 C 
BRANCH  12  14
ATOM     14  C   UNL     1      -3.913  -1.257  24.391  0.00  0.00    -0.030 A 
ATOM     15  C   UNL     1      -2.719  -0.569  24.607  0.00  0.00    +0.050 A 
ATOM     16  C   UNL     1      -3.904  -2.646  24.261  0.00  0.00    +0.005 A 
ATOM     17  C   UNL     1      -1.515  -1.270  24.691  0.00  0.00    +0.120 A 
ATOM     18  C   UNL     1      -2.701  -3.347  24.345  0.00  0.00    +0.004 A 
ATOM     19  C   UNL     1      -1.507  -2.659  24.561  0.00  0.00    +0.045 A 
BRANCH  17   2
ATOM      2  O   UNL     1      -0.350  -0.598  24.900  0.00  0.00    -0.495 OA
ATOM     20  C   UNL     1       0.110   0.246  23.846  0.00  0.00    +0.277 C 
ENDBRANCH  17   2
ENDBRANCH  12  14
ENDBRANCH   4  12
TORSDOF 3
ENDMDL
MODEL 3
REMARK VINA RESULT:      -4.7      2.639      5.391
REMARK  Name = 75537101
REMARK  5 active torsions:
REMARK  status: ('A' for Active; 'I' for Inactive)
REMARK    1  A    between atoms: O_2  and  C_17
REMARK    2  A    between atoms: O_2  and  C_20
REMARK    3  A    between atoms: N_4  and  C_12
REMARK    4  A    between atoms: N_5  and  C_13
REMARK    5  A    between atoms: C_12  and  C_14
REMARK                            x       y       z     vdW  Elec       q    Type
REMARK                         _______ _______ _______ _____ _____    ______ ____
ROOT
ATOM      1  O   UNL     1      -6.551   1.753  25.209  0.00  0.00    -0.252 OA
ATOM      3  N   UNL     1      -4.314   1.585  24.509  0.00  0.00    -0.278 N 
ATOM      4  N   UNL     1      -1.701   0.566  24.293  0.00  0.00    -0.295 NA
ATOM      5  N   UNL     1      -5.095   3.606  25.099  0.00  0.00    -0.287 N 
ATOM      6  C   UNL     1      -3.228   2.494  24.211  0.00  0.00    +0.109 C 
ATOM      7  C   UNL     1      -1.911   1.950  24.763  0.00  0.00    +0.109 C 
ATOM      8  C   UNL     1      -3.684   3.817  24.826  0.00  0.00    +0.132 C 
ATOM      9  C   UNL     1      -4.155   0.174  24.224  0.00  0.00    +0.125 C 
ATOM     10  C   UNL     1      -2.799  -0.315  24.741  0.00  0.00    +0.104 C 
ATOM     11  C   UNL     1      -5.459   2.251  24.966  0.00  0.00    +0.305 C 
ATOM     13  C   UNL     1      -5.947   4.666  25.593  0.00  0.00    +0.133 C 
ENDROOT
BRANCH   4  12
ATOM     12  C   UNL     1      -0.414   0.056  24.766  0.00  0.00    +0.119 C 
BRANCH  12  14
ATOM     14  C   UNL     1       0.617   0.034  23.669  0.00  0.00    -0.030 A 
ATOM     15  C   UNL     1       1.859   0.638  23.866  0.00  0.00    +0.050 A 
ATOM     16  C   UNL     1       0.331  -0.592  22.455  0.00  0.00    +0.005 A 
ATOM     17  C   UNL     1       2.815   0.617  22.850  0.00  0.00    +0.120 A 
ATOM     18  C   UNL     1       1.285  -0.612  21.439  0.00  0.00    +0.004 A 
ATOM     19  C   UNL     1       2.527  -0.008  21.636  0.00  0.00    +0.045 A 
BRANCH  17   2
ATOM      2  O   UNL     1       4.025   1.208  23.042  0.00  0.00    -0.495 OA
ATOM     20  C   UNL     1       5.111   0.358  23.407  0.00  0.00    +0.277 C 
ENDBRANCH  17   2
ENDBRANCH  12  14
ENDBRANCH   4  12
TORSDOF 3
ENDMDL
MODEL 4
REMARK VINA RESULT:      -4.6     17.848     19.758
REMARK  Name = 75537101
REMARK  5 active torsions:
REMARK  status: ('A' for Active; 'I' for Inactive)
REMARK    1  A    between atoms: O_2  and  C_17
REMARK    2  A    between atoms: O_2  and  C_20
REMARK    3  A    between atoms: N_4  and  C_12
REMARK    4  A    between atoms: N_5  and  C_13
REMARK    5  A    between atoms: C_12  and  C_14
REMARK                            x       y       z     vdW  Elec       q    Type
REMARK                         _______ _______ _______ _____ _____    ______ ____
ROOT
ATOM      1  O   UNL     1      17.403  -5.935  22.352  0.00  0.00    -0.252 OA
ATOM      3  N   UNL     1      17.273  -6.354  24.661  0.00  0.00    -0.278 N 
ATOM      4  N   UNL     1      16.464  -7.563  27.068  0.00  0.00    -0.295 NA
ATOM      5  N   UNL     1      17.230  -4.220  23.962  0.00  0.00    -0.287 N 
ATOM      6  C   UNL     1      17.290  -5.573  25.880  0.00  0.00    +0.109 C 
ATOM      7  C   UNL     1      16.261  -6.114  26.872  0.00  0.00    +0.109 C 
ATOM      8  C   UNL     1      17.030  -4.146  25.399  0.00  0.00    +0.132 C 
ATOM      9  C   UNL     1      17.317  -7.799  24.745  0.00  0.00    +0.125 C 
ATOM     10  C   UNL     1      16.315  -8.293  25.792  0.00  0.00    +0.104 C 
ATOM     11  C   UNL     1      17.317  -5.553  23.512  0.00  0.00    +0.305 C 
ATOM     13  C   UNL     1      17.186  -3.044  23.120  0.00  0.00    +0.133 C 
ENDROOT
BRANCH   4  12
ATOM     12  C   UNL     1      15.523  -8.080  28.062  0.00  0.00    +0.119 C 
BRANCH  12  14
ATOM     14  C   UNL     1      15.540  -7.262  29.326  0.00  0.00    -0.030 A 
ATOM     15  C   UNL     1      14.392  -6.581  29.731  0.00  0.00    +0.050 A 
ATOM     16  C   UNL     1      16.703  -7.185  30.093  0.00  0.00    +0.005 A 
ATOM     17  C   UNL     1      14.407  -5.823  30.903  0.00  0.00    +0.120 A 
ATOM     18  C   UNL     1      16.719  -6.428  31.263  0.00  0.00    +0.004 A 
ATOM     19  C   UNL     1      15.571  -5.747  31.668  0.00  0.00    +0.045 A 
BRANCH  17   2
ATOM      2  O   UNL     1      13.287  -5.157  31.296  0.00  0.00    -0.495 OA
ATOM     20  C   UNL     1      12.148  -5.947  31.634  0.00  0.00    +0.277 C 
ENDBRANCH  17   2
ENDBRANCH  12  14
ENDBRANCH   4  12
TORSDOF 3
ENDMDL
MODEL 5
REMARK VINA RESULT:      -4.4      2.284      5.808
REMARK  Name = 75537101
REMARK  5 active torsions:
REMARK  status: ('A' for Active; 'I' for Inactive)
REMARK    1  A    between atoms: O_2  and  C_17
REMARK    2  A    between atoms: O_2  and  C_20
REMARK    3  A    between atoms: N_4  and  C_12
REMARK    4  A    between atoms: N_5  and  C_13
REMARK    5  A    between atoms: C_12  and  C_14
REMARK                            x       y       z     vdW  Elec       q    Type
REMARK                         _______ _______ _______ _____ _____    ______ ____
ROOT
ATOM      1  O   UNL     1      -1.723  -3.417  23.545  0.00  0.00    -0.252 OA
ATOM      3  N   UNL     1      -2.878  -1.706  24.668  0.00  0.00    -0.278 N 
ATOM      4  N   UNL     1      -4.486   0.573  25.035  0.00  0.00    -0.295 NA
ATOM      5  N   UNL     1      -0.792  -2.198  25.337  0.00  0.00    -0.287 N 
ATOM      6  C   UNL     1      -2.669  -0.880  25.838  0.00  0.00    +0.109 C 
ATOM      7  C   UNL     1      -3.105   0.558  25.559  0.00  0.00    +0.109 C 
ATOM      8  C   UNL     1      -1.181  -1.052  26.141  0.00  0.00    +0.132 C 
ATOM      9  C   UNL     1      -4.154  -1.655  23.984  0.00  0.00    +0.125 C 
ATOM     10  C   UNL     1      -4.581  -0.199  23.779  0.00  0.00    +0.104 C 
ATOM     11  C   UNL     1      -1.792  -2.553  24.409  0.00  0.00    +0.305 C 
ATOM     13  C   UNL     1       0.533  -2.772  25.412  0.00  0.00    +0.133 C 
ENDROOT
BRANCH   4  12
ATOM     12  C   UNL     1      -4.935   1.949  24.821  0.00  0.00    +0.119 C 
BRANCH  12  14
ATOM     14  C   UNL     1      -3.814   2.938  25.001  0.00  0.00    -0.030 A 
ATOM     15  C   UNL     1      -2.573   2.700  24.411  0.00  0.00    +0.050 A 
ATOM     16  C   UNL     1      -4.017   4.093  25.757  0.00  0.00    +0.005 A 
ATOM     17  C   UNL     1      -1.534   3.616  24.578  0.00  0.00    +0.120 A 
ATOM     18  C   UNL     1      -2.979   5.008  25.924  0.00  0.00    +0.004 A 
ATOM     19  C   UNL     1      -1.738   4.770  25.334  0.00  0.00    +0.045 A 
BRANCH  17   2
ATOM      2  O   UNL     1      -0.322   3.382  24.004  0.00  0.00    -0.495 OA
ATOM     20  C   UNL     1       0.304   2.134  24.296  0.00  0.00    +0.277 C 
ENDBRANCH  17   2
ENDBRANCH  12  14
ENDBRANCH   4  12
TORSDOF 3
ENDMDL
MODEL 6
REMARK VINA RESULT:      -3.9     17.801     19.828
REMARK  Name = 75537101
REMARK  5 active torsions:
REMARK  status: ('A' for Active; 'I' for Inactive)
REMARK    1  A    between atoms: O_2  and  C_17
REMARK    2  A    between atoms: O_2  and  C_20
REMARK    3  A    between atoms: N_4  and  C_12
REMARK    4  A    between atoms: N_5  and  C_13
REMARK    5  A    between atoms: C_12  and  C_14
REMARK                            x       y       z     vdW  Elec       q    Type
REMARK                         _______ _______ _______ _____ _____    ______ ____
ROOT
ATOM      1  O   UNL     1      15.243  -9.297  25.356  0.00  0.00    -0.252 OA
ATOM      3  N   UNL     1      15.868  -9.196  27.618  0.00  0.00    -0.278 N 
ATOM      4  N   UNL     1      15.603  -9.226  30.419  0.00  0.00    -0.295 NA
ATOM      5  N   UNL     1      16.736  -7.682  26.207  0.00  0.00    -0.287 N 
ATOM      6  C   UNL     1      16.816  -8.455  28.422  0.00  0.00    +0.109 C 
ATOM      7  C   UNL     1      16.183  -8.044  29.750  0.00  0.00    +0.109 C 
ATOM      8  C   UNL     1      17.225  -7.292  27.518  0.00  0.00    +0.132 C 
ATOM      9  C   UNL     1      15.129 -10.287  28.221  0.00  0.00    +0.125 C 
ATOM     10  C   UNL     1      14.563  -9.851  29.575  0.00  0.00    +0.104 C 
ATOM     11  C   UNL     1      15.872  -8.792  26.277  0.00  0.00    +0.305 C 
ATOM     13  C   UNL     1      17.012  -6.898  25.022  0.00  0.00    +0.133 C 
ENDROOT
BRANCH   4  12
ATOM     12  C   UNL     1      15.046  -8.854  31.720  0.00  0.00    +0.119 C 
BRANCH  12  14
ATOM     14  C   UNL     1      14.052  -7.729  31.603  0.00  0.00    -0.030 A 
ATOM     15  C   UNL     1      14.436  -6.424  31.914  0.00  0.00    +0.050 A 
ATOM     16  C   UNL     1      12.748  -7.991  31.183  0.00  0.00    +0.005 A 
ATOM     17  C   UNL     1      13.515  -5.381  31.806  0.00  0.00    +0.120 A 
ATOM     18  C   UNL     1      11.828  -6.949  31.076  0.00  0.00    +0.004 A 
ATOM     19  C   UNL     1      12.211  -5.645  31.387  0.00  0.00    +0.045 A 
BRANCH  17   2
ATOM      2  O   UNL     1      13.889  -4.109  32.111  0.00  0.00    -0.495 OA
ATOM     20  C   UNL     1      15.193  -3.700  31.701  0.00  0.00    +0.277 C 
ENDBRANCH  17   2
ENDBRANCH  12  14
ENDBRANCH   4  12
TORSDOF 3
ENDMDL
MODEL 7
REMARK VINA RESULT:      -3.8      2.214      5.296
REMARK  Name = 75537101
REMARK  5 active torsions:
REMARK  status: ('A' for Active; 'I' for Inactive)
REMARK    1  A    between atoms: O_2  and  C_17
REMARK    2  A    between atoms: O_2  and  C_20
REMARK    3  A    between atoms: N_4  and  C_12
REMARK    4  A    between atoms: N_5  and  C_13
REMARK    5  A    between atoms: C_12  and  C_14
REMARK                            x       y       z     vdW  Elec       q    Type
REMARK                         _______ _______ _______ _____ _____    ______ ____
ROOT
ATOM      1  O   UNL     1      -0.669  -2.863  25.326  0.00  0.00    -0.252 OA
ATOM      3  N   UNL     1      -1.184  -0.912  24.123  0.00  0.00    -0.278 N 
ATOM      4  N   UNL     1      -1.171   1.807  23.400  0.00  0.00    -0.295 NA
ATOM      5  N   UNL     1      -2.855  -2.327  24.621  0.00  0.00    -0.287 N 
ATOM      6  C   UNL     1      -2.341  -0.358  23.451  0.00  0.00    +0.109 C 
ATOM      7  C   UNL     1      -2.449   1.141  23.725  0.00  0.00    +0.109 C 
ATOM      8  C   UNL     1      -3.504  -1.194  23.982  0.00  0.00    +0.132 C 
ATOM      9  C   UNL     1       0.096  -0.248  23.992  0.00  0.00    +0.125 C 
ATOM     10  C   UNL     1      -0.069   1.258  24.216  0.00  0.00    +0.104 C 
ATOM     11  C   UNL     1      -1.467  -2.128  24.758  0.00  0.00    +0.305 C 
ATOM     13  C   UNL     1      -3.610  -3.432  25.169  0.00  0.00    +0.133 C 
ENDROOT
BRANCH   4  12
ATOM     12  C   UNL     1      -1.283   3.251  23.602  0.00  0.00    +0.119 C 
BRANCH  12  14
ATOM     14  C   UNL     1      -2.314   3.593  24.645  0.00  0.00    -0.030 A 
ATOM     15  C   UNL     1      -3.645   3.218  24.459  0.00  0.00    +0.050 A 
ATOM     16  C   UNL     1      -1.939   4.284  25.797  0.00  0.00    +0.005 A 
ATOM     17  C   UNL     1      -4.601   3.534  25.425  0.00  0.00    +0.120 A 
ATOM     18  C   UNL     1      -2.894   4.600  26.763  0.00  0.00    +0.004 A 
ATOM     19  C   UNL     1      -4.224   4.225  26.577  0.00  0.00    +0.045 A 
BRANCH  17   2
ATOM      2  O   UNL     1      -5.899   3.170  25.242  0.00  0.00    -0.495 OA
ATOM     20  C   UNL     1      -6.160   1.783  25.033  0.00  0.00    +0.277 C 
ENDBRANCH  17   2
ENDBRANCH  12  14
ENDBRANCH   4  12
TORSDOF 3
ENDMDL
MODEL 8
REMARK VINA RESULT:      -3.7     17.768     19.585
REMARK  Name = 75537101
REMARK  5 active torsions:
REMARK  status: ('A' for Active; 'I' for Inactive)
REMARK    1  A    between atoms: O_2  and  C_17
REMARK    2  A    between atoms: O_2  and  C_20
REMARK    3  A    between atoms: N_4  and  C_12
REMARK    4  A    between atoms: N_5  and  C_13
REMARK    5  A    between atoms: C_12  and  C_14
REMARK                            x       y       z     vdW  Elec       q    Type
REMARK                         _______ _______ _______ _____ _____    ______ ____
ROOT
ATOM      1  O   UNL     1      16.332  -8.055  25.418  0.00  0.00    -0.252 OA
ATOM      3  N   UNL     1      16.807  -7.356  27.611  0.00  0.00    -0.278 N 
ATOM      4  N   UNL     1      16.480  -7.000  30.382  0.00  0.00    -0.295 NA
ATOM      5  N   UNL     1      17.128  -5.896  25.935  0.00  0.00    -0.287 N 
ATOM      6  C   UNL     1      17.405  -6.201  28.246  0.00  0.00    +0.109 C 
ATOM      7  C   UNL     1      16.625  -5.822  29.504  0.00  0.00    +0.109 C 
ATOM      8  C   UNL     1      17.405  -5.141  27.146  0.00  0.00    +0.132 C 
ATOM      9  C   UNL     1      16.484  -8.518  28.413  0.00  0.00    +0.125 C 
ATOM     10  C   UNL     1      15.757  -8.087  29.690  0.00  0.00    +0.104 C 
ATOM     11  C   UNL     1      16.711  -7.212  26.220  0.00  0.00    +0.305 C 
ATOM     13  C   UNL     1      17.146  -5.279  24.627  0.00  0.00    +0.133 C 
ENDROOT
BRANCH   4  12
ATOM     12  C   UNL     1      15.787  -6.634  31.617  0.00  0.00    +0.119 C 
BRANCH  12  14
ATOM     14  C   UNL     1      14.306  -6.890  31.525  0.00  0.00    -0.030 A 
ATOM     15  C   UNL     1      13.754  -8.017  32.134  0.00  0.00    +0.050 A 
ATOM     16  C   UNL     1      13.485  -6.001  30.830  0.00  0.00    +0.005 A 
ATOM     17  C   UNL     1      12.382  -8.256  32.049  0.00  0.00    +0.120 A 
ATOM     18  C   UNL     1      12.114  -6.239  30.745  0.00  0.00    +0.004 A 
ATOM     19  C   UNL     1      11.563  -7.366  31.354  0.00  0.00    +0.045 A 
BRANCH  17   2
ATOM      2  O   UNL     1      11.845  -9.356  32.642  0.00  0.00    -0.495 OA
ATOM     20  C   UNL     1      10.540  -9.750  32.218  0.00  0.00    +0.277 C 
ENDBRANCH  17   2
ENDBRANCH  12  14
ENDBRANCH   4  12
TORSDOF 3
ENDMDL
MODEL 9
REMARK VINA RESULT:      -3.6      2.301      4.362
REMARK  Name = 75537101
REMARK  5 active torsions:
REMARK  status: ('A' for Active; 'I' for Inactive)
REMARK    1  A    between atoms: O_2  and  C_17
REMARK    2  A    between atoms: O_2  and  C_20
REMARK    3  A    between atoms: N_4  and  C_12
REMARK    4  A    between atoms: N_5  and  C_13
REMARK    5  A    between atoms: C_12  and  C_14
REMARK                            x       y       z     vdW  Elec       q    Type
REMARK                         _______ _______ _______ _____ _____    ______ ____
ROOT
ATOM      1  O   UNL     1       2.204  -1.371  23.156  0.00  0.00    -0.252 OA
ATOM      3  N   UNL     1       0.268  -0.481  24.147  0.00  0.00    -0.278 N 
ATOM      4  N   UNL     1      -2.463  -0.134  24.725  0.00  0.00    -0.295 NA
ATOM      5  N   UNL     1       1.844   0.945  23.423  0.00  0.00    -0.287 N 
ATOM      6  C   UNL     1      -0.201   0.822  24.569  0.00  0.00    +0.109 C 
ATOM      7  C   UNL     1      -1.674   1.001  24.206  0.00  0.00    +0.109 C 
ATOM      8  C   UNL     1       0.755   1.793  23.876  0.00  0.00    +0.132 C 
ATOM      9  C   UNL     1      -0.513  -1.656  24.477  0.00  0.00    +0.125 C 
ATOM     10  C   UNL     1      -1.989  -1.411  24.153  0.00  0.00    +0.104 C 
ATOM     11  C   UNL     1       1.526  -0.423  23.532  0.00  0.00    +0.305 C 
ATOM     13  C   UNL     1       3.032   1.490  22.802  0.00  0.00    +0.133 C 
ENDROOT
BRANCH   4  12
ATOM     12  C   UNL     1      -3.884   0.057  24.435  0.00  0.00    +0.119 C 
BRANCH  12  14
ATOM     14  C   UNL     1      -4.374   1.402  24.901  0.00  0.00    -0.030 A 
ATOM     15  C   UNL     1      -3.459   2.398  25.244  0.00  0.00    +0.050 A 
ATOM     16  C   UNL     1      -5.744   1.654  24.990  0.00  0.00    +0.005 A 
ATOM     17  C   UNL     1      -3.913   3.645  25.676  0.00  0.00    +0.120 A 
ATOM     18  C   UNL     1      -6.198   2.899  25.422  0.00  0.00    +0.004 A 
ATOM     19  C   UNL     1      -5.283   3.894  25.765  0.00  0.00    +0.045 A 
BRANCH  17   2
ATOM      2  O   UNL     1      -3.020   4.614  26.012  0.00  0.00    -0.495 OA
ATOM     20  C   UNL     1      -1.817   4.682  25.248  0.00  0.00    +0.277 C 
ENDBRANCH  17   2
ENDBRANCH  12  14
ENDBRANCH   4  12
TORSDOF 3
ENDMDL
MODEL 10
REMARK VINA RESULT:      -2.7      2.314      4.494
REMARK  Name = 75537101
REMARK  5 active torsions:
REMARK  status: ('A' for Active; 'I' for Inactive)
REMARK    1  A    between atoms: O_2  and  C_17
REMARK    2  A    between atoms: O_2  and  C_20
REMARK    3  A    between atoms: N_4  and  C_12
REMARK    4  A    between atoms: N_5  and  C_13
REMARK    5  A    between atoms: C_12  and  C_14
REMARK                            x       y       z     vdW  Elec       q    Type
REMARK                         _______ _______ _______ _____ _____    ______ ____
ROOT
ATOM      1  O   UNL     1       1.424  -0.888  21.319  0.00  0.00    -0.252 OA
ATOM      3  N   UNL     1       0.678   0.394  23.140  0.00  0.00    -0.278 N 
ATOM      4  N   UNL     1      -0.997   2.061  24.666  0.00  0.00    -0.295 NA
ATOM      5  N   UNL     1       2.823   0.591  22.509  0.00  0.00    -0.287 N 
ATOM      6  C   UNL     1       1.270   1.264  24.134  0.00  0.00    +0.109 C 
ATOM      7  C   UNL     1       0.384   2.488  24.365  0.00  0.00    +0.109 C 
ATOM      8  C   UNL     1       2.655   1.571  23.568  0.00  0.00    +0.132 C 
ATOM      9  C   UNL     1      -0.720   0.031  23.259  0.00  0.00    +0.125 C 
ATOM     10  C   UNL     1      -1.561   1.277  23.549  0.00  0.00    +0.104 C 
ATOM     11  C   UNL     1       1.617  -0.074  22.212  0.00  0.00    +0.305 C 
ATOM     13  C   UNL     1       4.063   0.462  21.774  0.00  0.00    +0.133 C 
ENDROOT
BRANCH   4  12
ATOM     12  C   UNL     1      -1.840   3.224  24.948  0.00  0.00    +0.119 C 
BRANCH  12  14
ATOM     14  C   UNL     1      -3.291   2.845  25.079  0.00  0.00    -0.030 A 
ATOM     15  C   UNL     1      -3.707   1.555  24.752  0.00  0.00    +0.050 A 
ATOM     16  C   UNL     1      -4.219   3.784  25.528  0.00  0.00    +0.005 A 
ATOM     17  C   UNL     1      -5.052   1.203  24.873  0.00  0.00    +0.120 A 
ATOM     18  C   UNL     1      -5.563   3.434  25.649  0.00  0.00    +0.004 A 
ATOM     19  C   UNL     1      -5.980   2.144  25.322  0.00  0.00    +0.045 A 
BRANCH  17   2
ATOM      2  O   UNL     1      -5.458  -0.055  24.552  0.00  0.00    -0.495 OA
ATOM     20  C   UNL     1      -4.439  -1.023  24.308  0.00  0.00    +0.277 C 
ENDBRANCH  17   2
ENDBRANCH  12  14
ENDBRANCH   4  12
TORSDOF 3
ENDMDL
