MODEL 1
REMARK VINA RESULT:      -7.3      0.000      0.000
REMARK  Name = 75536911
REMARK  3 active torsions:
REMARK  status: ('A' for Active; 'I' for Inactive)
REMARK    1  A    between atoms: O_2  and  C_10
REMARK    2  A    between atoms: O_2  and  C_13
REMARK    3  A    between atoms: N_3  and  C_4
REMARK                            x       y       z     vdW  Elec       q    Type
REMARK                         _______ _______ _______ _____ _____    ______ ____
ROOT
ATOM      1  O   UNL     1      -0.030   3.495  24.931  0.00  0.00    -0.375 OA
ATOM      3  N   UNL     1      -2.991   3.423  25.329  0.00  0.00    -0.294 NA
ATOM      8  C   UNL     1      -2.512   2.066  25.030  0.00  0.00    +0.131 C 
ATOM      9  C   UNL     1      -2.272   4.420  24.515  0.00  0.00    +0.113 C 
ATOM     10  C   UNL     1      -1.310   1.633  25.877  0.00  0.00    +0.213 C 
ATOM     11  C   UNL     1      -0.838   4.669  24.976  0.00  0.00    +0.175 C 
ATOM     12  C   UNL     1      -0.207   2.667  26.078  0.00  0.00    +0.205 C 
ENDROOT
BRANCH   3   4
ATOM      4  C   UNL     1      -4.426   3.501  24.982  0.00  0.00    +0.057 C 
ATOM      5  C   UNL     1      -5.262   2.914  26.138  0.00  0.00    +0.019 C 
ATOM      6  C   UNL     1      -4.820   2.256  24.161  0.00  0.00    +0.019 C 
ATOM      7  C   UNL     1      -6.078   2.172  25.055  0.00  0.00    +0.003 C 
ENDBRANCH   3   4
BRANCH  10   2
ATOM      2  O   UNL     1      -0.721   0.494  25.240  0.00  0.00    -0.485 OA
BRANCH   2  13
ATOM     13  C   UNL     1      -1.528  -0.596  25.078  0.00  0.00    +0.121 A 
ATOM     14  C   UNL     1      -2.805  -0.609  25.637  0.00  0.00    +0.045 A 
ATOM     15  C   UNL     1      -1.074  -1.697  24.350  0.00  0.00    +0.045 A 
ATOM     16  C   UNL     1      -3.629  -1.722  25.471  0.00  0.00    +0.004 A 
ATOM     17  C   UNL     1      -1.899  -2.810  24.183  0.00  0.00    +0.004 A 
ATOM     18  C   UNL     1      -3.176  -2.822  24.743  0.00  0.00    +0.000 A 
ENDBRANCH   2  13
ENDBRANCH  10   2
TORSDOF 3
ENDMDL
MODEL 2
REMARK VINA RESULT:      -7.0      1.658      4.582
REMARK  Name = 75536911
REMARK  3 active torsions:
REMARK  status: ('A' for Active; 'I' for Inactive)
REMARK    1  A    between atoms: O_2  and  C_10
REMARK    2  A    between atoms: O_2  and  C_13
REMARK    3  A    between atoms: N_3  and  C_4
REMARK                            x       y       z     vdW  Elec       q    Type
REMARK                         _______ _______ _______ _____ _____    ______ ____
ROOT
ATOM      1  O   UNL     1      -0.774   2.933  24.868  0.00  0.00    -0.375 OA
ATOM      3  N   UNL     1      -1.220  -0.021  24.927  0.00  0.00    -0.294 NA
ATOM      8  C   UNL     1      -2.365   0.626  24.272  0.00  0.00    +0.131 C 
ATOM      9  C   UNL     1      -0.749   0.786  26.068  0.00  0.00    +0.113 C 
ATOM     10  C   UNL     1      -1.969   1.624  23.178  0.00  0.00    +0.213 C 
ATOM     11  C   UNL     1       0.011   2.044  25.658  0.00  0.00    +0.175 C 
ATOM     12  C   UNL     1      -0.806   2.558  23.493  0.00  0.00    +0.205 C 
ENDROOT
BRANCH   3   4
ATOM      4  C   UNL     1      -1.656  -1.334  25.447  0.00  0.00    +0.057 C 
ATOM      5  C   UNL     1      -1.983  -2.268  24.263  0.00  0.00    +0.019 C 
ATOM      6  C   UNL     1      -3.171  -1.289  25.736  0.00  0.00    +0.019 C 
ATOM      7  C   UNL     1      -3.256  -2.668  25.044  0.00  0.00    +0.003 C 
ENDBRANCH   3   4
BRANCH  10   2
ATOM      2  O   UNL     1      -3.114   2.439  22.903  0.00  0.00    -0.485 OA
BRANCH   2  13
ATOM     13  C   UNL     1      -4.017   2.579  23.918  0.00  0.00    +0.121 A 
ATOM     14  C   UNL     1      -4.899   1.541  24.217  0.00  0.00    +0.045 A 
ATOM     15  C   UNL     1      -4.057   3.762  24.657  0.00  0.00    +0.045 A 
ATOM     16  C   UNL     1      -5.820   1.684  25.254  0.00  0.00    +0.004 A 
ATOM     17  C   UNL     1      -4.978   3.905  25.695  0.00  0.00    +0.004 A 
ATOM     18  C   UNL     1      -5.860   2.866  25.993  0.00  0.00    +0.000 A 
ENDBRANCH   2  13
ENDBRANCH  10   2
TORSDOF 3
ENDMDL
MODEL 3
REMARK VINA RESULT:      -5.9      3.514      5.173
REMARK  Name = 75536911
REMARK  3 active torsions:
REMARK  status: ('A' for Active; 'I' for Inactive)
REMARK    1  A    between atoms: O_2  and  C_10
REMARK    2  A    between atoms: O_2  and  C_13
REMARK    3  A    between atoms: N_3  and  C_4
REMARK                            x       y       z     vdW  Elec       q    Type
REMARK                         _______ _______ _______ _____ _____    ______ ____
ROOT
ATOM      1  O   UNL     1      -0.989   2.196  23.219  0.00  0.00    -0.375 OA
ATOM      3  N   UNL     1      -1.891  -0.103  24.901  0.00  0.00    -0.294 NA
ATOM      8  C   UNL     1      -0.804  -0.550  24.018  0.00  0.00    +0.131 C 
ATOM      9  C   UNL     1      -2.788   0.829  24.193  0.00  0.00    +0.113 C 
ATOM     10  C   UNL     1       0.423   0.368  24.035  0.00  0.00    +0.213 C 
ATOM     11  C   UNL     1      -2.189   2.218  23.987  0.00  0.00    +0.175 C 
ATOM     12  C   UNL     1       0.155   1.869  24.004  0.00  0.00    +0.205 C 
ENDROOT
BRANCH   3   4
ATOM      4  C   UNL     1      -2.686  -1.283  25.302  0.00  0.00    +0.057 C 
ATOM      5  C   UNL     1      -2.268  -2.494  24.441  0.00  0.00    +0.019 C 
ATOM      6  C   UNL     1      -4.020  -1.285  24.526  0.00  0.00    +0.019 C 
ATOM      7  C   UNL     1      -3.777  -2.792  24.283  0.00  0.00    +0.003 C 
ENDBRANCH   3   4
BRANCH  10   2
ATOM      2  O   UNL     1       1.216   0.049  22.885  0.00  0.00    -0.485 OA
BRANCH   2  13
ATOM     13  C   UNL     1       2.564  -0.046  23.085  0.00  0.00    +0.121 A 
ATOM     14  C   UNL     1       3.393   1.032  22.776  0.00  0.00    +0.045 A 
ATOM     15  C   UNL     1       3.111  -1.222  23.599  0.00  0.00    +0.045 A 
ATOM     16  C   UNL     1       4.769   0.935  22.980  0.00  0.00    +0.004 A 
ATOM     17  C   UNL     1       4.487  -1.319  23.803  0.00  0.00    +0.004 A 
ATOM     18  C   UNL     1       5.316  -0.241  23.494  0.00  0.00    +0.000 A 
ENDBRANCH   2  13
ENDBRANCH  10   2
TORSDOF 3
ENDMDL
MODEL 4
REMARK VINA RESULT:      -5.6      1.395      2.016
REMARK  Name = 75536911
REMARK  3 active torsions:
REMARK  status: ('A' for Active; 'I' for Inactive)
REMARK    1  A    between atoms: O_2  and  C_10
REMARK    2  A    between atoms: O_2  and  C_13
REMARK    3  A    between atoms: N_3  and  C_4
REMARK                            x       y       z     vdW  Elec       q    Type
REMARK                         _______ _______ _______ _____ _____    ______ ____
ROOT
ATOM      1  O   UNL     1      -1.086   0.799  23.092  0.00  0.00    -0.375 OA
ATOM      3  N   UNL     1      -2.302   3.093  24.573  0.00  0.00    -0.294 NA
ATOM      8  C   UNL     1      -2.125   1.964  25.497  0.00  0.00    +0.131 C 
ATOM      9  C   UNL     1      -2.737   2.617  23.247  0.00  0.00    +0.113 C 
ATOM     10  C   UNL     1      -0.724   1.343  25.454  0.00  0.00    +0.213 C 
ATOM     11  C   UNL     1      -1.627   1.946  22.442  0.00  0.00    +0.175 C 
ATOM     12  C   UNL     1      -0.108   1.139  24.073  0.00  0.00    +0.205 C 
ENDROOT
BRANCH   3   4
ATOM      4  C   UNL     1      -3.360   3.976  25.109  0.00  0.00    +0.057 C 
ATOM      5  C   UNL     1      -4.162   3.214  26.185  0.00  0.00    +0.019 C 
ATOM      6  C   UNL     1      -4.610   3.876  24.209  0.00  0.00    +0.019 C 
ATOM      7  C   UNL     1      -5.433   3.783  25.514  0.00  0.00    +0.003 C 
ENDBRANCH   3   4
BRANCH  10   2
ATOM      2  O   UNL     1      -0.800   0.060  26.085  0.00  0.00    -0.485 OA
BRANCH   2  13
ATOM     13  C   UNL     1      -1.681  -0.832  25.542  0.00  0.00    +0.121 A 
ATOM     14  C   UNL     1      -1.210  -1.982  24.909  0.00  0.00    +0.045 A 
ATOM     15  C   UNL     1      -3.053  -0.592  25.622  0.00  0.00    +0.045 A 
ATOM     16  C   UNL     1      -2.109  -2.891  24.355  0.00  0.00    +0.004 A 
ATOM     17  C   UNL     1      -3.953  -1.503  25.068  0.00  0.00    +0.004 A 
ATOM     18  C   UNL     1      -3.481  -2.653  24.435  0.00  0.00    +0.000 A 
ENDBRANCH   2  13
ENDBRANCH  10   2
TORSDOF 3
ENDMDL
MODEL 5
REMARK VINA RESULT:      -5.1      2.086      3.095
REMARK  Name = 75536911
REMARK  3 active torsions:
REMARK  status: ('A' for Active; 'I' for Inactive)
REMARK    1  A    between atoms: O_2  and  C_10
REMARK    2  A    between atoms: O_2  and  C_13
REMARK    3  A    between atoms: N_3  and  C_4
REMARK                            x       y       z     vdW  Elec       q    Type
REMARK                         _______ _______ _______ _____ _____    ______ ____
ROOT
ATOM      1  O   UNL     1      -0.944  -0.222  23.582  0.00  0.00    -0.375 OA
ATOM      3  N   UNL     1      -0.392   2.235  25.192  0.00  0.00    -0.294 NA
ATOM      8  C   UNL     1      -1.230   1.320  25.980  0.00  0.00    +0.131 C 
ATOM      9  C   UNL     1      -0.804   2.227  23.776  0.00  0.00    +0.113 C 
ATOM     10  C   UNL     1      -0.708  -0.120  26.019  0.00  0.00    +0.213 C 
ATOM     11  C   UNL     1      -0.388   0.965  23.023  0.00  0.00    +0.175 C 
ATOM     12  C   UNL     1      -0.201  -0.699  24.702  0.00  0.00    +0.205 C 
ENDROOT
BRANCH   3   4
ATOM      4  C   UNL     1      -0.576   3.606  25.711  0.00  0.00    +0.057 C 
ATOM      5  C   UNL     1      -2.085   3.924  25.786  0.00  0.00    +0.019 C 
ATOM      6  C   UNL     1      -0.498   4.609  24.540  0.00  0.00    +0.019 C 
ATOM      7  C   UNL     1      -1.738   5.293  25.157  0.00  0.00    +0.003 C 
ENDBRANCH   3   4
BRANCH  10   2
ATOM      2  O   UNL     1      -1.780  -0.956  26.471  0.00  0.00    -0.485 OA
BRANCH   2  13
ATOM     13  C   UNL     1      -2.723  -1.289  25.542  0.00  0.00    +0.121 A 
ATOM     14  C   UNL     1      -3.651  -0.339  25.116  0.00  0.00    +0.045 A 
ATOM     15  C   UNL     1      -2.758  -2.581  25.017  0.00  0.00    +0.045 A 
ATOM     16  C   UNL     1      -4.614  -0.680  24.167  0.00  0.00    +0.004 A 
ATOM     17  C   UNL     1      -3.721  -2.922  24.067  0.00  0.00    +0.004 A 
ATOM     18  C   UNL     1      -4.649  -1.972  23.642  0.00  0.00    +0.000 A 
ENDBRANCH   2  13
ENDBRANCH  10   2
TORSDOF 3
ENDMDL
MODEL 6
REMARK VINA RESULT:      -5.0      2.032      3.607
REMARK  Name = 75536911
REMARK  3 active torsions:
REMARK  status: ('A' for Active; 'I' for Inactive)
REMARK    1  A    between atoms: O_2  and  C_10
REMARK    2  A    between atoms: O_2  and  C_13
REMARK    3  A    between atoms: N_3  and  C_4
REMARK                            x       y       z     vdW  Elec       q    Type
REMARK                         _______ _______ _______ _____ _____    ______ ____
ROOT
ATOM      1  O   UNL     1      -3.293   4.216  24.819  0.00  0.00    -0.375 OA
ATOM      3  N   UNL     1      -3.994   1.352  25.304  0.00  0.00    -0.294 NA
ATOM      8  C   UNL     1      -2.612   1.433  24.810  0.00  0.00    +0.131 C 
ATOM      9  C   UNL     1      -4.854   2.326  24.607  0.00  0.00    +0.113 C 
ATOM     10  C   UNL     1      -1.749   2.460  25.550  0.00  0.00    +0.213 C 
ATOM     11  C   UNL     1      -4.627   3.770  25.048  0.00  0.00    +0.175 C 
ATOM     12  C   UNL     1      -2.397   3.808  25.850  0.00  0.00    +0.205 C 
ENDROOT
BRANCH   3   4
ATOM      4  C   UNL     1      -4.516  -0.001  25.020  0.00  0.00    +0.057 C 
ATOM      5  C   UNL     1      -3.637  -1.048  25.737  0.00  0.00    +0.019 C 
ATOM      6  C   UNL     1      -3.914  -0.511  23.693  0.00  0.00    +0.019 C 
ATOM      7  C   UNL     1      -3.676  -1.855  24.419  0.00  0.00    +0.003 C 
ENDBRANCH   3   4
BRANCH  10   2
ATOM      2  O   UNL     1      -0.590   2.710  24.746  0.00  0.00    -0.485 OA
BRANCH   2  13
ATOM     13  C   UNL     1       0.044   1.612  24.239  0.00  0.00    +0.121 A 
ATOM     14  C   UNL     1       1.261   1.753  23.573  0.00  0.00    +0.045 A 
ATOM     15  C   UNL     1      -0.526   0.347  24.389  0.00  0.00    +0.045 A 
ATOM     16  C   UNL     1       1.908   0.632  23.055  0.00  0.00    +0.004 A 
ATOM     17  C   UNL     1       0.122  -0.775  23.871  0.00  0.00    +0.004 A 
ATOM     18  C   UNL     1       1.339  -0.633  23.205  0.00  0.00    +0.000 A 
ENDBRANCH   2  13
ENDBRANCH  10   2
TORSDOF 3
ENDMDL
MODEL 7
REMARK VINA RESULT:      -4.9      1.978      5.121
REMARK  Name = 75536911
REMARK  3 active torsions:
REMARK  status: ('A' for Active; 'I' for Inactive)
REMARK    1  A    between atoms: O_2  and  C_10
REMARK    2  A    between atoms: O_2  and  C_13
REMARK    3  A    between atoms: N_3  and  C_4
REMARK                            x       y       z     vdW  Elec       q    Type
REMARK                         _______ _______ _______ _____ _____    ______ ____
ROOT
ATOM      1  O   UNL     1      -3.008   2.682  23.024  0.00  0.00    -0.375 OA
ATOM      3  N   UNL     1      -4.257   0.261  24.253  0.00  0.00    -0.294 NA
ATOM      8  C   UNL     1      -4.025   1.267  25.299  0.00  0.00    +0.131 C 
ATOM      9  C   UNL     1      -3.138   0.240  23.293  0.00  0.00    +0.113 C 
ATOM     10  C   UNL     1      -4.537   2.665  24.939  0.00  0.00    +0.213 C 
ATOM     11  C   UNL     1      -3.121   1.435  22.344  0.00  0.00    +0.175 C 
ATOM     12  C   UNL     1      -4.261   3.150  23.519  0.00  0.00    +0.205 C 
ENDROOT
BRANCH   3   4
ATOM      4  C   UNL     1      -4.336  -1.070  24.890  0.00  0.00    +0.057 C 
ATOM      5  C   UNL     1      -2.928  -1.493  25.362  0.00  0.00    +0.019 C 
ATOM      6  C   UNL     1      -4.220  -2.162  23.804  0.00  0.00    +0.019 C 
ATOM      7  C   UNL     1      -3.237  -2.881  24.756  0.00  0.00    +0.003 C 
ENDBRANCH   3   4
BRANCH  10   2
ATOM      2  O   UNL     1      -3.922   3.595  25.837  0.00  0.00    -0.485 OA
BRANCH   2  13
ATOM     13  C   UNL     1      -2.588   3.825  25.654  0.00  0.00    +0.121 A 
ATOM     14  C   UNL     1      -1.657   2.842  25.989  0.00  0.00    +0.045 A 
ATOM     15  C   UNL     1      -2.157   5.044  25.129  0.00  0.00    +0.045 A 
ATOM     16  C   UNL     1      -0.296   3.078  25.801  0.00  0.00    +0.004 A 
ATOM     17  C   UNL     1      -0.795   5.279  24.940  0.00  0.00    +0.004 A 
ATOM     18  C   UNL     1       0.135   4.296  25.276  0.00  0.00    +0.000 A 
ENDBRANCH   2  13
ENDBRANCH  10   2
TORSDOF 3
ENDMDL
MODEL 8
REMARK VINA RESULT:      -4.8      2.842      5.958
REMARK  Name = 75536911
REMARK  3 active torsions:
REMARK  status: ('A' for Active; 'I' for Inactive)
REMARK    1  A    between atoms: O_2  and  C_10
REMARK    2  A    between atoms: O_2  and  C_13
REMARK    3  A    between atoms: N_3  and  C_4
REMARK                            x       y       z     vdW  Elec       q    Type
REMARK                         _______ _______ _______ _____ _____    ______ ____
ROOT
ATOM      1  O   UNL     1      -1.740  -0.691  25.013  0.00  0.00    -0.375 OA
ATOM      3  N   UNL     1       0.771   0.191  23.653  0.00  0.00    -0.294 NA
ATOM      8  C   UNL     1      -0.376   0.873  23.037  0.00  0.00    +0.131 C 
ATOM      9  C   UNL     1       0.432  -1.207  23.977  0.00  0.00    +0.113 C 
ATOM     10  C   UNL     1      -1.326   1.523  24.049  0.00  0.00    +0.213 C 
ATOM     11  C   UNL     1      -0.488  -1.350  25.187  0.00  0.00    +0.175 C 
ATOM     12  C   UNL     1      -1.665   0.705  25.291  0.00  0.00    +0.205 C 
ENDROOT
BRANCH   3   4
ATOM      4  C   UNL     1       1.885   0.175  22.682  0.00  0.00    +0.057 C 
ATOM      5  C   UNL     1       3.017  -0.725  23.221  0.00  0.00    +0.019 C 
ATOM      6  C   UNL     1       2.813   1.379  22.952  0.00  0.00    +0.019 C 
ATOM      7  C   UNL     1       3.993   0.393  22.791  0.00  0.00    +0.003 C 
ENDBRANCH   3   4
BRANCH  10   2
ATOM      2  O   UNL     1      -2.556   1.802  23.369  0.00  0.00    -0.485 OA
BRANCH   2  13
ATOM     13  C   UNL     1      -3.594   2.231  24.144  0.00  0.00    +0.121 A 
ATOM     14  C   UNL     1      -4.634   1.359  24.466  0.00  0.00    +0.045 A 
ATOM     15  C   UNL     1      -3.614   3.544  24.617  0.00  0.00    +0.045 A 
ATOM     16  C   UNL     1      -5.694   1.798  25.257  0.00  0.00    +0.004 A 
ATOM     17  C   UNL     1      -4.675   3.983  25.410  0.00  0.00    +0.004 A 
ATOM     18  C   UNL     1      -5.715   3.110  25.731  0.00  0.00    +0.000 A 
ENDBRANCH   2  13
ENDBRANCH  10   2
TORSDOF 3
ENDMDL
MODEL 9
REMARK VINA RESULT:      -4.6     14.711     17.071
REMARK  Name = 75536911
REMARK  3 active torsions:
REMARK  status: ('A' for Active; 'I' for Inactive)
REMARK    1  A    between atoms: O_2  and  C_10
REMARK    2  A    between atoms: O_2  and  C_13
REMARK    3  A    between atoms: N_3  and  C_4
REMARK                            x       y       z     vdW  Elec       q    Type
REMARK                         _______ _______ _______ _____ _____    ______ ____
ROOT
ATOM      1  O   UNL     1      -4.200 -10.158  14.611  0.00  0.00    -0.375 OA
ATOM      3  N   UNL     1      -7.010 -10.579  15.539  0.00  0.00    -0.294 NA
ATOM      8  C   UNL     1      -7.013  -9.656  14.395  0.00  0.00    +0.131 C 
ATOM      9  C   UNL     1      -5.860 -10.309  16.422  0.00  0.00    +0.113 C 
ATOM     10  C   UNL     1      -6.199 -10.154  13.195  0.00  0.00    +0.213 C 
ATOM     11  C   UNL     1      -4.525 -10.781  15.851  0.00  0.00    +0.175 C 
ATOM     12  C   UNL     1      -4.844 -10.781  13.502  0.00  0.00    +0.205 C 
ENDROOT
BRANCH   3   4
ATOM      4  C   UNL     1      -8.245 -10.362  16.321  0.00  0.00    +0.057 C 
ATOM      5  C   UNL     1      -9.038  -9.190  15.705  0.00  0.00    +0.019 C 
ATOM      6  C   UNL     1      -7.935  -9.431  17.513  0.00  0.00    +0.019 C 
ATOM      7  C   UNL     1      -9.237  -8.680  17.151  0.00  0.00    +0.003 C 
ENDBRANCH   3   4
BRANCH  10   2
ATOM      2  O   UNL     1      -5.970  -9.033  12.334  0.00  0.00    -0.485 OA
BRANCH   2  13
ATOM     13  C   UNL     1      -5.604  -9.319  11.050  0.00  0.00    +0.121 A 
ATOM     14  C   UNL     1      -6.362 -10.209  10.289  0.00  0.00    +0.045 A 
ATOM     15  C   UNL     1      -4.470  -8.720  10.499  0.00  0.00    +0.045 A 
ATOM     16  C   UNL     1      -5.987 -10.500   8.978  0.00  0.00    +0.004 A 
ATOM     17  C   UNL     1      -4.096  -9.011   9.187  0.00  0.00    +0.004 A 
ATOM     18  C   UNL     1      -4.854  -9.901   8.426  0.00  0.00    +0.000 A 
ENDBRANCH   2  13
ENDBRANCH  10   2
TORSDOF 3
ENDMDL
MODEL 10
REMARK VINA RESULT:      -4.6     14.827     16.433
REMARK  Name = 75536911
REMARK  3 active torsions:
REMARK  status: ('A' for Active; 'I' for Inactive)
REMARK    1  A    between atoms: O_2  and  C_10
REMARK    2  A    between atoms: O_2  and  C_13
REMARK    3  A    between atoms: N_3  and  C_4
REMARK                            x       y       z     vdW  Elec       q    Type
REMARK                         _______ _______ _______ _____ _____    ______ ____
ROOT
ATOM      1  O   UNL     1      -4.382 -10.771  16.179  0.00  0.00    -0.375 OA
ATOM      3  N   UNL     1      -4.591 -10.021  13.294  0.00  0.00    -0.294 NA
ATOM      8  C   UNL     1      -5.884 -10.553  13.748  0.00  0.00    +0.131 C 
ATOM      9  C   UNL     1      -3.477 -10.780  13.891  0.00  0.00    +0.113 C 
ATOM     10  C   UNL     1      -6.387  -9.926  15.053  0.00  0.00    +0.213 C 
ATOM     11  C   UNL     1      -3.248 -10.472  15.369  0.00  0.00    +0.175 C 
ATOM     12  C   UNL     1      -5.356  -9.730  16.159  0.00  0.00    +0.205 C 
ENDROOT
BRANCH   3   4
ATOM      4  C   UNL     1      -4.510 -10.173  11.826  0.00  0.00    +0.057 C 
ATOM      5  C   UNL     1      -3.153  -9.629  11.332  0.00  0.00    +0.019 C 
ATOM      6  C   UNL     1      -5.164  -8.949  11.150  0.00  0.00    +0.019 C 
ATOM      7  C   UNL     1      -3.943  -8.930  10.202  0.00  0.00    +0.003 C 
ENDBRANCH   3   4
BRANCH  10   2
ATOM      2  O   UNL     1      -7.417 -10.777  15.571  0.00  0.00    -0.485 OA
BRANCH   2  13
ATOM     13  C   UNL     1      -8.392 -10.168  16.309  0.00  0.00    +0.121 A 
ATOM     14  C   UNL     1      -8.784 -10.712  17.532  0.00  0.00    +0.045 A 
ATOM     15  C   UNL     1      -8.994  -9.001  15.840  0.00  0.00    +0.045 A 
ATOM     16  C   UNL     1      -9.779 -10.091  18.285  0.00  0.00    +0.004 A 
ATOM     17  C   UNL     1      -9.989  -8.378  16.594  0.00  0.00    +0.004 A 
ATOM     18  C   UNL     1     -10.382  -8.924  17.817  0.00  0.00    +0.000 A 
ENDBRANCH   2  13
ENDBRANCH  10   2
TORSDOF 3
ENDMDL
