MODEL 1
REMARK VINA RESULT:      -0.1      0.000      0.000
REMARK  Name = 45361209
REMARK  8 active torsions:
REMARK  status: ('A' for Active; 'I' for Inactive)
REMARK    1  A    between atoms: O_3  and  C_25
REMARK    2  A    between atoms: N_4  and  C_17
REMARK    3  A    between atoms: N_5  and  C_16
REMARK    4  A    between atoms: C_12  and  C_15
REMARK    5  A    between atoms: C_15  and  C_18
REMARK    6  A    between atoms: C_16  and  C_19
REMARK    7  A    between atoms: C_18  and  C_20
REMARK    8  A    between atoms: C_30  and  C_31
REMARK                            x       y       z     vdW  Elec       q    Type
REMARK                         _______ _______ _______ _____ _____    ______ ____
ROOT
ATOM      1  O   UNL     1      -1.048   2.049  23.592  0.00  0.00    -0.274 OA
ATOM      4  N   UNL     1      -2.993  -0.830  25.298  0.00  0.00    -0.296 NA
ATOM      5  N   UNL     1       0.298  -0.284  23.795  0.00  0.00    -0.286 NA
ATOM      6  N   UNL     1      -3.068   1.078  23.136  0.00  0.00    -0.312 N 
ATOM      8  C   UNL     1      -1.752  -1.280  24.630  0.00  0.00    +0.084 C 
ATOM      9  C   UNL     1      -1.147  -0.382  23.511  0.00  0.00    +0.161 C 
ATOM     10  C   UNL     1      -0.556  -1.455  25.584  0.00  0.00    +0.036 C 
ATOM     11  C   UNL     1       0.641  -1.408  24.659  0.00  0.00    +0.087 C 
ATOM     12  C   UNL     1      -4.179  -0.739  24.402  0.00  0.00    +0.074 C 
ATOM     13  C   UNL     1      -1.720   1.031  23.436  0.00  0.00    +0.232 C 
ATOM     14  C   UNL     1      -3.904  -0.102  23.025  0.00  0.00    +0.123 C 
ATOM     17  C   UNL     1      -3.298  -1.681  26.462  0.00  0.00    +0.105 C 
ATOM     32  H   UNL     1      -3.493   1.988  22.994  0.00  0.00    +0.149 HD
ENDROOT
BRANCH  12  15
ATOM     15  C   UNL     1      -5.303   0.077  25.074  0.00  0.00    +0.029 C 
BRANCH  15  18
ATOM     18  C   UNL     1      -4.756   1.237  25.883  0.00  0.00    +0.097 C 
BRANCH  18  20
ATOM      2  O   UNL     1      -5.696   2.651  24.231  0.00  0.00    -0.276 OA
ATOM      7  N   UNL     1      -3.918   3.520  25.448  0.00  0.00    -0.301 N 
ATOM     20  C   UNL     1      -4.839   2.529  25.110  0.00  0.00    +0.216 C 
ATOM     21  C   UNL     1      -2.888   3.403  26.489  0.00  0.00    +0.110 C 
ATOM     22  C   UNL     1      -3.966   4.820  24.773  0.00  0.00    +0.110 C 
ATOM     23  C   UNL     1      -1.510   3.734  25.924  0.00  0.00    +0.050 C 
ATOM     24  C   UNL     1      -2.607   5.174  24.177  0.00  0.00    +0.050 C 
ATOM     25  C   UNL     1      -1.505   5.098  25.234  0.00  0.00    +0.118 C 
BRANCH  25   3
ATOM      3  O   UNL     1      -0.235   5.297  24.622  0.00  0.00    -0.392 OA
ATOM     33  H   UNL     1      -0.361   5.917  23.884  0.00  0.00    +0.210 HD
ENDBRANCH  25   3
ENDBRANCH  18  20
ENDBRANCH  15  18
ENDBRANCH  12  15
BRANCH   5  16
ATOM     16  C   UNL     1       1.120  -0.244  22.593  0.00  0.00    +0.120 C 
BRANCH  16  19
ATOM     19  C   UNL     1       2.590  -0.194  22.920  0.00  0.00    -0.033 A 
ATOM     26  C   UNL     1       3.317   0.974  22.686  0.00  0.00    +0.005 A 
ATOM     27  C   UNL     1       3.223  -1.314  23.456  0.00  0.00    +0.005 A 
ATOM     28  C   UNL     1       4.678   1.019  22.987  0.00  0.00    +0.003 A 
ATOM     29  C   UNL     1       4.585  -1.269  23.757  0.00  0.00    +0.003 A 
ATOM     30  C   UNL     1       5.312  -0.102  23.522  0.00  0.00    -0.050 A 
ATOM     31  C   UNL     1       6.768  -0.053  23.843  0.00  0.00    +0.044 C 
ENDBRANCH  16  19
ENDBRANCH   5  16
TORSDOF 6
ENDMDL
