MODEL 1
REMARK VINA RESULT:      -4.6      0.000      0.000
REMARK  Name = 38030342
REMARK  11 active torsions:
REMARK  status: ('A' for Active; 'I' for Inactive)
REMARK    1  A    between atoms: N_2  and  C_12
REMARK    2  A    between atoms: N_2  and  C_18
REMARK    3  A    between atoms: C_5  and  C_9
REMARK    4  A    between atoms: C_6  and  C_12
REMARK    5  A    between atoms: C_8  and  C_13
REMARK    6  A    between atoms: C_9  and  C_14
REMARK    7  A    between atoms: C_9  and  C_15
REMARK    8  A    between atoms: C_10  and  C_16
REMARK    9  A    between atoms: C_13  and  C_17
REMARK   10  A    between atoms: C_18  and  C_20
REMARK   11  A    between atoms: C_19  and  C_21
REMARK                            x       y       z     vdW  Elec       q    Type
REMARK                         _______ _______ _______ _____ _____    ______ ____
ROOT
ATOM      5  C   UNL     1      -1.273   2.004  24.759  0.00  0.00    +0.000 C 
ATOM      6  C   UNL     1      -0.010   2.861  25.017  0.00  0.00    +0.029 C 
ATOM      7  C   UNL     1      -2.228   2.732  23.800  0.00  0.00    +0.012 C 
ATOM      8  C   UNL     1      -2.671   4.102  24.348  0.00  0.00    +0.024 C 
ATOM     10  C   UNL     1      -1.498   4.903  24.873  0.00  0.00    -0.073 C 
ATOM     11  C   UNL     1      -0.312   4.335  25.154  0.00  0.00    -0.023 C 
ATOM     16  C   UNL     1      -1.706   6.385  25.026  0.00  0.00    +0.039 C 
ENDROOT
BRANCH   5   9
ATOM      9  C   UNL     1      -0.919   0.626  24.191  0.00  0.00    -0.013 C 
ATOM     14  C   UNL     1       0.301   0.722  23.281  0.00  0.00    +0.007 C 
ATOM     15  C   UNL     1      -0.674  -0.369  25.320  0.00  0.00    +0.007 C 
ENDBRANCH   5   9
BRANCH   6  12
ATOM     12  C   UNL     1       0.743   2.377  26.261  0.00  0.00    +0.089 C 
BRANCH  12   2
ATOM      2  N   UNL     1      -0.056   2.585  27.457  0.00  0.00    -0.305 NA
ATOM     28  H   UNL     1      -0.236   3.579  27.590  0.00  0.00    +0.123 HD
BRANCH   2  18
ATOM     18  C   UNL     1       0.619   2.059  28.638  0.00  0.00    +0.170 C 
BRANCH  18  20
ATOM     20  C   UNL     1       1.927   2.695  28.821  0.00  0.00    -0.090 C 
ATOM     24  C   UNL     1       2.999   3.217  28.963  0.00  0.00    +0.005 C 
ENDBRANCH  18  20
ENDBRANCH   2  18
ENDBRANCH  12   2
ENDBRANCH   6  12
BRANCH   8  13
ATOM     13  C   UNL     1      -3.753   3.942  25.422  0.00  0.00    +0.105 C 
BRANCH  13  17
ATOM      1  O   UNL     1      -3.756   1.516  25.160  0.00  0.00    -0.420 OA
ATOM      3  N   UNL     1      -5.795   2.436  25.198  0.00  0.00    -0.112 NA
ATOM      4  N   UNL     1      -5.946   1.070  25.045  0.00  0.00    -0.107 NA
ATOM     17  C   UNL     1      -4.502   2.650  25.260  0.00  0.00    +0.218 A 
ATOM     19  C   UNL     1      -4.731   0.575  25.028  0.00  0.00    +0.248 A 
BRANCH  19  21
ATOM     21  C   UNL     1      -4.280  -0.781  24.895  0.00  0.00    +0.038 A 
ATOM     22  C   UNL     1      -4.499  -1.475  23.706  0.00  0.00    +0.013 A 
ATOM     23  C   UNL     1      -3.621  -1.403  25.955  0.00  0.00    +0.013 A 
ATOM     25  C   UNL     1      -4.061  -2.792  23.576  0.00  0.00    +0.001 A 
ATOM     26  C   UNL     1      -3.182  -2.721  25.826  0.00  0.00    +0.001 A 
ATOM     27  C   UNL     1      -3.402  -3.416  24.635  0.00  0.00    +0.000 A 
ENDBRANCH  19  21
ENDBRANCH  13  17
ENDBRANCH   8  13
TORSDOF 8
ENDMDL
MODEL 2
REMARK VINA RESULT:      -4.6      1.686      3.204
REMARK  Name = 38030342
REMARK  11 active torsions:
REMARK  status: ('A' for Active; 'I' for Inactive)
REMARK    1  A    between atoms: N_2  and  C_12
REMARK    2  A    between atoms: N_2  and  C_18
REMARK    3  A    between atoms: C_5  and  C_9
REMARK    4  A    between atoms: C_6  and  C_12
REMARK    5  A    between atoms: C_8  and  C_13
REMARK    6  A    between atoms: C_9  and  C_14
REMARK    7  A    between atoms: C_9  and  C_15
REMARK    8  A    between atoms: C_10  and  C_16
REMARK    9  A    between atoms: C_13  and  C_17
REMARK   10  A    between atoms: C_18  and  C_20
REMARK   11  A    between atoms: C_19  and  C_21
REMARK                            x       y       z     vdW  Elec       q    Type
REMARK                         _______ _______ _______ _____ _____    ______ ____
ROOT
ATOM      5  C   UNL     1      -1.847   2.488  23.623  0.00  0.00    +0.000 C 
ATOM      6  C   UNL     1      -0.524   1.701  23.799  0.00  0.00    +0.029 C 
ATOM      7  C   UNL     1      -1.692   3.922  24.152  0.00  0.00    +0.012 C 
ATOM      8  C   UNL     1      -1.299   3.954  25.642  0.00  0.00    +0.024 C 
ATOM     10  C   UNL     1      -0.167   2.995  25.945  0.00  0.00    -0.073 C 
ATOM     11  C   UNL     1       0.174   2.002  25.104  0.00  0.00    -0.023 C 
ATOM     16  C   UNL     1       0.596   3.229  27.220  0.00  0.00    +0.039 C 
ENDROOT
BRANCH   5   9
ATOM      9  C   UNL     1      -2.298   2.522  22.159  0.00  0.00    -0.013 C 
ATOM     14  C   UNL     1      -2.405   1.106  21.602  0.00  0.00    +0.007 C 
ATOM     15  C   UNL     1      -3.629   3.255  22.029  0.00  0.00    +0.007 C 
ENDBRANCH   5   9
BRANCH   6  12
ATOM     12  C   UNL     1      -0.759   0.192  23.681  0.00  0.00    +0.089 C 
BRANCH  12   2
ATOM      2  N   UNL     1       0.505  -0.524  23.664  0.00  0.00    -0.305 NA
ATOM     28  H   UNL     1       1.101  -0.202  24.426  0.00  0.00    +0.123 HD
BRANCH   2  18
ATOM     18  C   UNL     1       1.203  -0.330  22.398  0.00  0.00    +0.170 C 
BRANCH  18  20
ATOM     20  C   UNL     1       2.533   0.247  22.616  0.00  0.00    -0.090 C 
ATOM     24  C   UNL     1       3.623   0.721  22.788  0.00  0.00    +0.005 C 
ENDBRANCH  18  20
ENDBRANCH   2  18
ENDBRANCH  12   2
ENDBRANCH   6  12
BRANCH   8  13
ATOM     13  C   UNL     1      -2.511   3.675  26.537  0.00  0.00    +0.105 C 
BRANCH  13  17
ATOM      1  O   UNL     1      -3.018   1.407  25.795  0.00  0.00    -0.420 OA
ATOM      3  N   UNL     1      -4.656   2.883  25.416  0.00  0.00    -0.112 NA
ATOM      4  N   UNL     1      -5.075   1.651  24.948  0.00  0.00    -0.107 NA
ATOM     17  C   UNL     1      -3.452   2.693  25.900  0.00  0.00    +0.218 A 
ATOM     19  C   UNL     1      -4.089   0.821  25.190  0.00  0.00    +0.248 A 
BRANCH  19  21
ATOM     21  C   UNL     1      -3.966  -0.583  24.922  0.00  0.00    +0.038 A 
ATOM     22  C   UNL     1      -4.469  -1.112  23.734  0.00  0.00    +0.013 A 
ATOM     23  C   UNL     1      -3.342  -1.418  25.849  0.00  0.00    +0.013 A 
ATOM     25  C   UNL     1      -4.351  -2.477  23.473  0.00  0.00    +0.001 A 
ATOM     26  C   UNL     1      -3.224  -2.783  25.588  0.00  0.00    +0.001 A 
ATOM     27  C   UNL     1      -3.727  -3.313  24.399  0.00  0.00    +0.000 A 
ENDBRANCH  19  21
ENDBRANCH  13  17
ENDBRANCH   8  13
TORSDOF 8
ENDMDL
MODEL 3
REMARK VINA RESULT:      -4.3      1.988      5.616
REMARK  Name = 38030342
REMARK  11 active torsions:
REMARK  status: ('A' for Active; 'I' for Inactive)
REMARK    1  A    between atoms: N_2  and  C_12
REMARK    2  A    between atoms: N_2  and  C_18
REMARK    3  A    between atoms: C_5  and  C_9
REMARK    4  A    between atoms: C_6  and  C_12
REMARK    5  A    between atoms: C_8  and  C_13
REMARK    6  A    between atoms: C_9  and  C_14
REMARK    7  A    between atoms: C_9  and  C_15
REMARK    8  A    between atoms: C_10  and  C_16
REMARK    9  A    between atoms: C_13  and  C_17
REMARK   10  A    between atoms: C_18  and  C_20
REMARK   11  A    between atoms: C_19  and  C_21
REMARK                            x       y       z     vdW  Elec       q    Type
REMARK                         _______ _______ _______ _____ _____    ______ ____
ROOT
ATOM      5  C   UNL     1      -1.092   0.280  24.799  0.00  0.00    +0.000 C 
ATOM      6  C   UNL     1      -0.277  -0.952  24.334  0.00  0.00    +0.029 C 
ATOM      7  C   UNL     1      -2.111  -0.126  25.875  0.00  0.00    +0.012 C 
ATOM      8  C   UNL     1      -3.094  -1.199  25.371  0.00  0.00    +0.024 C 
ATOM     10  C   UNL     1      -2.378  -2.327  24.656  0.00  0.00    -0.073 C 
ATOM     11  C   UNL     1      -1.115  -2.203  24.212  0.00  0.00    -0.023 C 
ATOM     16  C   UNL     1      -3.133  -3.618  24.504  0.00  0.00    +0.039 C 
ENDROOT
BRANCH   5   9
ATOM      9  C   UNL     1      -0.185   1.391  25.338  0.00  0.00    -0.013 C 
ATOM     14  C   UNL     1       0.023   2.470  24.279  0.00  0.00    +0.007 C 
ATOM     15  C   UNL     1      -0.774   1.991  26.610  0.00  0.00    +0.007 C 
ENDBRANCH   5   9
BRANCH   6  12
ATOM     12  C   UNL     1       0.428  -0.677  23.001  0.00  0.00    +0.089 C 
BRANCH  12   2
ATOM      2  N   UNL     1       1.870  -0.742  23.161  0.00  0.00    -0.305 NA
ATOM     28  H   UNL     1       2.113  -0.772  24.152  0.00  0.00    +0.123 HD
BRANCH   2  18
ATOM     18  C   UNL     1       2.521   0.408  22.545  0.00  0.00    +0.170 C 
BRANCH  18  20
ATOM     20  C   UNL     1       3.926   0.496  22.953  0.00  0.00    -0.090 C 
ATOM     24  C   UNL     1       5.076   0.565  23.293  0.00  0.00    +0.005 C 
ENDBRANCH  18  20
ENDBRANCH   2  18
ENDBRANCH  12   2
ENDBRANCH   6  12
BRANCH   8  13
ATOM     13  C   UNL     1      -4.174  -0.580  24.477  0.00  0.00    +0.105 C 
BRANCH  13  17
ATOM      1  O   UNL     1      -3.557   1.780  24.472  0.00  0.00    -0.420 OA
ATOM      3  N   UNL     1      -5.470   1.336  25.543  0.00  0.00    -0.112 NA
ATOM      4  N   UNL     1      -5.246   2.698  25.619  0.00  0.00    -0.107 NA
ATOM     17  C   UNL     1      -4.461   0.842  24.866  0.00  0.00    +0.218 A 
ATOM     19  C   UNL     1      -4.119   2.912  24.981  0.00  0.00    +0.248 A 
BRANCH  19  21
ATOM     21  C   UNL     1      -3.402   4.131  24.741  0.00  0.00    +0.038 A 
ATOM     22  C   UNL     1      -3.853   5.025  23.770  0.00  0.00    +0.013 A 
ATOM     23  C   UNL     1      -2.254   4.421  25.478  0.00  0.00    +0.013 A 
ATOM     25  C   UNL     1      -3.156   6.210  23.536  0.00  0.00    +0.001 A 
ATOM     26  C   UNL     1      -1.557   5.607  25.244  0.00  0.00    +0.001 A 
ATOM     27  C   UNL     1      -2.008   6.502  24.273  0.00  0.00    +0.000 A 
ENDBRANCH  19  21
ENDBRANCH  13  17
ENDBRANCH   8  13
TORSDOF 8
ENDMDL
MODEL 4
REMARK VINA RESULT:      -4.3      2.160      5.663
REMARK  Name = 38030342
REMARK  11 active torsions:
REMARK  status: ('A' for Active; 'I' for Inactive)
REMARK    1  A    between atoms: N_2  and  C_12
REMARK    2  A    between atoms: N_2  and  C_18
REMARK    3  A    between atoms: C_5  and  C_9
REMARK    4  A    between atoms: C_6  and  C_12
REMARK    5  A    between atoms: C_8  and  C_13
REMARK    6  A    between atoms: C_9  and  C_14
REMARK    7  A    between atoms: C_9  and  C_15
REMARK    8  A    between atoms: C_10  and  C_16
REMARK    9  A    between atoms: C_13  and  C_17
REMARK   10  A    between atoms: C_18  and  C_20
REMARK   11  A    between atoms: C_19  and  C_21
REMARK                            x       y       z     vdW  Elec       q    Type
REMARK                         _______ _______ _______ _____ _____    ______ ____
ROOT
ATOM      5  C   UNL     1      -3.940   2.643  25.036  0.00  0.00    +0.000 C 
ATOM      6  C   UNL     1      -3.561   2.894  23.555  0.00  0.00    +0.029 C 
ATOM      7  C   UNL     1      -3.523   3.840  25.906  0.00  0.00    +0.012 C 
ATOM      8  C   UNL     1      -2.010   4.117  25.829  0.00  0.00    +0.024 C 
ATOM     10  C   UNL     1      -1.510   4.114  24.399  0.00  0.00    -0.073 C 
ATOM     11  C   UNL     1      -2.222   3.575  23.394  0.00  0.00    -0.023 C 
ATOM     16  C   UNL     1      -0.188   4.784  24.143  0.00  0.00    +0.039 C 
ENDROOT
BRANCH   5   9
ATOM      9  C   UNL     1      -5.439   2.378  25.202  0.00  0.00    -0.013 C 
ATOM     14  C   UNL     1      -5.670   1.176  26.114  0.00  0.00    +0.007 C 
ATOM     15  C   UNL     1      -6.141   3.615  25.753  0.00  0.00    +0.007 C 
ENDBRANCH   5   9
BRANCH   6  12
ATOM     12  C   UNL     1      -3.571   1.589  22.753  0.00  0.00    +0.089 C 
BRANCH  12   2
ATOM      2  N   UNL     1      -3.162   0.472  23.586  0.00  0.00    -0.305 NA
ATOM     28  H   UNL     1      -2.240   0.140  23.301  0.00  0.00    +0.123 HD
BRANCH   2  18
ATOM     18  C   UNL     1      -4.114  -0.629  23.495  0.00  0.00    +0.170 C 
BRANCH  18  20
ATOM     20  C   UNL     1      -3.702  -1.750  24.345  0.00  0.00    -0.090 C 
ATOM     24  C   UNL     1      -3.360  -2.663  25.045  0.00  0.00    +0.005 C 
ENDBRANCH  18  20
ENDBRANCH   2  18
ENDBRANCH  12   2
ENDBRANCH   6  12
BRANCH   8  13
ATOM     13  C   UNL     1      -1.223   3.123  26.690  0.00  0.00    +0.105 C 
BRANCH  13  17
ATOM      1  O   UNL     1       0.170   2.022  25.017  0.00  0.00    -0.420 OA
ATOM      3  N   UNL     1      -1.364   0.689  25.952  0.00  0.00    -0.112 NA
ATOM      4  N   UNL     1      -0.653  -0.059  25.031  0.00  0.00    -0.107 NA
ATOM     17  C   UNL     1      -0.850   1.895  25.909  0.00  0.00    +0.218 A 
ATOM     19  C   UNL     1       0.231   0.759  24.510  0.00  0.00    +0.248 A 
BRANCH  19  21
ATOM     21  C   UNL     1       1.233   0.532  23.509  0.00  0.00    +0.038 A 
ATOM     22  C   UNL     1       2.477   1.152  23.616  0.00  0.00    +0.013 A 
ATOM     23  C   UNL     1       0.962  -0.308  22.430  0.00  0.00    +0.013 A 
ATOM     25  C   UNL     1       3.452   0.933  22.643  0.00  0.00    +0.001 A 
ATOM     26  C   UNL     1       1.937  -0.528  21.456  0.00  0.00    +0.001 A 
ATOM     27  C   UNL     1       3.182   0.092  21.563  0.00  0.00    +0.000 A 
ENDBRANCH  19  21
ENDBRANCH  13  17
ENDBRANCH   8  13
TORSDOF 8
ENDMDL
MODEL 5
REMARK VINA RESULT:      -4.2      2.513      5.025
REMARK  Name = 38030342
REMARK  11 active torsions:
REMARK  status: ('A' for Active; 'I' for Inactive)
REMARK    1  A    between atoms: N_2  and  C_12
REMARK    2  A    between atoms: N_2  and  C_18
REMARK    3  A    between atoms: C_5  and  C_9
REMARK    4  A    between atoms: C_6  and  C_12
REMARK    5  A    between atoms: C_8  and  C_13
REMARK    6  A    between atoms: C_9  and  C_14
REMARK    7  A    between atoms: C_9  and  C_15
REMARK    8  A    between atoms: C_10  and  C_16
REMARK    9  A    between atoms: C_13  and  C_17
REMARK   10  A    between atoms: C_18  and  C_20
REMARK   11  A    between atoms: C_19  and  C_21
REMARK                            x       y       z     vdW  Elec       q    Type
REMARK                         _______ _______ _______ _____ _____    ______ ____
ROOT
ATOM      5  C   UNL     1      -3.579   2.265  24.039  0.00  0.00    +0.000 C 
ATOM      6  C   UNL     1      -4.471   3.407  24.585  0.00  0.00    +0.029 C 
ATOM      7  C   UNL     1      -4.403   0.981  23.857  0.00  0.00    +0.012 C 
ATOM      8  C   UNL     1      -5.046   0.509  25.175  0.00  0.00    +0.024 C 
ATOM     10  C   UNL     1      -5.722   1.649  25.909  0.00  0.00    -0.073 C 
ATOM     11  C   UNL     1      -5.463   2.937  25.624  0.00  0.00    -0.023 C 
ATOM     16  C   UNL     1      -6.738   1.273  26.952  0.00  0.00    +0.039 C 
ENDROOT
BRANCH   5   9
ATOM      9  C   UNL     1      -2.915   2.647  22.712  0.00  0.00    -0.013 C 
ATOM     14  C   UNL     1      -2.457   1.397  21.966  0.00  0.00    +0.007 C 
ATOM     15  C   UNL     1      -3.872   3.467  21.854  0.00  0.00    +0.007 C 
ENDBRANCH   5   9
BRANCH   6  12
ATOM     12  C   UNL     1      -3.623   4.542  25.166  0.00  0.00    +0.089 C 
BRANCH  12   2
ATOM      2  N   UNL     1      -2.966   4.117  26.390  0.00  0.00    -0.305 NA
ATOM     28  H   UNL     1      -2.875   4.905  27.032  0.00  0.00    +0.123 HD
BRANCH   2  18
ATOM     18  C   UNL     1      -1.642   3.571  26.115  0.00  0.00    +0.170 C 
BRANCH  18  20
ATOM     20  C   UNL     1      -0.919   4.410  25.155  0.00  0.00    -0.090 C 
ATOM     24  C   UNL     1      -0.332   5.101  24.367  0.00  0.00    +0.005 C 
ENDBRANCH  18  20
ENDBRANCH   2  18
ENDBRANCH  12   2
ENDBRANCH   6  12
BRANCH   8  13
ATOM     13  C   UNL     1      -4.018  -0.190  26.071  0.00  0.00    +0.105 C 
BRANCH  13  17
ATOM      1  O   UNL     1      -1.854   0.124  24.989  0.00  0.00    -0.420 OA
ATOM      3  N   UNL     1      -2.690  -1.940  24.783  0.00  0.00    -0.112 NA
ATOM      4  N   UNL     1      -1.472  -1.906  24.128  0.00  0.00    -0.107 NA
ATOM     17  C   UNL     1      -2.871  -0.735  25.269  0.00  0.00    +0.218 A 
ATOM     19  C   UNL     1      -1.021  -0.682  24.274  0.00  0.00    +0.248 A 
BRANCH  19  21
ATOM     21  C   UNL     1       0.192  -0.075  23.807  0.00  0.00    +0.038 A 
ATOM     22  C   UNL     1       1.034  -0.775  22.944  0.00  0.00    +0.013 A 
ATOM     23  C   UNL     1       0.527   1.216  24.215  0.00  0.00    +0.013 A 
ATOM     25  C   UNL     1       2.213  -0.185  22.489  0.00  0.00    +0.001 A 
ATOM     26  C   UNL     1       1.707   1.806  23.760  0.00  0.00    +0.001 A 
ATOM     27  C   UNL     1       2.549   1.106  22.896  0.00  0.00    +0.000 A 
ENDBRANCH  19  21
ENDBRANCH  13  17
ENDBRANCH   8  13
TORSDOF 8
ENDMDL
MODEL 6
REMARK VINA RESULT:      -4.1      1.990      2.516
REMARK  Name = 38030342
REMARK  11 active torsions:
REMARK  status: ('A' for Active; 'I' for Inactive)
REMARK    1  A    between atoms: N_2  and  C_12
REMARK    2  A    between atoms: N_2  and  C_18
REMARK    3  A    between atoms: C_5  and  C_9
REMARK    4  A    between atoms: C_6  and  C_12
REMARK    5  A    between atoms: C_8  and  C_13
REMARK    6  A    between atoms: C_9  and  C_14
REMARK    7  A    between atoms: C_9  and  C_15
REMARK    8  A    between atoms: C_10  and  C_16
REMARK    9  A    between atoms: C_13  and  C_17
REMARK   10  A    between atoms: C_18  and  C_20
REMARK   11  A    between atoms: C_19  and  C_21
REMARK                            x       y       z     vdW  Elec       q    Type
REMARK                         _______ _______ _______ _____ _____    ______ ____
ROOT
ATOM      5  C   UNL     1      -2.173   2.234  23.777  0.00  0.00    +0.000 C 
ATOM      6  C   UNL     1      -0.732   2.799  23.759  0.00  0.00    +0.029 C 
ATOM      7  C   UNL     1      -3.189   3.346  23.472  0.00  0.00    +0.012 C 
ATOM      8  C   UNL     1      -3.106   4.504  24.485  0.00  0.00    +0.024 C 
ATOM     10  C   UNL     1      -1.675   4.941  24.723  0.00  0.00    -0.073 C 
ATOM     11  C   UNL     1      -0.626   4.172  24.381  0.00  0.00    -0.023 C 
ATOM     16  C   UNL     1      -1.475   6.304  25.326  0.00  0.00    +0.039 C 
ENDROOT
BRANCH   5   9
ATOM      9  C   UNL     1      -2.347   1.086  22.777  0.00  0.00    -0.013 C 
ATOM     14  C   UNL     1      -2.239   1.605  21.346  0.00  0.00    +0.007 C 
ATOM     15  C   UNL     1      -1.314  -0.005  23.035  0.00  0.00    +0.007 C 
ENDBRANCH   5   9
BRANCH   6  12
ATOM     12  C   UNL     1       0.245   1.846  24.457  0.00  0.00    +0.089 C 
BRANCH  12   2
ATOM      2  N   UNL     1       1.566   1.938  23.859  0.00  0.00    -0.305 NA
ATOM     28  H   UNL     1       1.600   2.715  23.200  0.00  0.00    +0.123 HD
BRANCH   2  18
ATOM     18  C   UNL     1       1.915   0.705  23.163  0.00  0.00    +0.170 C 
BRANCH  18  20
ATOM     20  C   UNL     1       3.366   0.604  22.975  0.00  0.00    -0.090 C 
ATOM     24  C   UNL     1       4.554   0.526  22.825  0.00  0.00    +0.005 C 
ENDBRANCH  18  20
ENDBRANCH   2  18
ENDBRANCH  12   2
ENDBRANCH   6  12
BRANCH   8  13
ATOM     13  C   UNL     1      -3.795   4.134  25.803  0.00  0.00    +0.105 C 
BRANCH  13  17
ATOM      1  O   UNL     1      -3.787   1.723  25.429  0.00  0.00    -0.420 OA
ATOM      3  N   UNL     1      -5.816   2.585  25.807  0.00  0.00    -0.112 NA
ATOM      4  N   UNL     1      -5.960   1.223  25.613  0.00  0.00    -0.107 NA
ATOM     17  C   UNL     1      -4.533   2.831  25.690  0.00  0.00    +0.218 A 
ATOM     19  C   UNL     1      -4.751   0.762  25.396  0.00  0.00    +0.248 A 
BRANCH  19  21
ATOM     21  C   UNL     1      -4.297  -0.573  25.134  0.00  0.00    +0.038 A 
ATOM     22  C   UNL     1      -4.688  -1.226  23.965  0.00  0.00    +0.013 A 
ATOM     23  C   UNL     1      -3.463  -1.217  26.048  0.00  0.00    +0.013 A 
ATOM     25  C   UNL     1      -4.247  -2.524  23.710  0.00  0.00    +0.001 A 
ATOM     26  C   UNL     1      -3.022  -2.516  25.793  0.00  0.00    +0.001 A 
ATOM     27  C   UNL     1      -3.413  -3.169  24.624  0.00  0.00    +0.000 A 
ENDBRANCH  19  21
ENDBRANCH  13  17
ENDBRANCH   8  13
TORSDOF 8
ENDMDL
MODEL 7
REMARK VINA RESULT:      -3.7      3.241      6.508
REMARK  Name = 38030342
REMARK  11 active torsions:
REMARK  status: ('A' for Active; 'I' for Inactive)
REMARK    1  A    between atoms: N_2  and  C_12
REMARK    2  A    between atoms: N_2  and  C_18
REMARK    3  A    between atoms: C_5  and  C_9
REMARK    4  A    between atoms: C_6  and  C_12
REMARK    5  A    between atoms: C_8  and  C_13
REMARK    6  A    between atoms: C_9  and  C_14
REMARK    7  A    between atoms: C_9  and  C_15
REMARK    8  A    between atoms: C_10  and  C_16
REMARK    9  A    between atoms: C_13  and  C_17
REMARK   10  A    between atoms: C_18  and  C_20
REMARK   11  A    between atoms: C_19  and  C_21
REMARK                            x       y       z     vdW  Elec       q    Type
REMARK                         _______ _______ _______ _____ _____    ______ ____
ROOT
ATOM      5  C   UNL     1      -2.949   0.660  24.709  0.00  0.00    +0.000 C 
ATOM      6  C   UNL     1      -3.940   1.704  25.282  0.00  0.00    +0.029 C 
ATOM      7  C   UNL     1      -1.539   0.892  25.276  0.00  0.00    +0.012 C 
ATOM      8  C   UNL     1      -1.006   2.300  24.953  0.00  0.00    +0.024 C 
ATOM     10  C   UNL     1      -2.036   3.372  25.243  0.00  0.00    -0.073 C 
ATOM     11  C   UNL     1      -3.340   3.086  25.400  0.00  0.00    -0.023 C 
ATOM     16  C   UNL     1      -1.525   4.779  25.392  0.00  0.00    +0.039 C 
ENDROOT
BRANCH   5   9
ATOM      9  C   UNL     1      -3.398  -0.774  25.007  0.00  0.00    -0.013 C 
ATOM     14  C   UNL     1      -4.090  -1.379  23.790  0.00  0.00    +0.007 C 
ATOM     15  C   UNL     1      -2.208  -1.627  25.432  0.00  0.00    +0.007 C 
ENDBRANCH   5   9
BRANCH   6  12
ATOM     12  C   UNL     1      -5.219   1.772  24.441  0.00  0.00    +0.089 C 
BRANCH  12   2
ATOM      2  N   UNL     1      -6.395   1.692  25.290  0.00  0.00    -0.305 NA
ATOM     28  H   UNL     1      -7.239   1.830  24.734  0.00  0.00    +0.123 HD
BRANCH   2  18
ATOM     18  C   UNL     1      -6.350   2.694  26.348  0.00  0.00    +0.170 C 
BRANCH  18  20
ATOM     20  C   UNL     1      -6.224   4.042  25.787  0.00  0.00    -0.090 C 
ATOM     24  C   UNL     1      -6.124   5.150  25.333  0.00  0.00    +0.005 C 
ENDBRANCH  18  20
ENDBRANCH   2  18
ENDBRANCH  12   2
ENDBRANCH   6  12
BRANCH   8  13
ATOM     13  C   UNL     1      -0.516   2.385  23.503  0.00  0.00    +0.105 C 
BRANCH  13  17
ATOM      1  O   UNL     1       1.664   1.291  23.553  0.00  0.00    -0.420 OA
ATOM      3  N   UNL     1       0.074   0.118  22.503  0.00  0.00    -0.112 NA
ATOM      4  N   UNL     1       1.247  -0.614  22.455  0.00  0.00    -0.107 NA
ATOM     17  C   UNL     1       0.365   1.221  23.152  0.00  0.00    +0.218 A 
ATOM     19  C   UNL     1       2.147   0.109  23.079  0.00  0.00    +0.248 A 
BRANCH  19  21
ATOM     21  C   UNL     1       3.534  -0.150  23.336  0.00  0.00    +0.038 A 
ATOM     22  C   UNL     1       3.939  -1.414  23.763  0.00  0.00    +0.013 A 
ATOM     23  C   UNL     1       4.477   0.862  23.157  0.00  0.00    +0.013 A 
ATOM     25  C   UNL     1       5.288  -1.667  24.014  0.00  0.00    +0.001 A 
ATOM     26  C   UNL     1       5.826   0.610  23.408  0.00  0.00    +0.001 A 
ATOM     27  C   UNL     1       6.232  -0.655  23.835  0.00  0.00    +0.000 A 
ENDBRANCH  19  21
ENDBRANCH  13  17
ENDBRANCH   8  13
TORSDOF 8
ENDMDL
MODEL 8
REMARK VINA RESULT:      -3.6     15.487     18.609
REMARK  Name = 38030342
REMARK  11 active torsions:
REMARK  status: ('A' for Active; 'I' for Inactive)
REMARK    1  A    between atoms: N_2  and  C_12
REMARK    2  A    between atoms: N_2  and  C_18
REMARK    3  A    between atoms: C_5  and  C_9
REMARK    4  A    between atoms: C_6  and  C_12
REMARK    5  A    between atoms: C_8  and  C_13
REMARK    6  A    between atoms: C_9  and  C_14
REMARK    7  A    between atoms: C_9  and  C_15
REMARK    8  A    between atoms: C_10  and  C_16
REMARK    9  A    between atoms: C_13  and  C_17
REMARK   10  A    between atoms: C_18  and  C_20
REMARK   11  A    between atoms: C_19  and  C_21
REMARK                            x       y       z     vdW  Elec       q    Type
REMARK                         _______ _______ _______ _____ _____    ______ ____
ROOT
ATOM      5  C   UNL     1      -7.501  -9.887  13.478  0.00  0.00    +0.000 C 
ATOM      6  C   UNL     1      -8.969  -9.648  13.912  0.00  0.00    +0.029 C 
ATOM      7  C   UNL     1      -7.148  -9.006  12.270  0.00  0.00    +0.012 C 
ATOM      8  C   UNL     1      -8.065  -9.279  11.062  0.00  0.00    +0.024 C 
ATOM     10  C   UNL     1      -9.525  -9.324  11.463  0.00  0.00    -0.073 C 
ATOM     11  C   UNL     1      -9.910  -9.476  12.743  0.00  0.00    -0.023 C 
ATOM     16  C   UNL     1     -10.534  -9.145  10.363  0.00  0.00    +0.039 C 
ENDROOT
BRANCH   5   9
ATOM      9  C   UNL     1      -6.519  -9.617  14.622  0.00  0.00    -0.013 C 
ATOM     14  C   UNL     1      -7.034 -10.226  15.922  0.00  0.00    +0.007 C 
ATOM     15  C   UNL     1      -5.138 -10.165  14.279  0.00  0.00    +0.007 C 
ENDBRANCH   5   9
BRANCH   6  12
ATOM     12  C   UNL     1      -9.473 -10.781  14.811  0.00  0.00    +0.089 C 
BRANCH  12   2
ATOM      2  N   UNL     1     -10.713 -10.403  15.467  0.00  0.00    -0.305 NA
ATOM     28  H   UNL     1     -11.071  -9.536  15.067  0.00  0.00    +0.123 HD
BRANCH   2  18
ATOM     18  C   UNL     1     -10.516 -10.224  16.900  0.00  0.00    +0.170 C 
BRANCH  18  20
ATOM     20  C   UNL     1     -10.170  -8.834  17.211  0.00  0.00    -0.090 C 
ATOM     24  C   UNL     1      -9.879  -7.697  17.466  0.00  0.00    +0.005 C 
ENDBRANCH  18  20
ENDBRANCH   2  18
ENDBRANCH  12   2
ENDBRANCH   6  12
BRANCH   8  13
ATOM     13  C   UNL     1      -7.654 -10.565  10.338  0.00  0.00    +0.105 C 
BRANCH  13  17
ATOM      1  O   UNL     1      -5.304 -10.183  10.874  0.00  0.00    -0.420 OA
ATOM      3  N   UNL     1      -5.675 -10.768   8.747  0.00  0.00    -0.112 NA
ATOM      4  N   UNL     1      -4.314 -10.584   8.908  0.00  0.00    -0.107 NA
ATOM     17  C   UNL     1      -6.212 -10.523   9.918  0.00  0.00    +0.218 A 
ATOM     19  C   UNL     1      -4.144 -10.244  10.164  0.00  0.00    +0.248 A 
BRANCH  19  21
ATOM     21  C   UNL     1      -2.947  -9.933  10.891  0.00  0.00    +0.038 A 
ATOM     22  C   UNL     1      -1.938  -9.185  10.284  0.00  0.00    +0.013 A 
ATOM     23  C   UNL     1      -2.793 -10.378  12.203  0.00  0.00    +0.013 A 
ATOM     25  C   UNL     1      -0.774  -8.883  10.990  0.00  0.00    +0.001 A 
ATOM     26  C   UNL     1      -1.628 -10.076  12.910  0.00  0.00    +0.001 A 
ATOM     27  C   UNL     1      -0.619  -9.328  12.303  0.00  0.00    +0.000 A 
ENDBRANCH  19  21
ENDBRANCH  13  17
ENDBRANCH   8  13
TORSDOF 8
ENDMDL
MODEL 9
REMARK VINA RESULT:      -3.3      3.271      6.550
REMARK  Name = 38030342
REMARK  11 active torsions:
REMARK  status: ('A' for Active; 'I' for Inactive)
REMARK    1  A    between atoms: N_2  and  C_12
REMARK    2  A    between atoms: N_2  and  C_18
REMARK    3  A    between atoms: C_5  and  C_9
REMARK    4  A    between atoms: C_6  and  C_12
REMARK    5  A    between atoms: C_8  and  C_13
REMARK    6  A    between atoms: C_9  and  C_14
REMARK    7  A    between atoms: C_9  and  C_15
REMARK    8  A    between atoms: C_10  and  C_16
REMARK    9  A    between atoms: C_13  and  C_17
REMARK   10  A    between atoms: C_18  and  C_20
REMARK   11  A    between atoms: C_19  and  C_21
REMARK                            x       y       z     vdW  Elec       q    Type
REMARK                         _______ _______ _______ _____ _____    ______ ____
ROOT
ATOM      5  C   UNL     1      -2.956   1.668  23.739  0.00  0.00    +0.000 C 
ATOM      6  C   UNL     1      -4.286   1.485  24.511  0.00  0.00    +0.029 C 
ATOM      7  C   UNL     1      -2.601   0.384  22.971  0.00  0.00    +0.012 C 
ATOM      8  C   UNL     1      -2.461  -0.833  23.905  0.00  0.00    +0.024 C 
ATOM     10  C   UNL     1      -3.613  -0.926  24.884  0.00  0.00    -0.073 C 
ATOM     11  C   UNL     1      -4.426   0.115  25.132  0.00  0.00    -0.023 C 
ATOM     16  C   UNL     1      -3.837  -2.261  25.539  0.00  0.00    +0.039 C 
ENDROOT
BRANCH   5   9
ATOM      9  C   UNL     1      -3.019   2.851  22.768  0.00  0.00    -0.013 C 
ATOM     14  C   UNL     1      -2.724   2.389  21.344  0.00  0.00    +0.007 C 
ATOM     15  C   UNL     1      -4.383   3.530  22.844  0.00  0.00    +0.007 C 
ENDBRANCH   5   9
BRANCH   6  12
ATOM     12  C   UNL     1      -4.448   2.557  25.594  0.00  0.00    +0.089 C 
BRANCH  12   2
ATOM      2  N   UNL     1      -3.159   2.907  26.166  0.00  0.00    -0.305 NA
ATOM     28  H   UNL     1      -3.083   2.535  27.113  0.00  0.00    +0.123 HD
BRANCH   2  18
ATOM     18  C   UNL     1      -2.976   4.353  26.205  0.00  0.00    +0.170 C 
BRANCH  18  20
ATOM     20  C   UNL     1      -1.799   4.752  25.428  0.00  0.00    -0.090 C 
ATOM     24  C   UNL     1      -0.834   5.085  24.795  0.00  0.00    +0.005 C 
ENDBRANCH  18  20
ENDBRANCH   2  18
ENDBRANCH  12   2
ENDBRANCH   6  12
BRANCH   8  13
ATOM     13  C   UNL     1      -1.116  -0.812  24.639  0.00  0.00    +0.105 C 
BRANCH  13  17
ATOM      1  O   UNL     1       1.279  -0.614  24.214  0.00  0.00    -0.420 OA
ATOM      3  N   UNL     1      -0.002  -0.284  22.410  0.00  0.00    -0.112 NA
ATOM      4  N   UNL     1       1.319  -0.142  22.027  0.00  0.00    -0.107 NA
ATOM     17  C   UNL     1       0.023  -0.558  23.693  0.00  0.00    +0.218 A 
ATOM     19  C   UNL     1       2.031  -0.343  23.111  0.00  0.00    +0.248 A 
BRANCH  19  21
ATOM     21  C   UNL     1       3.451  -0.322  23.310  0.00  0.00    +0.038 A 
ATOM     22  C   UNL     1       4.098  -1.444  23.829  0.00  0.00    +0.013 A 
ATOM     23  C   UNL     1       4.184   0.818  22.984  0.00  0.00    +0.013 A 
ATOM     25  C   UNL     1       5.479  -1.424  24.023  0.00  0.00    +0.001 A 
ATOM     26  C   UNL     1       5.566   0.838  23.178  0.00  0.00    +0.001 A 
ATOM     27  C   UNL     1       6.213  -0.284  23.697  0.00  0.00    +0.000 A 
ENDBRANCH  19  21
ENDBRANCH  13  17
ENDBRANCH   8  13
TORSDOF 8
ENDMDL
MODEL 10
REMARK VINA RESULT:      -3.0      2.471      5.788
REMARK  Name = 38030342
REMARK  11 active torsions:
REMARK  status: ('A' for Active; 'I' for Inactive)
REMARK    1  A    between atoms: N_2  and  C_12
REMARK    2  A    between atoms: N_2  and  C_18
REMARK    3  A    between atoms: C_5  and  C_9
REMARK    4  A    between atoms: C_6  and  C_12
REMARK    5  A    between atoms: C_8  and  C_13
REMARK    6  A    between atoms: C_9  and  C_14
REMARK    7  A    between atoms: C_9  and  C_15
REMARK    8  A    between atoms: C_10  and  C_16
REMARK    9  A    between atoms: C_13  and  C_17
REMARK   10  A    between atoms: C_18  and  C_20
REMARK   11  A    between atoms: C_19  and  C_21
REMARK                            x       y       z     vdW  Elec       q    Type
REMARK                         _______ _______ _______ _____ _____    ______ ____
ROOT
ATOM      5  C   UNL     1      -4.510   2.122  25.312  0.00  0.00    +0.000 C 
ATOM      6  C   UNL     1      -4.290   0.831  24.485  0.00  0.00    +0.029 C 
ATOM      7  C   UNL     1      -4.678   3.333  24.382  0.00  0.00    +0.012 C 
ATOM      8  C   UNL     1      -3.455   3.540  23.469  0.00  0.00    +0.024 C 
ATOM     10  C   UNL     1      -3.011   2.246  22.820  0.00  0.00    -0.073 C 
ATOM     11  C   UNL     1      -3.405   1.044  23.279  0.00  0.00    -0.023 C 
ATOM     16  C   UNL     1      -2.138   2.364  21.602  0.00  0.00    +0.039 C 
ENDROOT
BRANCH   5   9
ATOM      9  C   UNL     1      -5.726   2.005  26.236  0.00  0.00    -0.013 C 
ATOM     14  C   UNL     1      -6.135   3.380  26.755  0.00  0.00    +0.007 C 
ATOM     15  C   UNL     1      -6.886   1.336  25.507  0.00  0.00    +0.007 C 
ENDBRANCH   5   9
BRANCH   6  12
ATOM     12  C   UNL     1      -3.709  -0.290  25.353  0.00  0.00    +0.089 C 
BRANCH  12   2
ATOM      2  N   UNL     1      -2.259  -0.218  25.382  0.00  0.00    -0.305 NA
ATOM     28  H   UNL     1      -1.928   0.472  24.707  0.00  0.00    +0.123 HD
BRANCH   2  18
ATOM     18  C   UNL     1      -1.661  -1.512  25.073  0.00  0.00    +0.170 C 
BRANCH  18  20
ATOM     20  C   UNL     1      -2.675  -2.456  24.592  0.00  0.00    -0.090 C 
ATOM     24  C   UNL     1      -3.509  -3.228  24.206  0.00  0.00    +0.005 C 
ENDBRANCH  18  20
ENDBRANCH   2  18
ENDBRANCH  12   2
ENDBRANCH   6  12
BRANCH   8  13
ATOM     13  C   UNL     1      -2.301   4.196  24.234  0.00  0.00    +0.105 C 
BRANCH  13  17
ATOM      1  O   UNL     1      -0.451   2.729  23.620  0.00  0.00    -0.420 OA
ATOM      3  N   UNL     1      -0.983   2.672  25.792  0.00  0.00    -0.112 NA
ATOM      4  N   UNL     1       0.071   1.800  25.588  0.00  0.00    -0.107 NA
ATOM     17  C   UNL     1      -1.254   3.190  24.618  0.00  0.00    +0.218 A 
ATOM     19  C   UNL     1       0.348   1.865  24.307  0.00  0.00    +0.248 A 
BRANCH  19  21
ATOM     21  C   UNL     1       1.343   1.181  23.534  0.00  0.00    +0.038 A 
ATOM     22  C   UNL     1       0.993   0.059  22.785  0.00  0.00    +0.013 A 
ATOM     23  C   UNL     1       2.660   1.641  23.530  0.00  0.00    +0.013 A 
ATOM     25  C   UNL     1       1.961  -0.607  22.032  0.00  0.00    +0.001 A 
ATOM     26  C   UNL     1       3.629   0.975  22.778  0.00  0.00    +0.001 A 
ATOM     27  C   UNL     1       3.279  -0.149  22.028  0.00  0.00    +0.000 A 
ENDBRANCH  19  21
ENDBRANCH  13  17
ENDBRANCH   8  13
TORSDOF 8
ENDMDL
