MODEL 1
REMARK VINA RESULT:      -4.6      0.000      0.000
REMARK  Name = 11912309
REMARK  9 active torsions:
REMARK  status: ('A' for Active; 'I' for Inactive)
REMARK    1  A    between atoms: O_4  and  C_21
REMARK    2  A    between atoms: O_4  and  C_25
REMARK    3  A    between atoms: N_6  and  C_18
REMARK    4  A    between atoms: C_7  and  C_13
REMARK    5  A    between atoms: C_8  and  C_12
REMARK    6  A    between atoms: C_12  and  C_14
REMARK    7  A    between atoms: C_13  and  C_16
REMARK    8  A    between atoms: C_15  and  C_17
REMARK    9  A    between atoms: C_18  and  C_21
REMARK                            x       y       z     vdW  Elec       q    Type
REMARK                         _______ _______ _______ _____ _____    ______ ____
ROOT
ATOM      2  O   UNL     1      -4.924  -1.136  24.350  0.00  0.00    -0.270 OA
ATOM      5  N   UNL     1      -2.752  -0.433  24.859  0.00  0.00    -0.297 N 
ATOM      7  C   UNL     1      -0.015  -0.552  23.919  0.00  0.00    +0.004 C 
ATOM      8  C   UNL     1      -0.691   0.807  24.232  0.00  0.00    +0.010 C 
ATOM      9  C   UNL     1      -1.049  -1.622  23.533  0.00  0.00    +0.023 C 
ATOM     10  C   UNL     1      -1.805   0.610  25.278  0.00  0.00    +0.112 C 
ATOM     11  C   UNL     1      -2.147  -1.736  24.586  0.00  0.00    +0.108 C 
ATOM     15  C   UNL     1      -4.129  -0.266  24.705  0.00  0.00    +0.247 C 
ENDROOT
BRANCH  15  17
ATOM      1  F   UNL     1      -6.306   4.774  25.789  0.00  0.00    -0.205 F 
ATOM     17  C   UNL     1      -4.701   1.056  24.988  0.00  0.00    +0.037 A 
ATOM     19  C   UNL     1      -5.721   1.187  25.931  0.00  0.00    +0.016 A 
ATOM     20  C   UNL     1      -4.223   2.181  24.317  0.00  0.00    +0.016 A 
ATOM     22  C   UNL     1      -6.263   2.443  26.201  0.00  0.00    +0.039 A 
ATOM     23  C   UNL     1      -4.765   3.437  24.587  0.00  0.00    +0.039 A 
ATOM     24  C   UNL     1      -5.786   3.568  25.529  0.00  0.00    +0.123 A 
ENDBRANCH  15  17
BRANCH   8  12
ATOM     12  C   UNL     1      -1.242   1.528  22.996  0.00  0.00    +0.002 C 
ATOM     14  C   UNL     1      -1.288   3.026  23.211  0.00  0.00    +0.004 C 
ENDBRANCH   8  12
BRANCH   7  13
ATOM     13  C   UNL     1       1.077  -0.449  22.855  0.00  0.00    +0.099 C 
BRANCH  13  16
ATOM      3  O   UNL     1       1.896   1.601  23.844  0.00  0.00    -0.276 OA
ATOM      6  N   UNL     1       3.380   0.196  22.737  0.00  0.00    -0.313 N 
ATOM     16  C   UNL     1       2.133   0.574  23.214  0.00  0.00    +0.213 C 
ATOM     26  H   UNL     1       3.469  -0.671  22.215  0.00  0.00    +0.149 HD
BRANCH   6  18
ATOM     18  C   UNL     1       4.573   0.986  22.932  0.00  0.00    +0.132 C 
BRANCH  18  21
ATOM     21  C   UNL     1       5.737   0.132  23.401  0.00  0.00    +0.178 C 
BRANCH  21   4
ATOM      4  O   UNL     1       5.302  -0.724  24.450  0.00  0.00    -0.381 OA
ATOM     25  C   UNL     1       4.741  -1.927  23.943  0.00  0.00    +0.194 C 
ENDBRANCH  21   4
ENDBRANCH  18  21
ENDBRANCH   6  18
ENDBRANCH  13  16
ENDBRANCH   7  13
TORSDOF 7
ENDMDL
MODEL 2
REMARK VINA RESULT:      -3.6      1.947      2.855
REMARK  Name = 11912309
REMARK  9 active torsions:
REMARK  status: ('A' for Active; 'I' for Inactive)
REMARK    1  A    between atoms: O_4  and  C_21
REMARK    2  A    between atoms: O_4  and  C_25
REMARK    3  A    between atoms: N_6  and  C_18
REMARK    4  A    between atoms: C_7  and  C_13
REMARK    5  A    between atoms: C_8  and  C_12
REMARK    6  A    between atoms: C_12  and  C_14
REMARK    7  A    between atoms: C_13  and  C_16
REMARK    8  A    between atoms: C_15  and  C_17
REMARK    9  A    between atoms: C_18  and  C_21
REMARK                            x       y       z     vdW  Elec       q    Type
REMARK                         _______ _______ _______ _____ _____    ______ ____
ROOT
ATOM      2  O   UNL     1      -2.027   4.365  25.897  0.00  0.00    -0.270 OA
ATOM      5  N   UNL     1      -1.645   2.860  24.148  0.00  0.00    -0.297 N 
ATOM      7  C   UNL     1       0.288   0.959  23.128  0.00  0.00    +0.004 C 
ATOM      8  C   UNL     1      -1.186   0.546  23.364  0.00  0.00    +0.010 C 
ATOM      9  C   UNL     1       0.704   2.121  24.046  0.00  0.00    +0.023 C 
ATOM     10  C   UNL     1      -2.101   1.781  23.260  0.00  0.00    +0.112 C 
ATOM     11  C   UNL     1      -0.266   3.293  23.928  0.00  0.00    +0.108 C 
ATOM     15  C   UNL     1      -2.407   3.466  25.148  0.00  0.00    +0.247 C 
ENDROOT
BRANCH  15  17
ATOM      1  F   UNL     1      -7.671   1.709  25.875  0.00  0.00    -0.205 F 
ATOM     17  C   UNL     1      -3.787   3.005  25.340  0.00  0.00    +0.037 A 
ATOM     19  C   UNL     1      -4.805   3.930  25.570  0.00  0.00    +0.016 A 
ATOM     20  C   UNL     1      -4.081   1.642  25.290  0.00  0.00    +0.016 A 
ATOM     22  C   UNL     1      -6.117   3.492  25.751  0.00  0.00    +0.039 A 
ATOM     23  C   UNL     1      -5.392   1.204  25.471  0.00  0.00    +0.039 A 
ATOM     24  C   UNL     1      -6.411   2.130  25.702  0.00  0.00    +0.123 A 
ENDBRANCH  15  17
BRANCH   8  12
ATOM     12  C   UNL     1      -1.424  -0.182  24.693  0.00  0.00    +0.002 C 
ATOM     14  C   UNL     1      -2.196  -1.467  24.483  0.00  0.00    +0.004 C 
ENDBRANCH   8  12
BRANCH   7  13
ATOM     13  C   UNL     1       1.267  -0.207  23.258  0.00  0.00    +0.099 C 
BRANCH  13  16
ATOM      3  O   UNL     1       2.649  -0.154  21.272  0.00  0.00    -0.276 OA
ATOM      6  N   UNL     1       3.564   0.469  23.317  0.00  0.00    -0.313 N 
ATOM     16  C   UNL     1       2.545   0.029  22.482  0.00  0.00    +0.213 C 
ATOM     26  H   UNL     1       3.379   0.578  24.310  0.00  0.00    +0.149 HD
BRANCH   6  18
ATOM     18  C   UNL     1       4.896   0.771  22.846  0.00  0.00    +0.132 C 
BRANCH  18  21
ATOM     21  C   UNL     1       5.950   0.375  23.863  0.00  0.00    +0.178 C 
BRANCH  21   4
ATOM      4  O   UNL     1       5.449  -0.679  24.675  0.00  0.00    -0.381 OA
ATOM     25  C   UNL     1       5.108  -1.818  23.897  0.00  0.00    +0.194 C 
ENDBRANCH  21   4
ENDBRANCH  18  21
ENDBRANCH   6  18
ENDBRANCH  13  16
ENDBRANCH   7  13
TORSDOF 7
ENDMDL
MODEL 3
REMARK VINA RESULT:      -2.4      3.462      6.918
REMARK  Name = 11912309
REMARK  9 active torsions:
REMARK  status: ('A' for Active; 'I' for Inactive)
REMARK    1  A    between atoms: O_4  and  C_21
REMARK    2  A    between atoms: O_4  and  C_25
REMARK    3  A    between atoms: N_6  and  C_18
REMARK    4  A    between atoms: C_7  and  C_13
REMARK    5  A    between atoms: C_8  and  C_12
REMARK    6  A    between atoms: C_12  and  C_14
REMARK    7  A    between atoms: C_13  and  C_16
REMARK    8  A    between atoms: C_15  and  C_17
REMARK    9  A    between atoms: C_18  and  C_21
REMARK                            x       y       z     vdW  Elec       q    Type
REMARK                         _______ _______ _______ _____ _____    ______ ____
ROOT
ATOM      2  O   UNL     1      -0.628  -0.858  26.552  0.00  0.00    -0.270 OA
ATOM      5  N   UNL     1      -2.344  -0.739  24.967  0.00  0.00    -0.297 N 
ATOM      7  C   UNL     1      -5.012   0.303  24.538  0.00  0.00    +0.004 C 
ATOM      8  C   UNL     1      -3.866   0.617  23.544  0.00  0.00    +0.010 C 
ATOM      9  C   UNL     1      -4.474   0.017  25.950  0.00  0.00    +0.023 C 
ATOM     10  C   UNL     1      -2.809  -0.502  23.593  0.00  0.00    +0.112 C 
ATOM     11  C   UNL     1      -3.400  -1.068  25.923  0.00  0.00    +0.108 C 
ATOM     15  C   UNL     1      -1.019  -0.666  25.401  0.00  0.00    +0.247 C 
ENDROOT
BRANCH  15  17
ATOM      1  F   UNL     1       2.923   0.602  21.637  0.00  0.00    -0.205 F 
ATOM     17  C   UNL     1       0.014  -0.334  24.413  0.00  0.00    +0.037 A 
ATOM     19  C   UNL     1       0.567   0.947  24.388  0.00  0.00    +0.016 A 
ATOM     20  C   UNL     1       0.444  -1.298  23.501  0.00  0.00    +0.016 A 
ATOM     22  C   UNL     1       1.550   1.262  23.450  0.00  0.00    +0.039 A 
ATOM     23  C   UNL     1       1.426  -0.982  22.563  0.00  0.00    +0.039 A 
ATOM     24  C   UNL     1       1.979   0.299  22.538  0.00  0.00    +0.123 A 
ENDBRANCH  15  17
BRANCH   8  12
ATOM     12  C   UNL     1      -3.205   1.983  23.765  0.00  0.00    +0.002 C 
ATOM     14  C   UNL     1      -2.379   2.393  22.564  0.00  0.00    +0.004 C 
ENDBRANCH   8  12
BRANCH   7  13
ATOM     13  C   UNL     1      -6.085   1.391  24.582  0.00  0.00    +0.099 C 
BRANCH  13  16
ATOM      3  O   UNL     1      -6.391   2.443  26.739  0.00  0.00    -0.276 OA
ATOM      6  N   UNL     1      -4.837   3.323  25.250  0.00  0.00    -0.313 N 
ATOM     16  C   UNL     1      -5.812   2.422  25.656  0.00  0.00    +0.213 C 
ATOM     26  H   UNL     1      -4.426   3.226  24.326  0.00  0.00    +0.149 HD
BRANCH   6  18
ATOM     18  C   UNL     1      -4.379   4.416  26.076  0.00  0.00    +0.132 C 
BRANCH  18  21
ATOM     21  C   UNL     1      -2.894   4.309  26.369  0.00  0.00    +0.178 C 
BRANCH  21   4
ATOM      4  O   UNL     1      -2.164   5.019  25.376  0.00  0.00    -0.381 OA
ATOM     25  C   UNL     1      -0.898   4.422  25.133  0.00  0.00    +0.194 C 
ENDBRANCH  21   4
ENDBRANCH  18  21
ENDBRANCH   6  18
ENDBRANCH  13  16
ENDBRANCH   7  13
TORSDOF 7
ENDMDL
MODEL 4
REMARK VINA RESULT:      -1.8      3.325      8.175
REMARK  Name = 11912309
REMARK  9 active torsions:
REMARK  status: ('A' for Active; 'I' for Inactive)
REMARK    1  A    between atoms: O_4  and  C_21
REMARK    2  A    between atoms: O_4  and  C_25
REMARK    3  A    between atoms: N_6  and  C_18
REMARK    4  A    between atoms: C_7  and  C_13
REMARK    5  A    between atoms: C_8  and  C_12
REMARK    6  A    between atoms: C_12  and  C_14
REMARK    7  A    between atoms: C_13  and  C_16
REMARK    8  A    between atoms: C_15  and  C_17
REMARK    9  A    between atoms: C_18  and  C_21
REMARK                            x       y       z     vdW  Elec       q    Type
REMARK                         _______ _______ _______ _____ _____    ______ ____
ROOT
ATOM      2  O   UNL     1       1.321  -0.240  21.016  0.00  0.00    -0.270 OA
ATOM      5  N   UNL     1       0.385   0.553  23.008  0.00  0.00    -0.297 N 
ATOM      7  C   UNL     1      -1.961   0.340  24.692  0.00  0.00    +0.004 C 
ATOM      8  C   UNL     1      -0.542   0.113  25.272  0.00  0.00    +0.010 C 
ATOM      9  C   UNL     1      -2.015   0.025  23.188  0.00  0.00    +0.023 C 
ATOM     10  C   UNL     1       0.496   0.885  24.435  0.00  0.00    +0.112 C 
ATOM     11  C   UNL     1      -0.935   0.786  22.424  0.00  0.00    +0.108 C 
ATOM     15  C   UNL     1       1.412   0.044  22.210  0.00  0.00    +0.247 C 
ENDROOT
BRANCH  15  17
ATOM      1  F   UNL     1       6.413  -0.796  24.576  0.00  0.00    -0.205 F 
ATOM     17  C   UNL     1       2.723  -0.177  22.829  0.00  0.00    +0.037 A 
ATOM     19  C   UNL     1       3.672   0.846  22.836  0.00  0.00    +0.016 A 
ATOM     20  C   UNL     1       3.021  -1.408  23.413  0.00  0.00    +0.016 A 
ATOM     22  C   UNL     1       4.919   0.637  23.427  0.00  0.00    +0.039 A 
ATOM     23  C   UNL     1       4.267  -1.618  24.002  0.00  0.00    +0.039 A 
ATOM     24  C   UNL     1       5.216  -0.595  24.009  0.00  0.00    +0.123 A 
ENDBRANCH  15  17
BRANCH   8  12
ATOM     12  C   UNL     1      -0.144  -1.364  25.383  0.00  0.00    +0.002 C 
ATOM     14  C   UNL     1      -1.127  -2.253  24.651  0.00  0.00    +0.004 C 
ENDBRANCH   8  12
BRANCH   7  13
ATOM     13  C   UNL     1      -3.047  -0.430  25.443  0.00  0.00    +0.099 C 
BRANCH  13  16
ATOM      3  O   UNL     1      -5.217  -0.614  24.389  0.00  0.00    -0.276 OA
ATOM      6  N   UNL     1      -4.702   1.291  25.618  0.00  0.00    -0.313 N 
ATOM     16  C   UNL     1      -4.439   0.040  25.078  0.00  0.00    +0.213 C 
ATOM     26  H   UNL     1      -3.984   1.756  26.166  0.00  0.00    +0.149 HD
BRANCH   6  18
ATOM     18  C   UNL     1      -5.956   1.985  25.428  0.00  0.00    +0.132 C 
BRANCH  18  21
ATOM     21  C   UNL     1      -5.775   3.490  25.494  0.00  0.00    +0.178 C 
BRANCH  21   4
ATOM      4  O   UNL     1      -4.393   3.794  25.641  0.00  0.00    -0.381 OA
ATOM     25  C   UNL     1      -3.757   3.947  24.379  0.00  0.00    +0.194 C 
ENDBRANCH  21   4
ENDBRANCH  18  21
ENDBRANCH   6  18
ENDBRANCH  13  16
ENDBRANCH   7  13
TORSDOF 7
ENDMDL
MODEL 5
REMARK VINA RESULT:      -0.9      3.582      6.599
REMARK  Name = 11912309
REMARK  9 active torsions:
REMARK  status: ('A' for Active; 'I' for Inactive)
REMARK    1  A    between atoms: O_4  and  C_21
REMARK    2  A    between atoms: O_4  and  C_25
REMARK    3  A    between atoms: N_6  and  C_18
REMARK    4  A    between atoms: C_7  and  C_13
REMARK    5  A    between atoms: C_8  and  C_12
REMARK    6  A    between atoms: C_12  and  C_14
REMARK    7  A    between atoms: C_13  and  C_16
REMARK    8  A    between atoms: C_15  and  C_17
REMARK    9  A    between atoms: C_18  and  C_21
REMARK                            x       y       z     vdW  Elec       q    Type
REMARK                         _______ _______ _______ _____ _____    ______ ____
ROOT
ATOM      2  O   UNL     1       0.152  -1.567  25.030  0.00  0.00    -0.270 OA
ATOM      5  N   UNL     1      -1.069   0.308  25.712  0.00  0.00    -0.297 N 
ATOM      7  C   UNL     1      -1.035   3.204  25.703  0.00  0.00    +0.004 C 
ATOM      8  C   UNL     1      -2.255   2.421  25.155  0.00  0.00    +0.010 C 
ATOM      9  C   UNL     1       0.259   2.381  25.598  0.00  0.00    +0.023 C 
ATOM     10  C   UNL     1      -2.338   1.040  25.833  0.00  0.00    +0.112 C 
ATOM     11  C   UNL     1       0.096   1.010  26.248  0.00  0.00    +0.108 C 
ATOM     15  C   UNL     1      -0.910  -0.954  25.138  0.00  0.00    +0.247 C 
ENDROOT
BRANCH  15  17
ATOM      1  F   UNL     1      -5.456  -3.521  23.123  0.00  0.00    -0.205 F 
ATOM     17  C   UNL     1      -2.102  -1.628  24.610  0.00  0.00    +0.037 A 
ATOM     19  C   UNL     1      -3.258  -0.893  24.345  0.00  0.00    +0.016 A 
ATOM     20  C   UNL     1      -2.080  -3.002  24.373  0.00  0.00    +0.016 A 
ATOM     22  C   UNL     1      -4.391  -1.533  23.842  0.00  0.00    +0.039 A 
ATOM     23  C   UNL     1      -3.213  -3.642  23.871  0.00  0.00    +0.039 A 
ATOM     24  C   UNL     1      -4.368  -2.907  23.605  0.00  0.00    +0.123 A 
ENDBRANCH  15  17
BRANCH   8  12
ATOM     12  C   UNL     1      -2.263   2.266  23.629  0.00  0.00    +0.002 C 
ATOM     14  C   UNL     1      -3.630   2.572  23.056  0.00  0.00    +0.004 C 
ENDBRANCH   8  12
BRANCH   7  13
ATOM     13  C   UNL     1      -0.857   4.573  25.047  0.00  0.00    +0.099 C 
BRANCH  13  16
ATOM      3  O   UNL     1      -2.217   6.527  24.612  0.00  0.00    -0.276 OA
ATOM      6  N   UNL     1      -3.154   4.704  25.710  0.00  0.00    -0.313 N 
ATOM     16  C   UNL     1      -2.127   5.395  25.082  0.00  0.00    +0.213 C 
ATOM     26  H   UNL     1      -2.974   3.774  26.076  0.00  0.00    +0.149 HD
BRANCH   6  18
ATOM     18  C   UNL     1      -4.480   5.250  25.888  0.00  0.00    +0.132 C 
BRANCH  18  21
ATOM     21  C   UNL     1      -5.551   4.254  25.482  0.00  0.00    +0.178 C 
BRANCH  21   4
ATOM      4  O   UNL     1      -5.475   3.110  26.325  0.00  0.00    -0.381 OA
ATOM     25  C   UNL     1      -5.951   1.945  25.665  0.00  0.00    +0.194 C 
ENDBRANCH  21   4
ENDBRANCH  18  21
ENDBRANCH   6  18
ENDBRANCH  13  16
ENDBRANCH   7  13
TORSDOF 7
ENDMDL
