MODEL 1
REMARK VINA RESULT:      -3.4      0.000      0.000
REMARK  Name = 38028091
REMARK  11 active torsions:
REMARK  status: ('A' for Active; 'I' for Inactive)
REMARK    1  A    between atoms: S_1  and  N_6
REMARK    2  A    between atoms: S_1  and  C_23
REMARK    3  A    between atoms: N_6  and  C_15
REMARK    4  A    between atoms: C_8  and  C_12
REMARK    5  A    between atoms: C_9  and  C_15
REMARK    6  A    between atoms: C_11  and  C_16
REMARK    7  A    between atoms: C_12  and  C_17
REMARK    8  A    between atoms: C_12  and  C_18
REMARK    9  A    between atoms: C_13  and  C_19
REMARK   10  A    between atoms: C_16  and  C_20
REMARK   11  A    between atoms: C_23  and  C_26
REMARK                            x       y       z     vdW  Elec       q    Type
REMARK                         _______ _______ _______ _____ _____    ______ ____
ROOT
ATOM      8  C   UNL     1      -2.256  -1.348  24.370  0.00  0.00    +0.000 C 
ATOM      9  C   UNL     1      -2.873  -0.467  25.485  0.00  0.00    +0.030 C 
ATOM     10  C   UNL     1      -0.758  -1.569  24.630  0.00  0.00    +0.012 C 
ATOM     11  C   UNL     1       0.024  -0.245  24.695  0.00  0.00    +0.023 C 
ATOM     13  C   UNL     1      -0.670   0.778  25.571  0.00  0.00    -0.073 C 
ATOM     14  C   UNL     1      -1.963   0.655  25.924  0.00  0.00    -0.023 C 
ATOM     19  C   UNL     1       0.167   1.923  26.070  0.00  0.00    +0.039 C 
ENDROOT
BRANCH   8  12
ATOM     12  C   UNL     1      -2.967  -2.700  24.255  0.00  0.00    -0.013 C 
ATOM     17  C   UNL     1      -3.214  -3.291  25.639  0.00  0.00    +0.007 C 
ATOM     18  C   UNL     1      -4.277  -2.549  23.489  0.00  0.00    +0.007 C 
ENDBRANCH   8  12
BRANCH   9  15
ATOM     15  C   UNL     1      -4.223   0.114  25.047  0.00  0.00    +0.113 C 
BRANCH  15   6
ATOM      6  N   UNL     1      -4.415   1.422  25.692  0.00  0.00    -0.194 NA
ATOM     32  H   UNL     1      -3.867   1.544  26.554  0.00  0.00    +0.148 HD
BRANCH   6   1
ATOM      1  S   UNL     1      -5.972   2.128  25.703  0.00  0.00    +0.033 S 
ATOM      4  O   UNL     1      -6.560   2.000  27.021  0.00  0.00    -0.158 OA
ATOM      5  O   UNL     1      -6.689   1.681  24.524  0.00  0.00    -0.158 OA
BRANCH   1  23
ATOM     23  C   UNL     1      -5.554   3.838  25.453  0.00  0.00    +0.220 C 
BRANCH  23  26
ATOM     26  C   UNL     1      -4.112   3.902  25.053  0.00  0.00    -0.025 A 
ATOM     27  C   UNL     1      -3.180   4.507  25.896  0.00  0.00    +0.005 A 
ATOM     28  C   UNL     1      -3.701   3.356  23.836  0.00  0.00    +0.005 A 
ATOM     29  C   UNL     1      -1.837   4.567  25.522  0.00  0.00    +0.000 A 
ATOM     30  C   UNL     1      -2.358   3.415  23.464  0.00  0.00    +0.000 A 
ATOM     31  C   UNL     1      -1.426   4.021  24.307  0.00  0.00    +0.000 A 
ENDBRANCH  23  26
ENDBRANCH   1  23
ENDBRANCH   6   1
ENDBRANCH  15   6
ENDBRANCH   9  15
BRANCH  11  16
ATOM     16  C   UNL     1       0.276   0.317  23.291  0.00  0.00    +0.103 C 
BRANCH  16  20
ATOM      2  O   UNL     1       1.442   2.375  23.456  0.00  0.00    -0.276 OA
ATOM      3  O   UNL     1       5.182  -0.862  23.497  0.00  0.00    -0.377 OA
ATOM      7  N   UNL     1       2.732   0.476  23.109  0.00  0.00    -0.297 N 
ATOM     20  C   UNL     1       1.530   1.156  23.292  0.00  0.00    +0.216 C 
ATOM     21  C   UNL     1       2.863  -0.949  22.786  0.00  0.00    +0.136 C 
ATOM     22  C   UNL     1       3.996   1.212  23.102  0.00  0.00    +0.136 C 
ATOM     24  C   UNL     1       3.955  -1.584  23.638  0.00  0.00    +0.179 C 
ATOM     25  C   UNL     1       5.036   0.489  23.945  0.00  0.00    +0.179 C 
ENDBRANCH  16  20
ENDBRANCH  11  16
TORSDOF 8
ENDMDL
MODEL 2
REMARK VINA RESULT:      -2.3      1.979      6.960
REMARK  Name = 38028091
REMARK  11 active torsions:
REMARK  status: ('A' for Active; 'I' for Inactive)
REMARK    1  A    between atoms: S_1  and  N_6
REMARK    2  A    between atoms: S_1  and  C_23
REMARK    3  A    between atoms: N_6  and  C_15
REMARK    4  A    between atoms: C_8  and  C_12
REMARK    5  A    between atoms: C_9  and  C_15
REMARK    6  A    between atoms: C_11  and  C_16
REMARK    7  A    between atoms: C_12  and  C_17
REMARK    8  A    between atoms: C_12  and  C_18
REMARK    9  A    between atoms: C_13  and  C_19
REMARK   10  A    between atoms: C_16  and  C_20
REMARK   11  A    between atoms: C_23  and  C_26
REMARK                            x       y       z     vdW  Elec       q    Type
REMARK                         _______ _______ _______ _____ _____    ______ ____
ROOT
ATOM      8  C   UNL     1      -1.815  -0.571  25.328  0.00  0.00    +0.000 C 
ATOM      9  C   UNL     1      -1.496  -1.961  24.723  0.00  0.00    +0.030 C 
ATOM     10  C   UNL     1      -3.202  -0.578  25.989  0.00  0.00    +0.012 C 
ATOM     11  C   UNL     1      -4.319  -0.945  24.995  0.00  0.00    +0.023 C 
ATOM     13  C   UNL     1      -3.958  -2.162  24.166  0.00  0.00    -0.073 C 
ATOM     14  C   UNL     1      -2.693  -2.608  24.067  0.00  0.00    -0.023 C 
ATOM     19  C   UNL     1      -5.091  -2.880  23.488  0.00  0.00    +0.039 C 
ENDROOT
BRANCH   8  12
ATOM     12  C   UNL     1      -0.757  -0.139  26.348  0.00  0.00    -0.013 C 
ATOM     17  C   UNL     1      -0.785   1.376  26.535  0.00  0.00    +0.007 C 
ATOM     18  C   UNL     1      -0.976  -0.852  27.678  0.00  0.00    +0.007 C 
ENDBRANCH   8  12
BRANCH   9  15
ATOM     15  C   UNL     1      -0.345  -1.875  23.715  0.00  0.00    +0.113 C 
BRANCH  15   6
ATOM      6  N   UNL     1       0.592  -0.825  24.144  0.00  0.00    -0.194 NA
ATOM     32  H   UNL     1       0.601  -0.667  25.160  0.00  0.00    +0.148 HD
BRANCH   6   1
ATOM      1  S   UNL     1       0.779   0.573  23.180  0.00  0.00    +0.033 S 
ATOM      4  O   UNL     1       1.370   1.637  23.967  0.00  0.00    -0.158 OA
ATOM      5  O   UNL     1      -0.450   0.792  22.441  0.00  0.00    -0.158 OA
BRANCH   1  23
ATOM     23  C   UNL     1       2.002   0.007  22.020  0.00  0.00    +0.220 C 
BRANCH  23  26
ATOM     26  C   UNL     1       3.300  -0.128  22.755  0.00  0.00    -0.025 A 
ATOM     27  C   UNL     1       4.180   0.952  22.820  0.00  0.00    +0.005 A 
ATOM     28  C   UNL     1       3.628  -1.334  23.374  0.00  0.00    +0.005 A 
ATOM     29  C   UNL     1       5.390   0.826  23.504  0.00  0.00    +0.000 A 
ATOM     30  C   UNL     1       4.837  -1.460  24.059  0.00  0.00    +0.000 A 
ATOM     31  C   UNL     1       5.718  -0.380  24.123  0.00  0.00    +0.000 A 
ENDBRANCH  23  26
ENDBRANCH   1  23
ENDBRANCH   6   1
ENDBRANCH  15   6
ENDBRANCH   9  15
BRANCH  11  16
ATOM     16  C   UNL     1      -4.673   0.245  24.098  0.00  0.00    +0.103 C 
BRANCH  16  20
ATOM      2  O   UNL     1      -5.921   1.410  25.743  0.00  0.00    -0.276 OA
ATOM      3  O   UNL     1      -2.135   4.510  25.026  0.00  0.00    -0.377 OA
ATOM      7  N   UNL     1      -4.155   2.562  24.771  0.00  0.00    -0.297 N 
ATOM     20  C   UNL     1      -4.980   1.453  24.947  0.00  0.00    +0.216 C 
ATOM     21  C   UNL     1      -3.111   2.693  23.750  0.00  0.00    +0.136 C 
ATOM     22  C   UNL     1      -4.379   3.774  25.558  0.00  0.00    +0.136 C 
ATOM     24  C   UNL     1      -1.844   3.278  24.361  0.00  0.00    +0.179 C 
ATOM     25  C   UNL     1      -3.061   4.309  26.097  0.00  0.00    +0.179 C 
ENDBRANCH  16  20
ENDBRANCH  11  16
TORSDOF 8
ENDMDL
MODEL 3
REMARK VINA RESULT:      -0.6      2.589      5.883
REMARK  Name = 38028091
REMARK  11 active torsions:
REMARK  status: ('A' for Active; 'I' for Inactive)
REMARK    1  A    between atoms: S_1  and  N_6
REMARK    2  A    between atoms: S_1  and  C_23
REMARK    3  A    between atoms: N_6  and  C_15
REMARK    4  A    between atoms: C_8  and  C_12
REMARK    5  A    between atoms: C_9  and  C_15
REMARK    6  A    between atoms: C_11  and  C_16
REMARK    7  A    between atoms: C_12  and  C_17
REMARK    8  A    between atoms: C_12  and  C_18
REMARK    9  A    between atoms: C_13  and  C_19
REMARK   10  A    between atoms: C_16  and  C_20
REMARK   11  A    between atoms: C_23  and  C_26
REMARK                            x       y       z     vdW  Elec       q    Type
REMARK                         _______ _______ _______ _____ _____    ______ ____
ROOT
ATOM      8  C   UNL     1      -3.422   2.431  23.770  0.00  0.00    +0.000 C 
ATOM      9  C   UNL     1      -3.822   3.753  24.472  0.00  0.00    +0.030 C 
ATOM     10  C   UNL     1      -4.649   1.522  23.599  0.00  0.00    +0.012 C 
ATOM     11  C   UNL     1      -5.311   1.178  24.945  0.00  0.00    +0.023 C 
ATOM     13  C   UNL     1      -5.496   2.407  25.812  0.00  0.00    -0.073 C 
ATOM     14  C   UNL     1      -4.832   3.553  25.578  0.00  0.00    -0.023 C 
ATOM     19  C   UNL     1      -6.496   2.303  26.930  0.00  0.00    +0.039 C 
ENDROOT
BRANCH   8  12
ATOM     12  C   UNL     1      -2.771   2.685  22.407  0.00  0.00    -0.013 C 
ATOM     17  C   UNL     1      -2.419   1.363  21.731  0.00  0.00    +0.007 C 
ATOM     18  C   UNL     1      -3.694   3.517  21.522  0.00  0.00    +0.007 C 
ENDBRANCH   8  12
BRANCH   9  15
ATOM     15  C   UNL     1      -2.592   4.478  25.028  0.00  0.00    +0.113 C 
BRANCH  15   6
ATOM      6  N   UNL     1      -1.803   3.536  25.836  0.00  0.00    -0.194 NA
ATOM     32  H   UNL     1      -1.881   3.692  26.850  0.00  0.00    +0.148 HD
BRANCH   6   1
ATOM      1  S   UNL     1      -0.262   3.048  25.283  0.00  0.00    +0.033 S 
ATOM      4  O   UNL     1       0.656   2.955  26.401  0.00  0.00    -0.158 OA
ATOM      5  O   UNL     1       0.076   3.830  24.109  0.00  0.00    -0.158 OA
BRANCH   1  23
ATOM     23  C   UNL     1      -0.623   1.396  24.733  0.00  0.00    +0.220 C 
BRANCH  23  26
ATOM     26  C   UNL     1       0.500   0.955  23.844  0.00  0.00    -0.025 A 
ATOM     27  C   UNL     1       1.749   1.567  23.943  0.00  0.00    +0.005 A 
ATOM     28  C   UNL     1       0.295  -0.068  22.918  0.00  0.00    +0.005 A 
ATOM     29  C   UNL     1       2.795   1.157  23.115  0.00  0.00    +0.000 A 
ATOM     30  C   UNL     1       1.340  -0.478  22.090  0.00  0.00    +0.000 A 
ATOM     31  C   UNL     1       2.590   0.135  22.189  0.00  0.00    +0.000 A 
ENDBRANCH  23  26
ENDBRANCH   1  23
ENDBRANCH   6   1
ENDBRANCH  15   6
ENDBRANCH   9  15
BRANCH  11  16
ATOM     16  C   UNL     1      -4.522   0.096  25.689  0.00  0.00    +0.103 C 
BRANCH  16  20
ATOM      2  O   UNL     1      -4.922  -1.253  23.780  0.00  0.00    -0.276 OA
ATOM      3  O   UNL     1      -0.413  -2.783  25.118  0.00  0.00    -0.377 OA
ATOM      7  N   UNL     1      -3.041  -1.769  25.040  0.00  0.00    -0.297 N 
ATOM     20  C   UNL     1      -4.188  -1.034  24.747  0.00  0.00    +0.216 C 
ATOM     21  C   UNL     1      -2.219  -1.618  26.245  0.00  0.00    +0.136 C 
ATOM     22  C   UNL     1      -2.641  -2.878  24.175  0.00  0.00    +0.136 C 
ATOM     24  C   UNL     1      -0.740  -1.616  25.878  0.00  0.00    +0.179 C 
ATOM     25  C   UNL     1      -1.148  -2.819  23.892  0.00  0.00    +0.179 C 
ENDBRANCH  16  20
ENDBRANCH  11  16
TORSDOF 8
ENDMDL
MODEL 4
REMARK VINA RESULT:      -0.5      1.857      2.212
REMARK  Name = 38028091
REMARK  11 active torsions:
REMARK  status: ('A' for Active; 'I' for Inactive)
REMARK    1  A    between atoms: S_1  and  N_6
REMARK    2  A    between atoms: S_1  and  C_23
REMARK    3  A    between atoms: N_6  and  C_15
REMARK    4  A    between atoms: C_8  and  C_12
REMARK    5  A    between atoms: C_9  and  C_15
REMARK    6  A    between atoms: C_11  and  C_16
REMARK    7  A    between atoms: C_12  and  C_17
REMARK    8  A    between atoms: C_12  and  C_18
REMARK    9  A    between atoms: C_13  and  C_19
REMARK   10  A    between atoms: C_16  and  C_20
REMARK   11  A    between atoms: C_23  and  C_26
REMARK                            x       y       z     vdW  Elec       q    Type
REMARK                         _______ _______ _______ _____ _____    ______ ____
ROOT
ATOM      8  C   UNL     1      -2.135  -1.273  24.287  0.00  0.00    +0.000 C 
ATOM      9  C   UNL     1      -2.791  -0.109  25.072  0.00  0.00    +0.030 C 
ATOM     10  C   UNL     1      -0.723  -1.552  24.825  0.00  0.00    +0.012 C 
ATOM     11  C   UNL     1       0.193  -0.318  24.726  0.00  0.00    +0.023 C 
ATOM     13  C   UNL     1      -0.490   0.934  25.238  0.00  0.00    -0.073 C 
ATOM     14  C   UNL     1      -1.824   1.004  25.398  0.00  0.00    -0.023 C 
ATOM     19  C   UNL     1       0.399   2.089  25.605  0.00  0.00    +0.039 C 
ENDROOT
BRANCH   8  12
ATOM     12  C   UNL     1      -2.977  -2.550  24.354  0.00  0.00    -0.013 C 
ATOM     17  C   UNL     1      -3.242  -2.937  25.806  0.00  0.00    +0.007 C 
ATOM     18  C   UNL     1      -4.287  -2.366  23.596  0.00  0.00    +0.007 C 
ENDBRANCH   8  12
BRANCH   9  15
ATOM     15  C   UNL     1      -3.991   0.465  24.309  0.00  0.00    +0.113 C 
BRANCH  15   6
ATOM      6  N   UNL     1      -3.636   0.602  22.888  0.00  0.00    -0.194 NA
ATOM     32  H   UNL     1      -3.286  -0.266  22.462  0.00  0.00    +0.148 HD
BRANCH   6   1
ATOM      1  S   UNL     1      -2.887   2.040  22.349  0.00  0.00    +0.033 S 
ATOM      4  O   UNL     1      -2.845   2.058  20.900  0.00  0.00    -0.158 OA
ATOM      5  O   UNL     1      -1.684   2.254  23.129  0.00  0.00    -0.158 OA
BRANCH   1  23
ATOM     23  C   UNL     1      -4.083   3.246  22.876  0.00  0.00    +0.220 C 
BRANCH  23  26
ATOM     26  C   UNL     1      -3.706   3.688  24.257  0.00  0.00    -0.025 A 
ATOM     27  C   UNL     1      -2.479   4.312  24.479  0.00  0.00    +0.005 A 
ATOM     28  C   UNL     1      -4.583   3.473  25.321  0.00  0.00    +0.005 A 
ATOM     29  C   UNL     1      -2.128   4.723  25.766  0.00  0.00    +0.000 A 
ATOM     30  C   UNL     1      -4.233   3.884  26.607  0.00  0.00    +0.000 A 
ATOM     31  C   UNL     1      -3.005   4.509  26.829  0.00  0.00    +0.000 A 
ENDBRANCH  23  26
ENDBRANCH   1  23
ENDBRANCH   6   1
ENDBRANCH  15   6
ENDBRANCH   9  15
BRANCH  11  16
ATOM     16  C   UNL     1       0.699  -0.119  23.293  0.00  0.00    +0.103 C 
BRANCH  16  20
ATOM      2  O   UNL     1       1.718   2.020  23.386  0.00  0.00    -0.276 OA
ATOM      3  O   UNL     1       5.659  -0.947  23.748  0.00  0.00    -0.377 OA
ATOM      7  N   UNL     1       3.144   0.198  23.194  0.00  0.00    -0.297 N 
ATOM     20  C   UNL     1       1.893   0.802  23.294  0.00  0.00    +0.216 C 
ATOM     21  C   UNL     1       3.383  -1.230  22.956  0.00  0.00    +0.136 C 
ATOM     22  C   UNL     1       4.355   1.017  23.193  0.00  0.00    +0.136 C 
ATOM     24  C   UNL     1       4.478  -1.743  23.883  0.00  0.00    +0.179 C 
ATOM     25  C   UNL     1       5.406   0.412  24.113  0.00  0.00    +0.179 C 
ENDBRANCH  16  20
ENDBRANCH  11  16
TORSDOF 8
ENDMDL
MODEL 5
REMARK VINA RESULT:      -0.5      2.526      6.412
REMARK  Name = 38028091
REMARK  11 active torsions:
REMARK  status: ('A' for Active; 'I' for Inactive)
REMARK    1  A    between atoms: S_1  and  N_6
REMARK    2  A    between atoms: S_1  and  C_23
REMARK    3  A    between atoms: N_6  and  C_15
REMARK    4  A    between atoms: C_8  and  C_12
REMARK    5  A    between atoms: C_9  and  C_15
REMARK    6  A    between atoms: C_11  and  C_16
REMARK    7  A    between atoms: C_12  and  C_17
REMARK    8  A    between atoms: C_12  and  C_18
REMARK    9  A    between atoms: C_13  and  C_19
REMARK   10  A    between atoms: C_16  and  C_20
REMARK   11  A    between atoms: C_23  and  C_26
REMARK                            x       y       z     vdW  Elec       q    Type
REMARK                         _______ _______ _______ _____ _____    ______ ____
ROOT
ATOM      8  C   UNL     1      -3.917  -0.312  24.626  0.00  0.00    +0.000 C 
ATOM      9  C   UNL     1      -3.354  -0.025  23.212  0.00  0.00    +0.030 C 
ATOM     10  C   UNL     1      -5.151   0.562  24.900  0.00  0.00    +0.012 C 
ATOM     11  C   UNL     1      -4.835   2.065  24.796  0.00  0.00    +0.023 C 
ATOM     13  C   UNL     1      -4.040   2.389  23.547  0.00  0.00    -0.073 C 
ATOM     14  C   UNL     1      -3.396   1.440  22.845  0.00  0.00    -0.023 C 
ATOM     19  C   UNL     1      -4.040   3.824  23.098  0.00  0.00    +0.039 C 
ENDROOT
BRANCH   8  12
ATOM     12  C   UNL     1      -4.279  -1.789  24.805  0.00  0.00    -0.013 C 
ATOM     17  C   UNL     1      -4.415  -2.472  23.447  0.00  0.00    +0.007 C 
ATOM     18  C   UNL     1      -3.233  -2.494  25.663  0.00  0.00    +0.007 C 
ENDBRANCH   8  12
BRANCH   9  15
ATOM     15  C   UNL     1      -1.919  -0.546  23.071  0.00  0.00    +0.113 C 
BRANCH  15   6
ATOM      6  N   UNL     1      -0.984   0.584  23.188  0.00  0.00    -0.194 NA
ATOM     32  H   UNL     1      -0.981   1.207  22.370  0.00  0.00    +0.148 HD
BRANCH   6   1
ATOM      1  S   UNL     1       0.534   0.338  23.932  0.00  0.00    +0.033 S 
ATOM      4  O   UNL     1       0.470  -0.815  24.809  0.00  0.00    -0.158 OA
ATOM      5  O   UNL     1       1.022   1.614  24.420  0.00  0.00    -0.158 OA
BRANCH   1  23
ATOM     23  C   UNL     1       1.520  -0.102  22.520  0.00  0.00    +0.220 C 
BRANCH  23  26
ATOM     26  C   UNL     1       2.950  -0.166  22.963  0.00  0.00    -0.025 A 
ATOM     27  C   UNL     1       3.775   0.949  22.816  0.00  0.00    +0.005 A 
ATOM     28  C   UNL     1       3.454  -1.340  23.522  0.00  0.00    +0.005 A 
ATOM     29  C   UNL     1       5.107   0.889  23.228  0.00  0.00    +0.000 A 
ATOM     30  C   UNL     1       4.786  -1.399  23.935  0.00  0.00    +0.000 A 
ATOM     31  C   UNL     1       5.612  -0.284  23.787  0.00  0.00    +0.000 A 
ENDBRANCH  23  26
ENDBRANCH   1  23
ENDBRANCH   6   1
ENDBRANCH  15   6
ENDBRANCH   9  15
BRANCH  11  16
ATOM     16  C   UNL     1      -4.112   2.566  26.051  0.00  0.00    +0.103 C 
BRANCH  16  20
ATOM      2  O   UNL     1      -2.095   1.342  25.809  0.00  0.00    -0.276 OA
ATOM      3  O   UNL     1      -0.573   5.933  24.770  0.00  0.00    -0.377 OA
ATOM      7  N   UNL     1      -1.919   3.657  25.745  0.00  0.00    -0.297 N 
ATOM     20  C   UNL     1      -2.619   2.457  25.860  0.00  0.00    +0.216 C 
ATOM     21  C   UNL     1      -2.490   4.995  25.926  0.00  0.00    +0.136 C 
ATOM     22  C   UNL     1      -0.470   3.643  25.552  0.00  0.00    +0.136 C 
ATOM     24  C   UNL     1      -2.003   5.930  24.826  0.00  0.00    +0.179 C 
ATOM     25  C   UNL     1      -0.070   4.629  24.465  0.00  0.00    +0.179 C 
ENDBRANCH  16  20
ENDBRANCH  11  16
TORSDOF 8
ENDMDL
MODEL 6
REMARK VINA RESULT:      -0.3      1.347      2.630
REMARK  Name = 38028091
REMARK  11 active torsions:
REMARK  status: ('A' for Active; 'I' for Inactive)
REMARK    1  A    between atoms: S_1  and  N_6
REMARK    2  A    between atoms: S_1  and  C_23
REMARK    3  A    between atoms: N_6  and  C_15
REMARK    4  A    between atoms: C_8  and  C_12
REMARK    5  A    between atoms: C_9  and  C_15
REMARK    6  A    between atoms: C_11  and  C_16
REMARK    7  A    between atoms: C_12  and  C_17
REMARK    8  A    between atoms: C_12  and  C_18
REMARK    9  A    between atoms: C_13  and  C_19
REMARK   10  A    between atoms: C_16  and  C_20
REMARK   11  A    between atoms: C_23  and  C_26
REMARK                            x       y       z     vdW  Elec       q    Type
REMARK                         _______ _______ _______ _____ _____    ______ ____
ROOT
ATOM      8  C   UNL     1      -2.598   1.089  23.345  0.00  0.00    +0.000 C 
ATOM      9  C   UNL     1      -3.595   0.043  23.903  0.00  0.00    +0.030 C 
ATOM     10  C   UNL     1      -1.401   0.389  22.683  0.00  0.00    +0.012 C 
ATOM     11  C   UNL     1      -0.648  -0.530  23.662  0.00  0.00    +0.023 C 
ATOM     13  C   UNL     1      -1.597  -1.412  24.450  0.00  0.00    -0.073 C 
ATOM     14  C   UNL     1      -2.913  -1.147  24.535  0.00  0.00    -0.023 C 
ATOM     19  C   UNL     1      -1.005  -2.631  25.101  0.00  0.00    +0.039 C 
ENDROOT
BRANCH   8  12
ATOM     12  C   UNL     1      -3.266   2.034  22.342  0.00  0.00    -0.013 C 
ATOM     17  C   UNL     1      -3.388   3.436  22.932  0.00  0.00    +0.007 C 
ATOM     18  C   UNL     1      -2.482   2.064  21.034  0.00  0.00    +0.007 C 
ENDBRANCH   8  12
BRANCH   9  15
ATOM     15  C   UNL     1      -4.555   0.679  24.915  0.00  0.00    +0.113 C 
BRANCH  15   6
ATOM      6  N   UNL     1      -4.267   2.118  25.012  0.00  0.00    -0.194 NA
ATOM     32  H   UNL     1      -3.264   2.342  25.007  0.00  0.00    +0.148 HD
BRANCH   6   1
ATOM      1  S   UNL     1      -5.235   3.098  26.024  0.00  0.00    +0.033 S 
ATOM      4  O   UNL     1      -6.147   2.266  26.786  0.00  0.00    -0.158 OA
ATOM      5  O   UNL     1      -5.727   4.219  25.248  0.00  0.00    -0.158 OA
BRANCH   1  23
ATOM     23  C   UNL     1      -4.003   3.725  27.142  0.00  0.00    +0.220 C 
BRANCH  23  26
ATOM     26  C   UNL     1      -2.799   4.097  26.332  0.00  0.00    -0.025 A 
ATOM     27  C   UNL     1      -1.738   3.201  26.209  0.00  0.00    +0.005 A 
ATOM     28  C   UNL     1      -2.740   5.340  25.702  0.00  0.00    +0.005 A 
ATOM     29  C   UNL     1      -0.616   3.547  25.454  0.00  0.00    +0.000 A 
ATOM     30  C   UNL     1      -1.619   5.686  24.947  0.00  0.00    +0.000 A 
ATOM     31  C   UNL     1      -0.556   4.790  24.824  0.00  0.00    +0.000 A 
ENDBRANCH  23  26
ENDBRANCH   1  23
ENDBRANCH   6   1
ENDBRANCH  15   6
ENDBRANCH   9  15
BRANCH  11  16
ATOM     16  C   UNL     1       0.252   0.281  24.600  0.00  0.00    +0.103 C 
BRANCH  16  20
ATOM      2  O   UNL     1       1.035   2.269  23.570  0.00  0.00    -0.276 OA
ATOM      3  O   UNL     1       4.964  -0.693  23.067  0.00  0.00    -0.377 OA
ATOM      7  N   UNL     1       2.376   0.387  23.347  0.00  0.00    -0.297 N 
ATOM     20  C   UNL     1       1.249   1.075  23.793  0.00  0.00    +0.216 C 
ATOM     21  C   UNL     1       2.601  -1.056  23.484  0.00  0.00    +0.136 C 
ATOM     22  C   UNL     1       3.396   1.082  22.562  0.00  0.00    +0.136 C 
ATOM     24  C   UNL     1       4.028  -1.326  23.945  0.00  0.00    +0.179 C 
ATOM     25  C   UNL     1       4.787   0.726  23.066  0.00  0.00    +0.179 C 
ENDBRANCH  16  20
ENDBRANCH  11  16
TORSDOF 8
ENDMDL
MODEL 7
REMARK VINA RESULT:       0.3      1.545      4.726
REMARK  Name = 38028091
REMARK  11 active torsions:
REMARK  status: ('A' for Active; 'I' for Inactive)
REMARK    1  A    between atoms: S_1  and  N_6
REMARK    2  A    between atoms: S_1  and  C_23
REMARK    3  A    between atoms: N_6  and  C_15
REMARK    4  A    between atoms: C_8  and  C_12
REMARK    5  A    between atoms: C_9  and  C_15
REMARK    6  A    between atoms: C_11  and  C_16
REMARK    7  A    between atoms: C_12  and  C_17
REMARK    8  A    between atoms: C_12  and  C_18
REMARK    9  A    between atoms: C_13  and  C_19
REMARK   10  A    between atoms: C_16  and  C_20
REMARK   11  A    between atoms: C_23  and  C_26
REMARK                            x       y       z     vdW  Elec       q    Type
REMARK                         _______ _______ _______ _____ _____    ______ ____
ROOT
ATOM      8  C   UNL     1      -2.177   3.601  25.002  0.00  0.00    +0.000 C 
ATOM      9  C   UNL     1      -3.334   3.876  24.008  0.00  0.00    +0.030 C 
ATOM     10  C   UNL     1      -0.901   3.205  24.243  0.00  0.00    +0.012 C 
ATOM     11  C   UNL     1      -1.106   1.951  23.372  0.00  0.00    +0.023 C 
ATOM     13  C   UNL     1      -2.381   2.034  22.556  0.00  0.00    -0.073 C 
ATOM     14  C   UNL     1      -3.360   2.909  22.848  0.00  0.00    -0.023 C 
ATOM     19  C   UNL     1      -2.485   1.118  21.369  0.00  0.00    +0.039 C 
ENDROOT
BRANCH   8  12
ATOM     12  C   UNL     1      -1.894   4.812  25.895  0.00  0.00    -0.013 C 
ATOM     17  C   UNL     1      -1.689   6.063  25.046  0.00  0.00    +0.007 C 
ATOM     18  C   UNL     1      -3.029   5.016  26.893  0.00  0.00    +0.007 C 
ENDBRANCH   8  12
BRANCH   9  15
ATOM     15  C   UNL     1      -4.691   3.855  24.720  0.00  0.00    +0.113 C 
BRANCH  15   6
ATOM      6  N   UNL     1      -5.462   2.693  24.251  0.00  0.00    -0.194 NA
ATOM     32  H   UNL     1      -6.224   2.934  23.605  0.00  0.00    +0.148 HD
BRANCH   6   1
ATOM      1  S   UNL     1      -5.794   1.417  25.339  0.00  0.00    +0.033 S 
ATOM      4  O   UNL     1      -6.424   0.320  24.631  0.00  0.00    -0.158 OA
ATOM      5  O   UNL     1      -6.400   1.974  26.533  0.00  0.00    -0.158 OA
BRANCH   1  23
ATOM     23  C   UNL     1      -4.142   0.917  25.766  0.00  0.00    +0.220 C 
BRANCH  23  26
ATOM     26  C   UNL     1      -3.944  -0.480  25.262  0.00  0.00    -0.025 A 
ATOM     27  C   UNL     1      -3.380  -1.448  26.093  0.00  0.00    +0.005 A 
ATOM     28  C   UNL     1      -4.322  -0.811  23.960  0.00  0.00    +0.005 A 
ATOM     29  C   UNL     1      -3.195  -2.749  25.622  0.00  0.00    +0.000 A 
ATOM     30  C   UNL     1      -4.137  -2.112  23.491  0.00  0.00    +0.000 A 
ATOM     31  C   UNL     1      -3.573  -3.080  24.322  0.00  0.00    +0.000 A 
ENDBRANCH  23  26
ENDBRANCH   1  23
ENDBRANCH   6   1
ENDBRANCH  15   6
ENDBRANCH   9  15
BRANCH  11  16
ATOM     16  C   UNL     1      -1.082   0.677  24.224  0.00  0.00    +0.103 C 
BRANCH  16  20
ATOM      2  O   UNL     1      -0.633  -1.429  23.231  0.00  0.00    -0.276 OA
ATOM      3  O   UNL     1       3.643   0.935  22.464  0.00  0.00    -0.377 OA
ATOM      7  N   UNL     1       1.168   0.020  23.452  0.00  0.00    -0.297 N 
ATOM     20  C   UNL     1      -0.170  -0.344  23.592  0.00  0.00    +0.216 C 
ATOM     21  C   UNL     1       1.776   1.245  23.981  0.00  0.00    +0.136 C 
ATOM     22  C   UNL     1       2.120  -0.908  22.844  0.00  0.00    +0.136 C 
ATOM     24  C   UNL     1       2.679   1.882  22.933  0.00  0.00    +0.179 C 
ATOM     25  C   UNL     1       3.003  -0.182  21.841  0.00  0.00    +0.179 C 
ENDBRANCH  16  20
ENDBRANCH  11  16
TORSDOF 8
ENDMDL
