MODEL 1
REMARK VINA RESULT:       1.3      0.000      0.000
REMARK  Name = 7687210
REMARK  4 active torsions:
REMARK  status: ('A' for Active; 'I' for Inactive)
REMARK    1  A    between atoms: S_2  and  N_6
REMARK    2  A    between atoms: S_2  and  C_18
REMARK    3  A    between atoms: C_15  and  C_20
REMARK    4  A    between atoms: C_23  and  C_27
REMARK                            x       y       z     vdW  Elec       q    Type
REMARK                         _______ _______ _______ _____ _____    ______ ____
ROOT
ATOM      5  O   UNL     1      -3.569   3.948  23.157  0.00  0.00    -0.268 OA
ATOM      6  N   UNL     1       0.105   0.670  23.895  0.00  0.00    -0.176 NA
ATOM      7  N   UNL     1      -2.489   2.370  24.509  0.00  0.00    -0.311 N 
ATOM      8  C   UNL     1      -0.076   2.720  25.305  0.00  0.00    +0.025 C 
ATOM      9  C   UNL     1      -1.295   0.691  25.948  0.00  0.00    +0.052 C 
ATOM     10  C   UNL     1      -0.504   1.877  26.492  0.00  0.00    +0.017 C 
ATOM     11  C   UNL     1       0.805   1.907  24.343  0.00  0.00    +0.114 C 
ATOM     12  C   UNL     1      -0.386  -0.156  25.037  0.00  0.00    +0.119 C 
ATOM     13  C   UNL     1      -1.332   3.268  24.626  0.00  0.00    +0.130 C 
ATOM     14  C   UNL     1      -2.550   1.134  25.187  0.00  0.00    +0.033 A 
ATOM     15  C   UNL     1      -3.680   0.379  25.136  0.00  0.00    -0.005 A 
ATOM     16  C   UNL     1      -3.564   2.871  23.755  0.00  0.00    +0.252 A 
ATOM     17  C   UNL     1      -4.808   0.876  24.364  0.00  0.00    +0.015 A 
ATOM     19  C   UNL     1      -4.778   2.031  23.701  0.00  0.00    +0.071 A 
ENDROOT
BRANCH   6   2
ATOM      2  S   UNL     1       0.868  -0.194  22.630  0.00  0.00    +0.061 S 
ATOM      3  O   UNL     1       0.696   0.546  21.396  0.00  0.00    -0.153 OA
ATOM      4  O   UNL     1       0.525  -1.596  22.737  0.00  0.00    -0.153 OA
BRANCH   2  18
ATOM      1 CL   UNL     1       7.030  -0.076  23.711  0.00  0.00    -0.084 Cl
ATOM     18  C   UNL     1       2.630  -0.159  22.941  0.00  0.00    +0.106 A 
ATOM     21  C   UNL     1       3.339   0.957  22.567  0.00  0.00    +0.030 A 
ATOM     22  C   UNL     1       3.210  -1.251  23.540  0.00  0.00    +0.030 A 
ATOM     24  C   UNL     1       4.712   0.984  22.808  0.00  0.00    +0.022 A 
ATOM     25  C   UNL     1       4.583  -1.225  23.781  0.00  0.00    +0.022 A 
ATOM     26  C   UNL     1       5.335  -0.108  23.415  0.00  0.00    +0.041 A 
ENDBRANCH   2  18
ENDBRANCH   6   2
BRANCH  15  20
ATOM     20  C   UNL     1      -3.795  -0.913  25.794  0.00  0.00    +0.005 C 
ATOM     23  C   UNL     1      -3.389  -2.048  25.231  0.00  0.00    -0.030 C 
ATOM     27  C   UNL     1      -3.510  -3.376  25.902  0.00  0.00    +0.035 C 
ENDBRANCH  15  20
TORSDOF 3
ENDMDL
MODEL 2
REMARK VINA RESULT:       2.4      4.033      6.879
REMARK  Name = 7687210
REMARK  4 active torsions:
REMARK  status: ('A' for Active; 'I' for Inactive)
REMARK    1  A    between atoms: S_2  and  N_6
REMARK    2  A    between atoms: S_2  and  C_18
REMARK    3  A    between atoms: C_15  and  C_20
REMARK    4  A    between atoms: C_23  and  C_27
REMARK                            x       y       z     vdW  Elec       q    Type
REMARK                         _______ _______ _______ _____ _____    ______ ____
ROOT
ATOM      5  O   UNL     1      -0.536   3.654  22.506  0.00  0.00    -0.268 OA
ATOM      6  N   UNL     1      -2.333  -0.368  24.824  0.00  0.00    -0.176 NA
ATOM      7  N   UNL     1      -0.267   1.885  24.016  0.00  0.00    -0.311 N 
ATOM      8  C   UNL     1      -0.408  -0.559  23.250  0.00  0.00    +0.025 C 
ATOM      9  C   UNL     1       0.001  -0.038  25.612  0.00  0.00    +0.052 C 
ATOM     10  C   UNL     1       0.530  -0.822  24.414  0.00  0.00    +0.017 C 
ATOM     11  C   UNL     1      -1.836  -1.021  23.581  0.00  0.00    +0.114 C 
ATOM     12  C   UNL     1      -1.404  -0.552  25.979  0.00  0.00    +0.119 C 
ATOM     13  C   UNL     1      -0.340   0.929  22.902  0.00  0.00    +0.130 C 
ATOM     14  C   UNL     1      -0.035   1.471  25.344  0.00  0.00    +0.033 A 
ATOM     15  C   UNL     1       0.128   2.393  26.331  0.00  0.00    -0.005 A 
ATOM     16  C   UNL     1      -0.350   3.239  23.650  0.00  0.00    +0.252 A 
ATOM     17  C   UNL     1       0.050   3.802  25.979  0.00  0.00    +0.015 A 
ATOM     19  C   UNL     1      -0.183   4.225  24.737  0.00  0.00    +0.071 A 
ENDROOT
BRANCH   6   2
ATOM      2  S   UNL     1      -3.994  -0.598  25.167  0.00  0.00    +0.061 S 
ATOM      3  O   UNL     1      -4.117  -1.178  26.488  0.00  0.00    -0.153 OA
ATOM      4  O   UNL     1      -4.643  -1.180  24.011  0.00  0.00    -0.153 OA
BRANCH   2  18
ATOM      1 CL   UNL     1      -6.612   5.065  25.651  0.00  0.00    -0.084 Cl
ATOM     18  C   UNL     1      -4.743   1.022  25.308  0.00  0.00    +0.106 A 
ATOM     21  C   UNL     1      -6.034   1.109  25.768  0.00  0.00    +0.030 A 
ATOM     22  C   UNL     1      -3.998   2.120  24.947  0.00  0.00    +0.030 A 
ATOM     24  C   UNL     1      -6.617   2.370  25.876  0.00  0.00    +0.022 A 
ATOM     25  C   UNL     1      -4.582   3.381  25.055  0.00  0.00    +0.022 A 
ATOM     26  C   UNL     1      -5.891   3.507  25.520  0.00  0.00    +0.041 A 
ENDBRANCH   2  18
ENDBRANCH   6   2
BRANCH  15  20
ATOM     20  C   UNL     1       0.347   2.029  27.723  0.00  0.00    +0.005 C 
ATOM     23  C   UNL     1       1.254   2.628  28.490  0.00  0.00    -0.030 C 
ATOM     27  C   UNL     1       1.484   2.255  29.917  0.00  0.00    +0.035 C 
ENDBRANCH  15  20
TORSDOF 3
ENDMDL
MODEL 3
REMARK VINA RESULT:       3.0      3.290      5.046
REMARK  Name = 7687210
REMARK  4 active torsions:
REMARK  status: ('A' for Active; 'I' for Inactive)
REMARK    1  A    between atoms: S_2  and  N_6
REMARK    2  A    between atoms: S_2  and  C_18
REMARK    3  A    between atoms: C_15  and  C_20
REMARK    4  A    between atoms: C_23  and  C_27
REMARK                            x       y       z     vdW  Elec       q    Type
REMARK                         _______ _______ _______ _____ _____    ______ ____
ROOT
ATOM      5  O   UNL     1      -3.436   4.485  27.784  0.00  0.00    -0.268 OA
ATOM      6  N   UNL     1      -4.313   0.152  25.493  0.00  0.00    -0.176 NA
ATOM      7  N   UNL     1      -4.291   3.278  25.968  0.00  0.00    -0.311 N 
ATOM      8  C   UNL     1      -6.199   1.591  26.264  0.00  0.00    +0.025 C 
ATOM      9  C   UNL     1      -5.221   1.957  24.044  0.00  0.00    +0.052 C 
ATOM     10  C   UNL     1      -6.532   1.942  24.825  0.00  0.00    +0.017 C 
ATOM     11  C   UNL     1      -5.529   0.210  26.351  0.00  0.00    +0.114 C 
ATOM     12  C   UNL     1      -4.588   0.552  24.081  0.00  0.00    +0.119 C 
ATOM     13  C   UNL     1      -5.323   2.704  26.841  0.00  0.00    +0.130 C 
ATOM     14  C   UNL     1      -4.238   3.000  24.586  0.00  0.00    +0.033 A 
ATOM     15  C   UNL     1      -3.330   3.631  23.793  0.00  0.00    -0.005 A 
ATOM     16  C   UNL     1      -3.423   4.194  26.587  0.00  0.00    +0.252 A 
ATOM     17  C   UNL     1      -2.422   4.585  24.409  0.00  0.00    +0.015 A 
ATOM     19  C   UNL     1      -2.436   4.860  25.713  0.00  0.00    +0.071 A 
ENDROOT
BRANCH   6   2
ATOM      2  S   UNL     1      -3.333  -1.236  25.692  0.00  0.00    +0.061 S 
ATOM      3  O   UNL     1      -3.905  -2.320  24.919  0.00  0.00    -0.153 OA
ATOM      4  O   UNL     1      -2.999  -1.387  27.092  0.00  0.00    -0.153 OA
BRANCH   2  18
ATOM      1 CL   UNL     1       2.168  -0.062  22.951  0.00  0.00    -0.084 Cl
ATOM     18  C   UNL     1      -1.758  -0.900  24.910  0.00  0.00    +0.106 A 
ATOM     21  C   UNL     1      -1.352   0.407  24.791  0.00  0.00    +0.030 A 
ATOM     22  C   UNL     1      -1.014  -1.962  24.454  0.00  0.00    +0.030 A 
ATOM     24  C   UNL     1      -0.127   0.669  24.180  0.00  0.00    +0.022 A 
ATOM     25  C   UNL     1       0.211  -1.700  23.843  0.00  0.00    +0.022 A 
ATOM     26  C   UNL     1       0.656  -0.385  23.706  0.00  0.00    +0.041 A 
ENDBRANCH   2  18
ENDBRANCH   6   2
BRANCH  15  20
ATOM     20  C   UNL     1      -3.211   3.369  22.367  0.00  0.00    +0.005 C 
ATOM     23  C   UNL     1      -2.564   2.315  21.879  0.00  0.00    -0.030 C 
ATOM     27  C   UNL     1      -2.437   2.045  20.416  0.00  0.00    +0.035 C 
ENDBRANCH  15  20
TORSDOF 3
ENDMDL
MODEL 4
REMARK VINA RESULT:       3.2      3.700      5.272
REMARK  Name = 7687210
REMARK  4 active torsions:
REMARK  status: ('A' for Active; 'I' for Inactive)
REMARK    1  A    between atoms: S_2  and  N_6
REMARK    2  A    between atoms: S_2  and  C_18
REMARK    3  A    between atoms: C_15  and  C_20
REMARK    4  A    between atoms: C_23  and  C_27
REMARK                            x       y       z     vdW  Elec       q    Type
REMARK                         _______ _______ _______ _____ _____    ______ ____
ROOT
ATOM      5  O   UNL     1      -2.270   2.941  20.935  0.00  0.00    -0.268 OA
ATOM      6  N   UNL     1      -0.841   0.918  25.253  0.00  0.00    -0.176 NA
ATOM      7  N   UNL     1      -2.145   3.008  23.272  0.00  0.00    -0.311 N 
ATOM      8  C   UNL     1       0.111   3.093  24.488  0.00  0.00    +0.025 C 
ATOM      9  C   UNL     1      -1.975   3.066  25.778  0.00  0.00    +0.052 C 
ATOM     10  C   UNL     1      -0.667   3.824  25.567  0.00  0.00    +0.017 C 
ATOM     11  C   UNL     1       0.413   1.647  24.913  0.00  0.00    +0.114 C 
ATOM     12  C   UNL     1      -1.666   1.638  26.268  0.00  0.00    +0.119 C 
ATOM     13  C   UNL     1      -0.687   3.165  23.186  0.00  0.00    +0.130 C 
ATOM     14  C   UNL     1      -2.829   3.022  24.506  0.00  0.00    +0.033 A 
ATOM     15  C   UNL     1      -4.188   2.977  24.538  0.00  0.00    -0.005 A 
ATOM     16  C   UNL     1      -2.816   2.940  22.039  0.00  0.00    +0.252 A 
ATOM     17  C   UNL     1      -4.906   2.909  23.275  0.00  0.00    +0.015 A 
ATOM     19  C   UNL     1      -4.291   2.880  22.093  0.00  0.00    +0.071 A 
ENDROOT
BRANCH   6   2
ATOM      2  S   UNL     1      -0.674  -0.768  25.497  0.00  0.00    +0.061 S 
ATOM      3  O   UNL     1      -0.735  -1.037  26.919  0.00  0.00    -0.153 OA
ATOM      4  O   UNL     1       0.406  -1.264  24.670  0.00  0.00    -0.153 OA
BRANCH   2  18
ATOM      1 CL   UNL     1      -5.765  -3.522  23.122  0.00  0.00    -0.084 Cl
ATOM     18  C   UNL     1      -2.131  -1.556  24.820  0.00  0.00    +0.106 A 
ATOM     21  C   UNL     1      -2.137  -2.924  24.696  0.00  0.00    +0.030 A 
ATOM     22  C   UNL     1      -3.189  -0.763  24.446  0.00  0.00    +0.030 A 
ATOM     24  C   UNL     1      -3.272  -3.538  24.166  0.00  0.00    +0.022 A 
ATOM     25  C   UNL     1      -4.324  -1.377  23.917  0.00  0.00    +0.022 A 
ATOM     26  C   UNL     1      -4.366  -2.764  23.777  0.00  0.00    +0.041 A 
ENDBRANCH   2  18
ENDBRANCH   6   2
BRANCH  15  20
ATOM     20  C   UNL     1      -4.948   2.964  25.778  0.00  0.00    +0.005 C 
ATOM     23  C   UNL     1      -5.860   2.037  26.055  0.00  0.00    -0.030 C 
ATOM     27  C   UNL     1      -6.645   2.023  27.326  0.00  0.00    +0.035 C 
ENDBRANCH  15  20
TORSDOF 3
ENDMDL
MODEL 5
REMARK VINA RESULT:       3.2      3.604      6.913
REMARK  Name = 7687210
REMARK  4 active torsions:
REMARK  status: ('A' for Active; 'I' for Inactive)
REMARK    1  A    between atoms: S_2  and  N_6
REMARK    2  A    between atoms: S_2  and  C_18
REMARK    3  A    between atoms: C_15  and  C_20
REMARK    4  A    between atoms: C_23  and  C_27
REMARK                            x       y       z     vdW  Elec       q    Type
REMARK                         _______ _______ _______ _____ _____    ______ ____
ROOT
ATOM      5  O   UNL     1       1.663  -0.384  22.027  0.00  0.00    -0.268 OA
ATOM      6  N   UNL     1      -2.612  -0.978  24.507  0.00  0.00    -0.176 NA
ATOM      7  N   UNL     1       0.442  -0.320  24.024  0.00  0.00    -0.311 N 
ATOM      8  C   UNL     1      -0.644  -2.430  24.995  0.00  0.00    +0.025 C 
ATOM      9  C   UNL     1      -0.887  -0.283  26.156  0.00  0.00    +0.052 C 
ATOM     10  C   UNL     1      -0.450  -1.735  26.330  0.00  0.00    +0.017 C 
ATOM     11  C   UNL     1      -2.118  -2.382  24.560  0.00  0.00    +0.114 C 
ATOM     12  C   UNL     1      -2.382  -0.241  25.785  0.00  0.00    +0.119 C 
ATOM     13  C   UNL     1       0.289  -1.780  23.973  0.00  0.00    +0.130 C 
ATOM     14  C   UNL     1      -0.052   0.448  25.099  0.00  0.00    +0.033 A 
ATOM     15  C   UNL     1       0.199   1.784  25.161  0.00  0.00    -0.005 A 
ATOM     16  C   UNL     1       1.196   0.242  22.979  0.00  0.00    +0.252 A 
ATOM     17  C   UNL     1       0.978   2.389  24.093  0.00  0.00    +0.015 A 
ATOM     19  C   UNL     1       1.448   1.695  23.057  0.00  0.00    +0.071 A 
ENDROOT
BRANCH   6   2
ATOM      2  S   UNL     1      -4.154  -0.763  23.797  0.00  0.00    +0.061 S 
ATOM      3  O   UNL     1      -5.072  -1.714  24.389  0.00  0.00    -0.153 OA
ATOM      4  O   UNL     1      -4.004  -0.635  22.362  0.00  0.00    -0.153 OA
BRANCH   2  18
ATOM      1 CL   UNL     1      -6.282   4.841  25.593  0.00  0.00    -0.084 Cl
ATOM     18  C   UNL     1      -4.764   0.840  24.308  0.00  0.00    +0.106 A 
ATOM     21  C   UNL     1      -4.111   1.962  23.860  0.00  0.00    +0.030 A 
ATOM     22  C   UNL     1      -5.862   0.889  25.134  0.00  0.00    +0.030 A 
ATOM     24  C   UNL     1      -4.585   3.211  24.260  0.00  0.00    +0.022 A 
ATOM     25  C   UNL     1      -6.336   2.138  25.534  0.00  0.00    +0.022 A 
ATOM     26  C   UNL     1      -5.698   3.299  25.098  0.00  0.00    +0.041 A 
ENDBRANCH   2  18
ENDBRANCH   6   2
BRANCH  15  20
ATOM     20  C   UNL     1      -0.303   2.632  26.231  0.00  0.00    +0.005 C 
ATOM     23  C   UNL     1      -1.496   3.218  26.186  0.00  0.00    -0.030 C 
ATOM     27  C   UNL     1      -2.014   4.093  27.280  0.00  0.00    +0.035 C 
ENDBRANCH  15  20
TORSDOF 3
ENDMDL
MODEL 6
REMARK VINA RESULT:       4.5      3.173      5.364
REMARK  Name = 7687210
REMARK  4 active torsions:
REMARK  status: ('A' for Active; 'I' for Inactive)
REMARK    1  A    between atoms: S_2  and  N_6
REMARK    2  A    between atoms: S_2  and  C_18
REMARK    3  A    between atoms: C_15  and  C_20
REMARK    4  A    between atoms: C_23  and  C_27
REMARK                            x       y       z     vdW  Elec       q    Type
REMARK                         _______ _______ _______ _____ _____    ______ ____
ROOT
ATOM      5  O   UNL     1      -2.807   4.944  26.886  0.00  0.00    -0.268 OA
ATOM      6  N   UNL     1      -4.002   0.965  24.143  0.00  0.00    -0.176 NA
ATOM      7  N   UNL     1      -2.658   3.728  24.891  0.00  0.00    -0.311 N 
ATOM      8  C   UNL     1      -4.731   3.250  23.459  0.00  0.00    +0.025 C 
ATOM      9  C   UNL     1      -2.536   2.413  22.753  0.00  0.00    +0.052 C 
ATOM     10  C   UNL     1      -3.745   3.229  22.305  0.00  0.00    +0.017 C 
ATOM     11  C   UNL     1      -5.176   1.825  23.826  0.00  0.00    +0.114 C 
ATOM     12  C   UNL     1      -2.978   0.968  23.056  0.00  0.00    +0.119 C 
ATOM     13  C   UNL     1      -4.082   3.982  24.634  0.00  0.00    +0.130 C 
ATOM     14  C   UNL     1      -1.845   3.028  23.975  0.00  0.00    +0.033 A 
ATOM     15  C   UNL     1      -0.509   2.902  24.201  0.00  0.00    -0.005 A 
ATOM     16  C   UNL     1      -2.146   4.311  26.063  0.00  0.00    +0.252 A 
ATOM     17  C   UNL     1       0.047   3.499  25.405  0.00  0.00    +0.015 A 
ATOM     19  C   UNL     1      -0.696   4.154  26.297  0.00  0.00    +0.071 A 
ENDROOT
BRANCH   6   2
ATOM      2  S   UNL     1      -4.367  -0.568  24.812  0.00  0.00    +0.061 S 
ATOM      3  O   UNL     1      -5.083  -1.345  23.821  0.00  0.00    -0.153 OA
ATOM      4  O   UNL     1      -4.870  -0.392  26.158  0.00  0.00    -0.153 OA
BRANCH   2  18
ATOM      1 CL   UNL     1       1.046  -3.604  25.608  0.00  0.00    -0.084 Cl
ATOM     18  C   UNL     1      -2.819  -1.437  25.042  0.00  0.00    +0.106 A 
ATOM     21  C   UNL     1      -1.833  -0.832  25.782  0.00  0.00    +0.030 A 
ATOM     22  C   UNL     1      -2.674  -2.677  24.467  0.00  0.00    +0.030 A 
ATOM     24  C   UNL     1      -0.626  -1.508  25.959  0.00  0.00    +0.022 A 
ATOM     25  C   UNL     1      -1.468  -3.353  24.644  0.00  0.00    +0.022 A 
ATOM     26  C   UNL     1      -0.444  -2.770  25.390  0.00  0.00    +0.041 A 
ENDBRANCH   2  18
ENDBRANCH   6   2
BRANCH  15  20
ATOM     20  C   UNL     1       0.377   2.173  23.306  0.00  0.00    +0.005 C 
ATOM     23  C   UNL     1       0.693   0.894  23.490  0.00  0.00    -0.030 C 
ATOM     27  C   UNL     1       1.604   0.143  22.576  0.00  0.00    +0.035 C 
ENDBRANCH  15  20
TORSDOF 3
ENDMDL
MODEL 7
REMARK VINA RESULT:       4.5      4.040      6.507
REMARK  Name = 7687210
REMARK  4 active torsions:
REMARK  status: ('A' for Active; 'I' for Inactive)
REMARK    1  A    between atoms: S_2  and  N_6
REMARK    2  A    between atoms: S_2  and  C_18
REMARK    3  A    between atoms: C_15  and  C_20
REMARK    4  A    between atoms: C_23  and  C_27
REMARK                            x       y       z     vdW  Elec       q    Type
REMARK                         _______ _______ _______ _____ _____    ______ ____
ROOT
ATOM      5  O   UNL     1      -0.104   2.640  27.718  0.00  0.00    -0.268 OA
ATOM      6  N   UNL     1      -4.548   2.618  25.475  0.00  0.00    -0.176 NA
ATOM      7  N   UNL     1      -1.503   3.312  25.965  0.00  0.00    -0.311 N 
ATOM      8  C   UNL     1      -3.595   4.732  26.394  0.00  0.00    +0.025 C 
ATOM      9  C   UNL     1      -3.033   4.038  24.109  0.00  0.00    +0.052 C 
ATOM     10  C   UNL     1      -3.353   5.245  24.986  0.00  0.00    +0.017 C 
ATOM     11  C   UNL     1      -4.773   3.745  26.423  0.00  0.00    +0.114 C 
ATOM     12  C   UNL     1      -4.244   3.085  24.090  0.00  0.00    +0.119 C 
ATOM     13  C   UNL     1      -2.297   4.109  26.910  0.00  0.00    +0.130 C 
ATOM     14  C   UNL     1      -1.778   3.297  24.581  0.00  0.00    +0.033 A 
ATOM     15  C   UNL     1      -0.957   2.629  23.726  0.00  0.00    -0.005 A 
ATOM     16  C   UNL     1      -0.398   2.647  26.523  0.00  0.00    +0.252 A 
ATOM     17  C   UNL     1       0.195   1.934  24.278  0.00  0.00    +0.015 A 
ATOM     19  C   UNL     1       0.475   1.917  25.580  0.00  0.00    +0.071 A 
ENDROOT
BRANCH   6   2
ATOM      2  S   UNL     1      -5.658   1.321  25.592  0.00  0.00    +0.061 S 
ATOM      3  O   UNL     1      -6.655   1.471  24.551  0.00  0.00    -0.153 OA
ATOM      4  O   UNL     1      -6.023   1.129  26.980  0.00  0.00    -0.153 OA
BRANCH   2  18
ATOM      1 CL   UNL     1      -2.579  -3.920  24.107  0.00  0.00    -0.084 Cl
ATOM     18  C   UNL     1      -4.779  -0.180  25.168  0.00  0.00    +0.106 A 
ATOM     21  C   UNL     1      -3.911  -0.712  26.090  0.00  0.00    +0.030 A 
ATOM     22  C   UNL     1      -5.003  -0.743  23.935  0.00  0.00    +0.030 A 
ATOM     24  C   UNL     1      -3.224  -1.880  25.759  0.00  0.00    +0.022 A 
ATOM     25  C   UNL     1      -4.317  -1.911  23.604  0.00  0.00    +0.022 A 
ATOM     26  C   UNL     1      -3.427  -2.480  24.516  0.00  0.00    +0.041 A 
ENDBRANCH   2  18
ENDBRANCH   6   2
BRANCH  15  20
ATOM     20  C   UNL     1      -1.200   2.557  22.294  0.00  0.00    +0.005 C 
ATOM     23  C   UNL     1      -2.262   1.949  21.773  0.00  0.00    -0.030 C 
ATOM     27  C   UNL     1      -2.513   1.870  20.303  0.00  0.00    +0.035 C 
ENDBRANCH  15  20
TORSDOF 3
ENDMDL
MODEL 8
REMARK VINA RESULT:       4.8      2.479      4.414
REMARK  Name = 7687210
REMARK  4 active torsions:
REMARK  status: ('A' for Active; 'I' for Inactive)
REMARK    1  A    between atoms: S_2  and  N_6
REMARK    2  A    between atoms: S_2  and  C_18
REMARK    3  A    between atoms: C_15  and  C_20
REMARK    4  A    between atoms: C_23  and  C_27
REMARK                            x       y       z     vdW  Elec       q    Type
REMARK                         _______ _______ _______ _____ _____    ______ ____
ROOT
ATOM      5  O   UNL     1      -5.945   2.405  27.280  0.00  0.00    -0.268 OA
ATOM      6  N   UNL     1      -2.485   0.490  24.256  0.00  0.00    -0.176 NA
ATOM      7  N   UNL     1      -4.573   2.576  25.390  0.00  0.00    -0.311 N 
ATOM      8  C   UNL     1      -4.793   0.941  23.427  0.00  0.00    +0.025 C 
ATOM      9  C   UNL     1      -3.107   2.721  23.355  0.00  0.00    +0.052 C 
ATOM     10  C   UNL     1      -4.279   2.103  22.596  0.00  0.00    +0.017 C 
ATOM     11  C   UNL     1      -3.696  -0.115  23.634  0.00  0.00    +0.114 C 
ATOM     12  C   UNL     1      -1.984   1.677  23.501  0.00  0.00    +0.119 C 
ATOM     13  C   UNL     1      -5.331   1.494  24.747  0.00  0.00    +0.130 C 
ATOM     14  C   UNL     1      -3.526   3.252  24.730  0.00  0.00    +0.033 A 
ATOM     15  C   UNL     1      -2.917   4.316  25.320  0.00  0.00    -0.005 A 
ATOM     16  C   UNL     1      -5.027   2.950  26.667  0.00  0.00    +0.252 A 
ATOM     17  C   UNL     1      -3.370   4.725  26.640  0.00  0.00    +0.015 A 
ATOM     19  C   UNL     1      -4.346   4.099  27.297  0.00  0.00    +0.071 A 
ENDROOT
BRANCH   6   2
ATOM      2  S   UNL     1      -1.287  -0.617  24.773  0.00  0.00    +0.061 S 
ATOM      3  O   UNL     1      -1.581  -1.916  24.202  0.00  0.00    -0.153 OA
ATOM      4  O   UNL     1      -1.054  -0.439  26.191  0.00  0.00    -0.153 OA
BRANCH   2  18
ATOM      1 CL   UNL     1       4.119   1.098  22.130  0.00  0.00    -0.084 Cl
ATOM     18  C   UNL     1       0.260  -0.127  24.019  0.00  0.00    +0.106 A 
ATOM     21  C   UNL     1       0.779   1.106  24.331  0.00  0.00    +0.030 A 
ATOM     22  C   UNL     1       0.872  -1.002  23.152  0.00  0.00    +0.030 A 
ATOM     24  C   UNL     1       1.984   1.488  23.743  0.00  0.00    +0.022 A 
ATOM     25  C   UNL     1       2.076  -0.619  22.564  0.00  0.00    +0.022 A 
ATOM     26  C   UNL     1       2.633   0.625  22.858  0.00  0.00    +0.041 A 
ENDBRANCH   2  18
ENDBRANCH   6   2
BRANCH  15  20
ATOM     20  C   UNL     1      -1.817   5.039  24.701  0.00  0.00    +0.005 C 
ATOM     23  C   UNL     1      -0.566   4.588  24.704  0.00  0.00    -0.030 C 
ATOM     27  C   UNL     1       0.566   5.329  24.072  0.00  0.00    +0.035 C 
ENDBRANCH  15  20
TORSDOF 3
ENDMDL
MODEL 9
REMARK VINA RESULT:       4.9      3.874      6.442
REMARK  Name = 7687210
REMARK  4 active torsions:
REMARK  status: ('A' for Active; 'I' for Inactive)
REMARK    1  A    between atoms: S_2  and  N_6
REMARK    2  A    between atoms: S_2  and  C_18
REMARK    3  A    between atoms: C_15  and  C_20
REMARK    4  A    between atoms: C_23  and  C_27
REMARK                            x       y       z     vdW  Elec       q    Type
REMARK                         _______ _______ _______ _____ _____    ______ ____
ROOT
ATOM      5  O   UNL     1       0.531  -2.828  25.894  0.00  0.00    -0.268 OA
ATOM      6  N   UNL     1      -0.488   1.816  24.417  0.00  0.00    -0.176 NA
ATOM      7  N   UNL     1      -0.546  -1.345  24.436  0.00  0.00    -0.311 N 
ATOM      8  C   UNL     1       0.783   0.258  22.940  0.00  0.00    +0.025 C 
ATOM      9  C   UNL     1      -1.669   0.268  22.872  0.00  0.00    +0.052 C 
ATOM     10  C   UNL     1      -0.414   0.146  22.012  0.00  0.00    +0.017 C 
ATOM     11  C   UNL     1       0.786   1.610  23.671  0.00  0.00    +0.114 C 
ATOM     12  C   UNL     1      -1.692   1.652  23.550  0.00  0.00    +0.119 C 
ATOM     13  C   UNL     1       0.759  -0.929  23.903  0.00  0.00    +0.130 C 
ATOM     14  C   UNL     1      -1.760  -0.844  23.923  0.00  0.00    +0.033 A 
ATOM     15  C   UNL     1      -2.948  -1.330  24.372  0.00  0.00    -0.005 A 
ATOM     16  C   UNL     1      -0.499  -2.345  25.423  0.00  0.00    +0.252 A 
ATOM     17  C   UNL     1      -2.928  -2.367  25.392  0.00  0.00    +0.015 A 
ATOM     19  C   UNL     1      -1.799  -2.852  25.908  0.00  0.00    +0.071 A 
ENDROOT
BRANCH   6   2
ATOM      2  S   UNL     1      -0.516   3.159  25.476  0.00  0.00    +0.061 S 
ATOM      3  O   UNL     1       0.219   4.247  24.863  0.00  0.00    -0.153 OA
ATOM      4  O   UNL     1      -0.235   2.709  26.823  0.00  0.00    -0.153 OA
BRANCH   2  18
ATOM      1 CL   UNL     1      -6.427   5.188  25.775  0.00  0.00    -0.084 Cl
ATOM     18  C   UNL     1      -2.206   3.742  25.562  0.00  0.00    +0.106 A 
ATOM     21  C   UNL     1      -2.718   4.086  26.789  0.00  0.00    +0.030 A 
ATOM     22  C   UNL     1      -2.930   3.820  24.396  0.00  0.00    +0.030 A 
ATOM     24  C   UNL     1      -4.036   4.538  26.856  0.00  0.00    +0.022 A 
ATOM     25  C   UNL     1      -4.248   4.272  24.463  0.00  0.00    +0.022 A 
ATOM     26  C   UNL     1      -4.801   4.631  25.692  0.00  0.00    +0.041 A 
ENDBRANCH   2  18
ENDBRANCH   6   2
BRANCH  15  20
ATOM     20  C   UNL     1      -4.232  -0.838  23.899  0.00  0.00    +0.005 C 
ATOM     23  C   UNL     1      -4.906   0.128  24.517  0.00  0.00    -0.030 C 
ATOM     27  C   UNL     1      -6.226   0.634  24.036  0.00  0.00    +0.035 C 
ENDBRANCH  15  20
TORSDOF 3
ENDMDL
