MODEL 1
REMARK VINA RESULT:       1.8      0.000      0.000
REMARK  Name = 38029337
REMARK  14 active torsions:
REMARK  status: ('A' for Active; 'I' for Inactive)
REMARK    1  A    between atoms: O_3  and  C_31
REMARK    2  A    between atoms: O_3  and  C_36
REMARK    3  A    between atoms: N_4  and  C_15
REMARK    4  A    between atoms: N_5  and  C_22
REMARK    5  A    between atoms: N_6  and  C_24
REMARK    6  A    between atoms: C_8  and  C_12
REMARK    7  A    between atoms: C_9  and  C_15
REMARK    8  A    between atoms: C_11  and  C_16
REMARK    9  A    between atoms: C_12  and  C_17
REMARK   10  A    between atoms: C_12  and  C_18
REMARK   11  A    between atoms: C_13  and  C_19
REMARK   12  A    between atoms: C_16  and  C_20
REMARK   13  A    between atoms: C_22  and  C_23
REMARK   14  A    between atoms: C_32  and  C_35
REMARK                            x       y       z     vdW  Elec       q    Type
REMARK                         _______ _______ _______ _____ _____    ______ ____
ROOT
ATOM      8  C   UNL     1      -2.232   4.316  25.001  0.00  0.00    +0.000 C 
ATOM      9  C   UNL     1      -2.487   3.870  26.462  0.00  0.00    +0.032 C 
ATOM     10  C   UNL     1      -3.510   4.915  24.393  0.00  0.00    +0.012 C 
ATOM     11  C   UNL     1      -4.683   3.917  24.401  0.00  0.00    +0.023 C 
ATOM     13  C   UNL     1      -4.830   3.232  25.745  0.00  0.00    -0.073 C 
ATOM     14  C   UNL     1      -3.843   3.232  26.658  0.00  0.00    -0.022 C 
ATOM     19  C   UNL     1      -6.155   2.585  26.032  0.00  0.00    +0.039 C 
ENDROOT
BRANCH   8  12
ATOM     12  C   UNL     1      -1.088   5.330  24.907  0.00  0.00    -0.013 C 
ATOM     17  C   UNL     1      -0.240   5.062  23.668  0.00  0.00    +0.007 C 
ATOM     18  C   UNL     1      -1.638   6.752  24.889  0.00  0.00    +0.007 C 
ENDBRANCH   8  12
BRANCH   9  15
ATOM     15  C   UNL     1      -1.396   2.906  26.944  0.00  0.00    +0.113 C 
BRANCH  15   4
ATOM      2  O   UNL     1       0.965   2.754  25.331  0.00  0.00    -0.253 OA
ATOM      4  N   UNL     1      -1.106   1.927  25.945  0.00  0.00    -0.299 N 
ATOM      6  N   UNL     1       0.086   0.842  24.291  0.00  0.00    -0.269 N 
ATOM     21  C   UNL     1       0.081   1.914  25.188  0.00  0.00    +0.304 C 
ATOM     37  H   UNL     1      -1.804   1.215  25.752  0.00  0.00    +0.150 HD
ATOM     39  H   UNL     1      -0.730   0.235  24.301  0.00  0.00    +0.156 HD
BRANCH   6  24
ATOM     24  C   UNL     1       1.095   0.491  23.364  0.00  0.00    +0.038 A 
ATOM     27  C   UNL     1       2.412   0.895  23.582  0.00  0.00    +0.069 A 
ATOM     28  C   UNL     1       0.773  -0.258  22.233  0.00  0.00    +0.023 A 
ATOM     31  C   UNL     1       3.408   0.551  22.667  0.00  0.00    +0.122 A 
ATOM     33  C   UNL     1       1.768  -0.603  21.318  0.00  0.00    +0.005 A 
ATOM     34  C   UNL     1       3.085  -0.198  21.535  0.00  0.00    +0.046 A 
BRANCH  31   3
ATOM      3  O   UNL     1       4.693   0.945  22.878  0.00  0.00    -0.495 OA
ATOM     36  C   UNL     1       5.507   0.094  23.684  0.00  0.00    +0.277 C 
ENDBRANCH  31   3
ENDBRANCH   6  24
ENDBRANCH  15   4
ENDBRANCH   9  15
BRANCH  11  16
ATOM     16  C   UNL     1      -4.541   2.889  23.273  0.00  0.00    +0.103 C 
BRANCH  16  20
ATOM      1  O   UNL     1      -3.067   1.085  23.923  0.00  0.00    -0.276 OA
ATOM      5  N   UNL     1      -5.367   0.807  24.108  0.00  0.00    -0.311 N 
ATOM     20  C   UNL     1      -4.213   1.510  23.798  0.00  0.00    +0.214 C 
ATOM     38  H   UNL     1      -6.265   1.278  24.034  0.00  0.00    +0.149 HD
BRANCH   5  22
ATOM     22  C   UNL     1      -5.355  -0.540  24.628  0.00  0.00    +0.139 C 
BRANCH  22  23
ATOM     23  C   UNL     1      -3.958  -1.050  24.836  0.00  0.00    -0.030 A 
ATOM     25  C   UNL     1      -3.261  -0.720  25.999  0.00  0.00    +0.006 A 
ATOM     26  C   UNL     1      -3.358  -1.854  23.868  0.00  0.00    +0.006 A 
ATOM     29  C   UNL     1      -1.964  -1.193  26.193  0.00  0.00    +0.019 A 
ATOM     30  C   UNL     1      -2.059  -2.328  24.062  0.00  0.00    +0.019 A 
ATOM     32  C   UNL     1      -1.363  -1.998  25.224  0.00  0.00    +0.052 A 
BRANCH  32  35
ATOM      7  N   UNL     1       1.047  -2.875  25.585  0.00  0.00    -0.191 NA
ATOM     35  C   UNL     1      -0.033  -2.483  25.423  0.00  0.00    +0.099 C 
ENDBRANCH  32  35
ENDBRANCH  22  23
ENDBRANCH   5  22
ENDBRANCH  16  20
ENDBRANCH  11  16
TORSDOF 10
ENDMDL
MODEL 2
REMARK VINA RESULT:       2.2      1.464      3.622
REMARK  Name = 38029337
REMARK  14 active torsions:
REMARK  status: ('A' for Active; 'I' for Inactive)
REMARK    1  A    between atoms: O_3  and  C_31
REMARK    2  A    between atoms: O_3  and  C_36
REMARK    3  A    between atoms: N_4  and  C_15
REMARK    4  A    between atoms: N_5  and  C_22
REMARK    5  A    between atoms: N_6  and  C_24
REMARK    6  A    between atoms: C_8  and  C_12
REMARK    7  A    between atoms: C_9  and  C_15
REMARK    8  A    between atoms: C_11  and  C_16
REMARK    9  A    between atoms: C_12  and  C_17
REMARK   10  A    between atoms: C_12  and  C_18
REMARK   11  A    between atoms: C_13  and  C_19
REMARK   12  A    between atoms: C_16  and  C_20
REMARK   13  A    between atoms: C_22  and  C_23
REMARK   14  A    between atoms: C_32  and  C_35
REMARK                            x       y       z     vdW  Elec       q    Type
REMARK                         _______ _______ _______ _____ _____    ______ ____
ROOT
ATOM      8  C   UNL     1      -4.440   2.910  25.424  0.00  0.00    +0.000 C 
ATOM      9  C   UNL     1      -4.082   3.310  23.971  0.00  0.00    +0.032 C 
ATOM     10  C   UNL     1      -4.220   4.095  26.376  0.00  0.00    +0.012 C 
ATOM     11  C   UNL     1      -2.764   4.599  26.353  0.00  0.00    +0.023 C 
ATOM     13  C   UNL     1      -2.248   4.763  24.938  0.00  0.00    -0.073 C 
ATOM     14  C   UNL     1      -2.857   4.190  23.885  0.00  0.00    -0.022 C 
ATOM     19  C   UNL     1      -1.039   5.638  24.756  0.00  0.00    +0.039 C 
ENDROOT
BRANCH   8  12
ATOM     12  C   UNL     1      -5.885   2.414  25.538  0.00  0.00    -0.013 C 
ATOM     17  C   UNL     1      -6.120   1.237  24.598  0.00  0.00    +0.007 C 
ATOM     18  C   UNL     1      -6.203   2.029  26.979  0.00  0.00    +0.007 C 
ENDBRANCH   8  12
BRANCH   9  15
ATOM     15  C   UNL     1      -3.883   2.071  23.090  0.00  0.00    +0.113 C 
BRANCH  15   4
ATOM      2  O   UNL     1      -1.448   2.012  21.583  0.00  0.00    -0.253 OA
ATOM      4  N   UNL     1      -2.679   1.387  23.439  0.00  0.00    -0.299 N 
ATOM      6  N   UNL     1      -0.500   0.647  23.242  0.00  0.00    -0.269 N 
ATOM     21  C   UNL     1      -1.515   1.402  22.648  0.00  0.00    +0.304 C 
ATOM     37  H   UNL     1      -2.669   0.838  24.294  0.00  0.00    +0.150 HD
ATOM     39  H   UNL     1      -0.721   0.205  24.130  0.00  0.00    +0.156 HD
BRANCH   6  24
ATOM     24  C   UNL     1       0.809   0.421  22.757  0.00  0.00    +0.038 A 
ATOM     27  C   UNL     1       1.905   0.951  23.437  0.00  0.00    +0.069 A 
ATOM     28  C   UNL     1       1.004  -0.333  21.600  0.00  0.00    +0.023 A 
ATOM     31  C   UNL     1       3.197   0.729  22.959  0.00  0.00    +0.122 A 
ATOM     33  C   UNL     1       2.295  -0.556  21.122  0.00  0.00    +0.005 A 
ATOM     34  C   UNL     1       3.392  -0.024  21.801  0.00  0.00    +0.046 A 
BRANCH  31   3
ATOM      3  O   UNL     1       4.267   1.246  23.622  0.00  0.00    -0.495 OA
ATOM     36  C   UNL     1       5.419   0.413  23.744  0.00  0.00    +0.277 C 
ENDBRANCH  31   3
ENDBRANCH   6  24
ENDBRANCH  15   4
ENDBRANCH   9  15
BRANCH  11  16
ATOM     16  C   UNL     1      -1.849   3.680  27.169  0.00  0.00    +0.103 C 
BRANCH  16  20
ATOM      1  O   UNL     1      -0.675   2.928  25.191  0.00  0.00    -0.276 OA
ATOM      5  N   UNL     1      -1.084   1.429  26.920  0.00  0.00    -0.311 N 
ATOM     20  C   UNL     1      -1.137   2.668  26.300  0.00  0.00    +0.214 C 
ATOM     38  H   UNL     1      -1.434   1.339  27.870  0.00  0.00    +0.149 HD
BRANCH   5  22
ATOM     22  C   UNL     1      -0.463   0.272  26.319  0.00  0.00    +0.139 C 
BRANCH  22  23
ATOM     23  C   UNL     1      -1.470  -0.634  25.670  0.00  0.00    -0.030 A 
ATOM     25  C   UNL     1      -2.833  -0.384  25.825  0.00  0.00    +0.006 A 
ATOM     26  C   UNL     1      -1.041  -1.723  24.913  0.00  0.00    +0.006 A 
ATOM     29  C   UNL     1      -3.768  -1.224  25.221  0.00  0.00    +0.019 A 
ATOM     30  C   UNL     1      -1.977  -2.565  24.310  0.00  0.00    +0.019 A 
ATOM     32  C   UNL     1      -3.341  -2.315  24.464  0.00  0.00    +0.052 A 
BRANCH  32  35
ATOM      7  N   UNL     1      -5.079  -3.875  23.346  0.00  0.00    -0.191 NA
ATOM     35  C   UNL     1      -4.300  -3.176  23.846  0.00  0.00    +0.099 C 
ENDBRANCH  32  35
ENDBRANCH  22  23
ENDBRANCH   5  22
ENDBRANCH  16  20
ENDBRANCH  11  16
TORSDOF 10
ENDMDL
MODEL 3
REMARK VINA RESULT:       2.9      1.936      5.682
REMARK  Name = 38029337
REMARK  14 active torsions:
REMARK  status: ('A' for Active; 'I' for Inactive)
REMARK    1  A    between atoms: O_3  and  C_31
REMARK    2  A    between atoms: O_3  and  C_36
REMARK    3  A    between atoms: N_4  and  C_15
REMARK    4  A    between atoms: N_5  and  C_22
REMARK    5  A    between atoms: N_6  and  C_24
REMARK    6  A    between atoms: C_8  and  C_12
REMARK    7  A    between atoms: C_9  and  C_15
REMARK    8  A    between atoms: C_11  and  C_16
REMARK    9  A    between atoms: C_12  and  C_17
REMARK   10  A    between atoms: C_12  and  C_18
REMARK   11  A    between atoms: C_13  and  C_19
REMARK   12  A    between atoms: C_16  and  C_20
REMARK   13  A    between atoms: C_22  and  C_23
REMARK   14  A    between atoms: C_32  and  C_35
REMARK                            x       y       z     vdW  Elec       q    Type
REMARK                         _______ _______ _______ _____ _____    ______ ____
ROOT
ATOM      8  C   UNL     1      -3.767   3.689  25.690  0.00  0.00    +0.000 C 
ATOM      9  C   UNL     1      -3.713   4.546  24.401  0.00  0.00    +0.032 C 
ATOM     10  C   UNL     1      -2.659   4.118  26.665  0.00  0.00    +0.012 C 
ATOM     11  C   UNL     1      -1.255   3.984  26.047  0.00  0.00    +0.023 C 
ATOM     13  C   UNL     1      -1.194   4.574  24.652  0.00  0.00    -0.073 C 
ATOM     14  C   UNL     1      -2.303   4.830  23.937  0.00  0.00    -0.022 C 
ATOM     19  C   UNL     1       0.171   4.904  24.117  0.00  0.00    +0.039 C 
ENDROOT
BRANCH   8  12
ATOM     12  C   UNL     1      -5.131   3.784  26.380  0.00  0.00    -0.013 C 
ATOM     17  C   UNL     1      -6.018   4.800  25.668  0.00  0.00    +0.007 C 
ATOM     18  C   UNL     1      -5.802   2.415  26.422  0.00  0.00    +0.007 C 
ENDBRANCH   8  12
BRANCH   9  15
ATOM     15  C   UNL     1      -4.500   3.884  23.264  0.00  0.00    +0.113 C 
BRANCH  15   4
ATOM      2  O   UNL     1      -4.708   1.458  24.772  0.00  0.00    -0.253 OA
ATOM      4  N   UNL     1      -3.934   2.616  22.925  0.00  0.00    -0.299 N 
ATOM      6  N   UNL     1      -3.419   0.375  23.135  0.00  0.00    -0.269 N 
ATOM     21  C   UNL     1      -4.078   1.462  23.717  0.00  0.00    +0.304 C 
ATOM     37  H   UNL     1      -3.376   2.550  22.079  0.00  0.00    +0.150 HD
ATOM     39  H   UNL     1      -2.943   0.549  22.254  0.00  0.00    +0.156 HD
BRANCH   6  24
ATOM     24  C   UNL     1      -3.332  -0.949  23.624  0.00  0.00    +0.038 A 
ATOM     27  C   UNL     1      -2.160  -1.389  24.239  0.00  0.00    +0.069 A 
ATOM     28  C   UNL     1      -4.417  -1.815  23.491  0.00  0.00    +0.023 A 
ATOM     31  C   UNL     1      -2.073  -2.695  24.721  0.00  0.00    +0.122 A 
ATOM     33  C   UNL     1      -4.331  -3.121  23.972  0.00  0.00    +0.005 A 
ATOM     34  C   UNL     1      -3.158  -3.561  24.587  0.00  0.00    +0.046 A 
BRANCH  31   3
ATOM      3  O   UNL     1      -0.930  -3.125  25.321  0.00  0.00    -0.495 OA
ATOM     36  C   UNL     1       0.099  -2.158  25.525  0.00  0.00    +0.277 C 
ENDBRANCH  31   3
ENDBRANCH   6  24
ENDBRANCH  15   4
ENDBRANCH   9  15
BRANCH  11  16
ATOM     16  C   UNL     1      -0.789   2.524  26.046  0.00  0.00    +0.103 C 
BRANCH  16  20
ATOM      1  O   UNL     1      -1.403   2.234  23.724  0.00  0.00    -0.276 OA
ATOM      5  N   UNL     1       0.482   1.156  24.553  0.00  0.00    -0.311 N 
ATOM     20  C   UNL     1      -0.633   1.977  24.645  0.00  0.00    +0.214 C 
ATOM     38  H   UNL     1       1.094   1.066  25.358  0.00  0.00    +0.149 HD
BRANCH   5  22
ATOM     22  C   UNL     1       0.875   0.494  23.331  0.00  0.00    +0.139 C 
BRANCH  22  23
ATOM     23  C   UNL     1       2.360   0.285  23.257  0.00  0.00    -0.030 A 
ATOM     25  C   UNL     1       2.908  -0.951  23.598  0.00  0.00    +0.006 A 
ATOM     26  C   UNL     1       3.191   1.327  22.845  0.00  0.00    +0.006 A 
ATOM     29  C   UNL     1       4.288  -1.145  23.529  0.00  0.00    +0.019 A 
ATOM     30  C   UNL     1       4.571   1.133  22.777  0.00  0.00    +0.019 A 
ATOM     32  C   UNL     1       5.119  -0.103  23.118  0.00  0.00    +0.052 A 
BRANCH  32  35
ATOM      7  N   UNL     1       7.680  -0.466  22.991  0.00  0.00    -0.191 NA
ATOM     35  C   UNL     1       6.533  -0.303  23.047  0.00  0.00    +0.099 C 
ENDBRANCH  32  35
ENDBRANCH  22  23
ENDBRANCH   5  22
ENDBRANCH  16  20
ENDBRANCH  11  16
TORSDOF 10
ENDMDL
MODEL 4
REMARK VINA RESULT:       3.2      1.825      3.907
REMARK  Name = 38029337
REMARK  14 active torsions:
REMARK  status: ('A' for Active; 'I' for Inactive)
REMARK    1  A    between atoms: O_3  and  C_31
REMARK    2  A    between atoms: O_3  and  C_36
REMARK    3  A    between atoms: N_4  and  C_15
REMARK    4  A    between atoms: N_5  and  C_22
REMARK    5  A    between atoms: N_6  and  C_24
REMARK    6  A    between atoms: C_8  and  C_12
REMARK    7  A    between atoms: C_9  and  C_15
REMARK    8  A    between atoms: C_11  and  C_16
REMARK    9  A    between atoms: C_12  and  C_17
REMARK   10  A    between atoms: C_12  and  C_18
REMARK   11  A    between atoms: C_13  and  C_19
REMARK   12  A    between atoms: C_16  and  C_20
REMARK   13  A    between atoms: C_22  and  C_23
REMARK   14  A    between atoms: C_32  and  C_35
REMARK                            x       y       z     vdW  Elec       q    Type
REMARK                         _______ _______ _______ _____ _____    ______ ____
ROOT
ATOM      8  C   UNL     1      -2.903   2.049  24.728  0.00  0.00    +0.000 C 
ATOM      9  C   UNL     1      -2.350   2.580  23.382  0.00  0.00    +0.032 C 
ATOM     10  C   UNL     1      -3.262   3.217  25.658  0.00  0.00    +0.012 C 
ATOM     11  C   UNL     1      -2.052   4.123  25.951  0.00  0.00    +0.023 C 
ATOM     13  C   UNL     1      -1.292   4.474  24.688  0.00  0.00    -0.073 C 
ATOM     14  C   UNL     1      -1.447   3.781  23.546  0.00  0.00    -0.022 C 
ATOM     19  C   UNL     1      -0.382   5.668  24.755  0.00  0.00    +0.039 C 
ENDROOT
BRANCH   8  12
ATOM     12  C   UNL     1      -4.127   1.151  24.526  0.00  0.00    -0.013 C 
ATOM     17  C   UNL     1      -5.411   1.959  24.677  0.00  0.00    +0.007 C 
ATOM     18  C   UNL     1      -4.070   0.475  23.160  0.00  0.00    +0.007 C 
ENDBRANCH   8  12
BRANCH   9  15
ATOM     15  C   UNL     1      -1.602   1.480  22.619  0.00  0.00    +0.113 C 
BRANCH  15   4
ATOM      2  O   UNL     1       0.287  -0.630  23.045  0.00  0.00    -0.253 OA
ATOM      4  N   UNL     1      -0.189   1.619  22.783  0.00  0.00    -0.299 N 
ATOM      6  N   UNL     1       2.002   0.972  23.115  0.00  0.00    -0.269 N 
ATOM     21  C   UNL     1       0.682   0.533  22.989  0.00  0.00    +0.304 C 
ATOM     37  H   UNL     1       0.206   2.555  22.777  0.00  0.00    +0.150 HD
ATOM     39  H   UNL     1       2.158   1.974  23.043  0.00  0.00    +0.156 HD
BRANCH   6  24
ATOM     24  C   UNL     1       3.160   0.189  23.331  0.00  0.00    +0.038 A 
ATOM     27  C   UNL     1       4.423   0.772  23.236  0.00  0.00    +0.069 A 
ATOM     28  C   UNL     1       3.039  -1.166  23.638  0.00  0.00    +0.023 A 
ATOM     31  C   UNL     1       5.566   0.000  23.447  0.00  0.00    +0.122 A 
ATOM     33  C   UNL     1       4.180  -1.938  23.849  0.00  0.00    +0.005 A 
ATOM     34  C   UNL     1       5.445  -1.355  23.754  0.00  0.00    +0.046 A 
BRANCH  31   3
ATOM      3  O   UNL     1       6.799   0.568  23.355  0.00  0.00    -0.495 OA
ATOM     36  C   UNL     1       7.892  -0.298  23.052  0.00  0.00    +0.277 C 
ENDBRANCH  31   3
ENDBRANCH   6  24
ENDBRANCH  15   4
ENDBRANCH   9  15
BRANCH  11  16
ATOM     16  C   UNL     1      -1.124   3.486  26.991  0.00  0.00    +0.103 C 
BRANCH  16  20
ATOM      1  O   UNL     1       0.561   2.373  25.659  0.00  0.00    -0.276 OA
ATOM      5  N   UNL     1      -0.921   1.105  26.923  0.00  0.00    -0.311 N 
ATOM     20  C   UNL     1      -0.385   2.289  26.437  0.00  0.00    +0.214 C 
ATOM     38  H   UNL     1      -1.659   1.149  27.619  0.00  0.00    +0.149 HD
BRANCH   5  22
ATOM     22  C   UNL     1      -0.414  -0.198  26.560  0.00  0.00    +0.139 C 
BRANCH  22  23
ATOM     23  C   UNL     1      -1.444  -1.023  25.844  0.00  0.00    -0.030 A 
ATOM     25  C   UNL     1      -2.769  -1.016  26.280  0.00  0.00    +0.006 A 
ATOM     26  C   UNL     1      -1.076  -1.794  24.742  0.00  0.00    +0.006 A 
ATOM     29  C   UNL     1      -3.726  -1.781  25.614  0.00  0.00    +0.019 A 
ATOM     30  C   UNL     1      -2.034  -2.560  24.076  0.00  0.00    +0.019 A 
ATOM     32  C   UNL     1      -3.358  -2.553  24.512  0.00  0.00    +0.052 A 
BRANCH  32  35
ATOM      7  N   UNL     1      -5.136  -3.973  23.275  0.00  0.00    -0.191 NA
ATOM     35  C   UNL     1      -4.340  -3.338  23.830  0.00  0.00    +0.099 C 
ENDBRANCH  32  35
ENDBRANCH  22  23
ENDBRANCH   5  22
ENDBRANCH  16  20
ENDBRANCH  11  16
TORSDOF 10
ENDMDL
MODEL 5
REMARK VINA RESULT:       4.1      1.840      5.075
REMARK  Name = 38029337
REMARK  14 active torsions:
REMARK  status: ('A' for Active; 'I' for Inactive)
REMARK    1  A    between atoms: O_3  and  C_31
REMARK    2  A    between atoms: O_3  and  C_36
REMARK    3  A    between atoms: N_4  and  C_15
REMARK    4  A    between atoms: N_5  and  C_22
REMARK    5  A    between atoms: N_6  and  C_24
REMARK    6  A    between atoms: C_8  and  C_12
REMARK    7  A    between atoms: C_9  and  C_15
REMARK    8  A    between atoms: C_11  and  C_16
REMARK    9  A    between atoms: C_12  and  C_17
REMARK   10  A    between atoms: C_12  and  C_18
REMARK   11  A    between atoms: C_13  and  C_19
REMARK   12  A    between atoms: C_16  and  C_20
REMARK   13  A    between atoms: C_22  and  C_23
REMARK   14  A    between atoms: C_32  and  C_35
REMARK                            x       y       z     vdW  Elec       q    Type
REMARK                         _______ _______ _______ _____ _____    ______ ____
ROOT
ATOM      8  C   UNL     1      -4.328  -0.516  24.965  0.00  0.00    +0.000 C 
ATOM      9  C   UNL     1      -3.062   0.016  24.248  0.00  0.00    +0.032 C 
ATOM     10  C   UNL     1      -5.596  -0.010  24.261  0.00  0.00    +0.012 C 
ATOM     11  C   UNL     1      -5.666   1.529  24.223  0.00  0.00    +0.023 C 
ATOM     13  C   UNL     1      -4.355   2.142  23.777  0.00  0.00    -0.073 C 
ATOM     14  C   UNL     1      -3.203   1.447  23.783  0.00  0.00    -0.022 C 
ATOM     19  C   UNL     1      -4.405   3.560  23.282  0.00  0.00    +0.039 C 
ENDROOT
BRANCH   8  12
ATOM     12  C   UNL     1      -4.345  -2.047  25.027  0.00  0.00    -0.013 C 
ATOM     17  C   UNL     1      -4.238  -2.637  23.625  0.00  0.00    +0.007 C 
ATOM     18  C   UNL     1      -3.216  -2.555  25.916  0.00  0.00    +0.007 C 
ENDBRANCH   8  12
BRANCH   9  15
ATOM     15  C   UNL     1      -1.825  -0.109  25.144  0.00  0.00    +0.113 C 
BRANCH  15   4
ATOM      2  O   UNL     1       0.691   1.189  24.706  0.00  0.00    -0.253 OA
ATOM      4  N   UNL     1      -0.714  -0.625  24.408  0.00  0.00    -0.299 N 
ATOM      6  N   UNL     1       1.396  -0.680  23.472  0.00  0.00    -0.269 N 
ATOM     21  C   UNL     1       0.497   0.071  24.234  0.00  0.00    +0.304 C 
ATOM     37  H   UNL     1      -0.812  -1.534  23.965  0.00  0.00    +0.150 HD
ATOM     39  H   UNL     1       1.076  -1.592  23.157  0.00  0.00    +0.156 HD
BRANCH   6  24
ATOM     24  C   UNL     1       2.709  -0.326  23.082  0.00  0.00    +0.038 A 
ATOM     27  C   UNL     1       3.801  -0.781  23.820  0.00  0.00    +0.069 A 
ATOM     28  C   UNL     1       2.911   0.476  21.959  0.00  0.00    +0.023 A 
ATOM     31  C   UNL     1       5.096  -0.432  23.437  0.00  0.00    +0.122 A 
ATOM     33  C   UNL     1       4.205   0.825  21.575  0.00  0.00    +0.005 A 
ATOM     34  C   UNL     1       5.298   0.372  22.314  0.00  0.00    +0.046 A 
BRANCH  31   3
ATOM      3  O   UNL     1       6.163  -0.874  24.157  0.00  0.00    -0.495 OA
ATOM     36  C   UNL     1       7.460  -0.543  23.664  0.00  0.00    +0.277 C 
ENDBRANCH  31   3
ENDBRANCH   6  24
ENDBRANCH  15   4
ENDBRANCH   9  15
BRANCH  11  16
ATOM     16  C   UNL     1      -6.105   2.095  25.578  0.00  0.00    +0.103 C 
BRANCH  16  20
ATOM      1  O   UNL     1      -5.761   4.478  25.814  0.00  0.00    -0.276 OA
ATOM      5  N   UNL     1      -4.083   3.008  26.467  0.00  0.00    -0.311 N 
ATOM     20  C   UNL     1      -5.329   3.337  25.954  0.00  0.00    +0.214 C 
ATOM     38  H   UNL     1      -3.851   2.029  26.607  0.00  0.00    +0.149 HD
BRANCH   5  22
ATOM     22  C   UNL     1      -3.126   3.997  26.908  0.00  0.00    +0.139 C 
BRANCH  22  23
ATOM     23  C   UNL     1      -2.160   4.369  25.819  0.00  0.00    -0.030 A 
ATOM     25  C   UNL     1      -1.253   3.425  25.339  0.00  0.00    +0.006 A 
ATOM     26  C   UNL     1      -2.172   5.658  25.288  0.00  0.00    +0.006 A 
ATOM     29  C   UNL     1      -0.357   3.770  24.328  0.00  0.00    +0.019 A 
ATOM     30  C   UNL     1      -1.275   6.004  24.277  0.00  0.00    +0.019 A 
ATOM     32  C   UNL     1      -0.368   5.060  23.797  0.00  0.00    +0.052 A 
BRANCH  32  35
ATOM      7  N   UNL     1       1.296   5.702  21.919  0.00  0.00    -0.191 NA
ATOM     35  C   UNL     1       0.551   5.413  22.760  0.00  0.00    +0.099 C 
ENDBRANCH  32  35
ENDBRANCH  22  23
ENDBRANCH   5  22
ENDBRANCH  16  20
ENDBRANCH  11  16
TORSDOF 10
ENDMDL
MODEL 6
REMARK VINA RESULT:       4.5      1.295      1.937
REMARK  Name = 38029337
REMARK  14 active torsions:
REMARK  status: ('A' for Active; 'I' for Inactive)
REMARK    1  A    between atoms: O_3  and  C_31
REMARK    2  A    between atoms: O_3  and  C_36
REMARK    3  A    between atoms: N_4  and  C_15
REMARK    4  A    between atoms: N_5  and  C_22
REMARK    5  A    between atoms: N_6  and  C_24
REMARK    6  A    between atoms: C_8  and  C_12
REMARK    7  A    between atoms: C_9  and  C_15
REMARK    8  A    between atoms: C_11  and  C_16
REMARK    9  A    between atoms: C_12  and  C_17
REMARK   10  A    between atoms: C_12  and  C_18
REMARK   11  A    between atoms: C_13  and  C_19
REMARK   12  A    between atoms: C_16  and  C_20
REMARK   13  A    between atoms: C_22  and  C_23
REMARK   14  A    between atoms: C_32  and  C_35
REMARK                            x       y       z     vdW  Elec       q    Type
REMARK                         _______ _______ _______ _____ _____    ______ ____
ROOT
ATOM      8  C   UNL     1      -3.376   2.896  24.346  0.00  0.00    +0.000 C 
ATOM      9  C   UNL     1      -2.749   4.171  24.962  0.00  0.00    +0.032 C 
ATOM     10  C   UNL     1      -4.752   3.214  23.742  0.00  0.00    +0.012 C 
ATOM     11  C   UNL     1      -5.730   3.784  24.786  0.00  0.00    +0.023 C 
ATOM     13  C   UNL     1      -5.090   4.874  25.621  0.00  0.00    -0.073 C 
ATOM     14  C   UNL     1      -3.757   5.040  25.678  0.00  0.00    -0.022 C 
ATOM     19  C   UNL     1      -6.020   5.798  26.355  0.00  0.00    +0.039 C 
ENDROOT
BRANCH   8  12
ATOM     12  C   UNL     1      -2.470   2.276  23.278  0.00  0.00    -0.013 C 
ATOM     17  C   UNL     1      -2.809   0.801  23.084  0.00  0.00    +0.007 C 
ATOM     18  C   UNL     1      -2.600   3.038  21.963  0.00  0.00    +0.007 C 
ENDBRANCH   8  12
BRANCH   9  15
ATOM     15  C   UNL     1      -1.608   3.817  25.923  0.00  0.00    +0.113 C 
BRANCH  15   4
ATOM      2  O   UNL     1       0.358   3.502  23.864  0.00  0.00    -0.253 OA
ATOM      4  N   UNL     1      -0.971   2.600  25.529  0.00  0.00    -0.299 N 
ATOM      6  N   UNL     1       0.436   1.205  24.344  0.00  0.00    -0.269 N 
ATOM     21  C   UNL     1      -0.009   2.520  24.505  0.00  0.00    +0.304 C 
ATOM     37  H   UNL     1      -1.245   1.742  25.997  0.00  0.00    +0.150 HD
ATOM     39  H   UNL     1       0.029   0.507  24.960  0.00  0.00    +0.156 HD
BRANCH   6  24
ATOM     24  C   UNL     1       1.393   0.720  23.422  0.00  0.00    +0.038 A 
ATOM     27  C   UNL     1       2.747   0.994  23.614  0.00  0.00    +0.069 A 
ATOM     28  C   UNL     1       0.984  -0.033  22.322  0.00  0.00    +0.023 A 
ATOM     31  C   UNL     1       3.692   0.517  22.705  0.00  0.00    +0.122 A 
ATOM     33  C   UNL     1       1.927  -0.510  21.413  0.00  0.00    +0.005 A 
ATOM     34  C   UNL     1       3.282  -0.235  21.604  0.00  0.00    +0.046 A 
BRANCH  31   3
ATOM      3  O   UNL     1       5.013   0.784  22.892  0.00  0.00    -0.495 OA
ATOM     36  C   UNL     1       5.690   0.032  23.898  0.00  0.00    +0.277 C 
ENDBRANCH  31   3
ENDBRANCH   6  24
ENDBRANCH  15   4
ENDBRANCH   9  15
BRANCH  11  16
ATOM     16  C   UNL     1      -6.297   2.672  25.675  0.00  0.00    +0.103 C 
BRANCH  16  20
ATOM      1  O   UNL     1      -7.160   1.052  24.100  0.00  0.00    -0.276 OA
ATOM      5  N   UNL     1      -5.331   0.501  25.424  0.00  0.00    -0.311 N 
ATOM     20  C   UNL     1      -6.336   1.339  24.965  0.00  0.00    +0.214 C 
ATOM     38  H   UNL     1      -4.657   0.861  26.093  0.00  0.00    +0.149 HD
BRANCH   5  22
ATOM     22  C   UNL     1      -5.131  -0.840  24.922  0.00  0.00    +0.139 C 
BRANCH  22  23
ATOM     23  C   UNL     1      -3.696  -1.270  25.025  0.00  0.00    -0.030 A 
ATOM     25  C   UNL     1      -2.822  -0.585  25.869  0.00  0.00    +0.006 A 
ATOM     26  C   UNL     1      -3.238  -2.355  24.278  0.00  0.00    +0.006 A 
ATOM     29  C   UNL     1      -1.489  -0.985  25.965  0.00  0.00    +0.019 A 
ATOM     30  C   UNL     1      -1.905  -2.755  24.374  0.00  0.00    +0.019 A 
ATOM     32  C   UNL     1      -1.031  -2.070  25.218  0.00  0.00    +0.052 A 
BRANCH  32  35
ATOM      7  N   UNL     1       1.444  -2.811  25.396  0.00  0.00    -0.191 NA
ATOM     35  C   UNL     1       0.336  -2.479  25.317  0.00  0.00    +0.099 C 
ENDBRANCH  32  35
ENDBRANCH  22  23
ENDBRANCH   5  22
ENDBRANCH  16  20
ENDBRANCH  11  16
TORSDOF 10
ENDMDL
MODEL 7
REMARK VINA RESULT:       4.9      1.726      2.680
REMARK  Name = 38029337
REMARK  14 active torsions:
REMARK  status: ('A' for Active; 'I' for Inactive)
REMARK    1  A    between atoms: O_3  and  C_31
REMARK    2  A    between atoms: O_3  and  C_36
REMARK    3  A    between atoms: N_4  and  C_15
REMARK    4  A    between atoms: N_5  and  C_22
REMARK    5  A    between atoms: N_6  and  C_24
REMARK    6  A    between atoms: C_8  and  C_12
REMARK    7  A    between atoms: C_9  and  C_15
REMARK    8  A    between atoms: C_11  and  C_16
REMARK    9  A    between atoms: C_12  and  C_17
REMARK   10  A    between atoms: C_12  and  C_18
REMARK   11  A    between atoms: C_13  and  C_19
REMARK   12  A    between atoms: C_16  and  C_20
REMARK   13  A    between atoms: C_22  and  C_23
REMARK   14  A    between atoms: C_32  and  C_35
REMARK                            x       y       z     vdW  Elec       q    Type
REMARK                         _______ _______ _______ _____ _____    ______ ____
ROOT
ATOM      8  C   UNL     1      -3.921   2.831  23.168  0.00  0.00    +0.000 C 
ATOM      9  C   UNL     1      -2.526   2.441  23.717  0.00  0.00    +0.032 C 
ATOM     10  C   UNL     1      -4.328   4.221  23.679  0.00  0.00    +0.012 C 
ATOM     11  C   UNL     1      -4.372   4.287  25.217  0.00  0.00    +0.023 C 
ATOM     13  C   UNL     1      -3.137   3.671  25.843  0.00  0.00    -0.073 C 
ATOM     14  C   UNL     1      -2.317   2.859  25.154  0.00  0.00    -0.022 C 
ATOM     19  C   UNL     1      -2.842   4.047  27.268  0.00  0.00    +0.039 C 
ENDROOT
BRANCH   8  12
ATOM     12  C   UNL     1      -3.956   2.810  21.637  0.00  0.00    -0.013 C 
ATOM     17  C   UNL     1      -4.420   4.159  21.097  0.00  0.00    +0.007 C 
ATOM     18  C   UNL     1      -2.585   2.444  21.078  0.00  0.00    +0.007 C 
ENDBRANCH   8  12
BRANCH   9  15
ATOM     15  C   UNL     1      -2.282   0.933  23.584  0.00  0.00    +0.113 C 
BRANCH  15   4
ATOM      2  O   UNL     1       0.352   1.020  24.706  0.00  0.00    -0.253 OA
ATOM      4  N   UNL     1      -1.053   0.675  22.901  0.00  0.00    -0.299 N 
ATOM      6  N   UNL     1       1.224   0.437  22.605  0.00  0.00    -0.269 N 
ATOM     21  C   UNL     1       0.210   0.736  23.519  0.00  0.00    +0.304 C 
ATOM     37  H   UNL     1      -1.091   0.461  21.909  0.00  0.00    +0.150 HD
ATOM     39  H   UNL     1       0.934   0.221  21.655  0.00  0.00    +0.156 HD
BRANCH   6  24
ATOM     24  C   UNL     1       2.619   0.394  22.840  0.00  0.00    +0.038 A 
ATOM     27  C   UNL     1       3.200  -0.754  23.377  0.00  0.00    +0.069 A 
ATOM     28  C   UNL     1       3.412   1.500  22.535  0.00  0.00    +0.023 A 
ATOM     31  C   UNL     1       4.575  -0.796  23.610  0.00  0.00    +0.122 A 
ATOM     33  C   UNL     1       4.786   1.459  22.768  0.00  0.00    +0.005 A 
ATOM     34  C   UNL     1       5.368   0.310  23.306  0.00  0.00    +0.046 A 
BRANCH  31   3
ATOM      3  O   UNL     1       5.143  -1.916  24.134  0.00  0.00    -0.495 OA
ATOM     36  C   UNL     1       6.430  -1.771  24.734  0.00  0.00    +0.277 C 
ENDBRANCH  31   3
ENDBRANCH   6  24
ENDBRANCH  15   4
ENDBRANCH   9  15
BRANCH  11  16
ATOM     16  C   UNL     1      -5.647   3.634  25.762  0.00  0.00    +0.103 C 
BRANCH  16  20
ATOM      1  O   UNL     1      -6.721   2.166  24.166  0.00  0.00    -0.276 OA
ATOM      5  N   UNL     1      -5.200   1.287  25.687  0.00  0.00    -0.311 N 
ATOM     20  C   UNL     1      -5.934   2.306  25.099  0.00  0.00    +0.214 C 
ATOM     38  H   UNL     1      -4.523   1.521  26.408  0.00  0.00    +0.149 HD
BRANCH   5  22
ATOM     22  C   UNL     1      -5.276  -0.090  25.258  0.00  0.00    +0.139 C 
BRANCH  22  23
ATOM     23  C   UNL     1      -3.935  -0.765  25.294  0.00  0.00    -0.030 A 
ATOM     25  C   UNL     1      -2.968  -0.347  26.208  0.00  0.00    +0.006 A 
ATOM     26  C   UNL     1      -3.657  -1.811  24.414  0.00  0.00    +0.006 A 
ATOM     29  C   UNL     1      -1.723  -0.974  26.243  0.00  0.00    +0.019 A 
ATOM     30  C   UNL     1      -2.411  -2.438  24.448  0.00  0.00    +0.019 A 
ATOM     32  C   UNL     1      -1.444  -2.020  25.363  0.00  0.00    +0.052 A 
BRANCH  32  35
ATOM      7  N   UNL     1       0.868  -3.184  25.428  0.00  0.00    -0.191 NA
ATOM     35  C   UNL     1      -0.168  -2.663  25.398  0.00  0.00    +0.099 C 
ENDBRANCH  32  35
ENDBRANCH  22  23
ENDBRANCH   5  22
ENDBRANCH  16  20
ENDBRANCH  11  16
TORSDOF 10
ENDMDL
MODEL 8
REMARK VINA RESULT:       5.1      2.658      5.047
REMARK  Name = 38029337
REMARK  14 active torsions:
REMARK  status: ('A' for Active; 'I' for Inactive)
REMARK    1  A    between atoms: O_3  and  C_31
REMARK    2  A    between atoms: O_3  and  C_36
REMARK    3  A    between atoms: N_4  and  C_15
REMARK    4  A    between atoms: N_5  and  C_22
REMARK    5  A    between atoms: N_6  and  C_24
REMARK    6  A    between atoms: C_8  and  C_12
REMARK    7  A    between atoms: C_9  and  C_15
REMARK    8  A    between atoms: C_11  and  C_16
REMARK    9  A    between atoms: C_12  and  C_17
REMARK   10  A    between atoms: C_12  and  C_18
REMARK   11  A    between atoms: C_13  and  C_19
REMARK   12  A    between atoms: C_16  and  C_20
REMARK   13  A    between atoms: C_22  and  C_23
REMARK   14  A    between atoms: C_32  and  C_35
REMARK                            x       y       z     vdW  Elec       q    Type
REMARK                         _______ _______ _______ _____ _____    ______ ____
ROOT
ATOM      8  C   UNL     1      -3.341   1.996  23.717  0.00  0.00    +0.000 C 
ATOM      9  C   UNL     1      -3.944   3.348  24.172  0.00  0.00    +0.032 C 
ATOM     10  C   UNL     1      -4.447   0.939  23.567  0.00  0.00    +0.012 C 
ATOM     11  C   UNL     1      -5.218   0.713  24.881  0.00  0.00    +0.023 C 
ATOM     13  C   UNL     1      -5.617   2.021  25.533  0.00  0.00    -0.073 C 
ATOM     14  C   UNL     1      -5.045   3.190  25.194  0.00  0.00    -0.022 C 
ATOM     19  C   UNL     1      -6.719   1.960  26.552  0.00  0.00    +0.039 C 
ENDROOT
BRANCH   8  12
ATOM     12  C   UNL     1      -2.571   2.131  22.399  0.00  0.00    -0.013 C 
ATOM     17  C   UNL     1      -2.267   0.754  21.817  0.00  0.00    +0.007 C 
ATOM     18  C   UNL     1      -3.360   2.977  21.406  0.00  0.00    +0.007 C 
ENDBRANCH   8  12
BRANCH   9  15
ATOM     15  C   UNL     1      -2.859   4.277  24.730  0.00  0.00    +0.113 C 
BRANCH  15   4
ATOM      2  O   UNL     1      -0.103   3.949  25.434  0.00  0.00    -0.253 OA
ATOM      4  N   UNL     1      -2.347   3.775  25.966  0.00  0.00    -0.299 N 
ATOM      6  N   UNL     1      -0.774   3.125  27.527  0.00  0.00    -0.269 N 
ATOM     21  C   UNL     1      -0.974   3.641  26.243  0.00  0.00    +0.304 C 
ATOM     37  H   UNL     1      -3.010   3.474  26.674  0.00  0.00    +0.150 HD
ATOM     39  H   UNL     1      -1.609   2.924  28.072  0.00  0.00    +0.156 HD
BRANCH   6  24
ATOM     24  C   UNL     1       0.455   2.848  28.169  0.00  0.00    +0.038 A 
ATOM     27  C   UNL     1       0.466   2.403  29.491  0.00  0.00    +0.069 A 
ATOM     28  C   UNL     1       1.656   3.018  27.481  0.00  0.00    +0.023 A 
ATOM     31  C   UNL     1       1.678   2.130  30.125  0.00  0.00    +0.122 A 
ATOM     33  C   UNL     1       2.868   2.745  28.114  0.00  0.00    +0.005 A 
ATOM     34  C   UNL     1       2.879   2.302  29.437  0.00  0.00    +0.046 A 
BRANCH  31   3
ATOM      3  O   UNL     1       1.689   1.696  31.415  0.00  0.00    -0.495 OA
ATOM     36  C   UNL     1       0.654   2.178  32.270  0.00  0.00    +0.277 C 
ENDBRANCH  31   3
ENDBRANCH   6  24
ENDBRANCH  15   4
ENDBRANCH   9  15
BRANCH  11  16
ATOM     16  C   UNL     1      -4.414  -0.161  25.849  0.00  0.00    +0.103 C 
BRANCH  16  20
ATOM      1  O   UNL     1      -4.069  -2.135  24.494  0.00  0.00    -0.276 OA
ATOM      5  N   UNL     1      -2.230  -0.950  25.280  0.00  0.00    -0.311 N 
ATOM     20  C   UNL     1      -3.586  -1.199  25.126  0.00  0.00    +0.214 C 
ATOM     38  H   UNL     1      -1.937  -0.106  25.764  0.00  0.00    +0.149 HD
BRANCH   5  22
ATOM     22  C   UNL     1      -1.204  -1.783  24.697  0.00  0.00    +0.139 C 
BRANCH  22  23
ATOM     23  C   UNL     1      -0.039  -0.975  24.201  0.00  0.00    -0.030 A 
ATOM     25  C   UNL     1       1.025  -1.608  23.558  0.00  0.00    +0.006 A 
ATOM     26  C   UNL     1      -0.022   0.408  24.381  0.00  0.00    +0.006 A 
ATOM     29  C   UNL     1       2.106  -0.859  23.096  0.00  0.00    +0.019 A 
ATOM     30  C   UNL     1       1.060   1.158  23.919  0.00  0.00    +0.019 A 
ATOM     32  C   UNL     1       2.124   0.524  23.277  0.00  0.00    +0.052 A 
BRANCH  32  35
ATOM      7  N   UNL     1       4.133   1.914  22.419  0.00  0.00    -0.191 NA
ATOM     35  C   UNL     1       3.233   1.292  22.803  0.00  0.00    +0.099 C 
ENDBRANCH  32  35
ENDBRANCH  22  23
ENDBRANCH   5  22
ENDBRANCH  16  20
ENDBRANCH  11  16
TORSDOF 10
ENDMDL
MODEL 9
REMARK VINA RESULT:       5.3      2.501      4.750
REMARK  Name = 38029337
REMARK  14 active torsions:
REMARK  status: ('A' for Active; 'I' for Inactive)
REMARK    1  A    between atoms: O_3  and  C_31
REMARK    2  A    between atoms: O_3  and  C_36
REMARK    3  A    between atoms: N_4  and  C_15
REMARK    4  A    between atoms: N_5  and  C_22
REMARK    5  A    between atoms: N_6  and  C_24
REMARK    6  A    between atoms: C_8  and  C_12
REMARK    7  A    between atoms: C_9  and  C_15
REMARK    8  A    between atoms: C_11  and  C_16
REMARK    9  A    between atoms: C_12  and  C_17
REMARK   10  A    between atoms: C_12  and  C_18
REMARK   11  A    between atoms: C_13  and  C_19
REMARK   12  A    between atoms: C_16  and  C_20
REMARK   13  A    between atoms: C_22  and  C_23
REMARK   14  A    between atoms: C_32  and  C_35
REMARK                            x       y       z     vdW  Elec       q    Type
REMARK                         _______ _______ _______ _____ _____    ______ ____
ROOT
ATOM      8  C   UNL     1      -3.306   1.892  23.722  0.00  0.00    +0.000 C 
ATOM      9  C   UNL     1      -4.081   3.201  24.013  0.00  0.00    +0.032 C 
ATOM     10  C   UNL     1      -4.268   0.694  23.697  0.00  0.00    +0.012 C 
ATOM     11  C   UNL     1      -5.027   0.528  25.027  0.00  0.00    +0.023 C 
ATOM     13  C   UNL     1      -5.597   1.843  25.518  0.00  0.00    -0.073 C 
ATOM     14  C   UNL     1      -5.171   3.027  25.045  0.00  0.00    -0.022 C 
ATOM     19  C   UNL     1      -6.701   1.764  26.535  0.00  0.00    +0.039 C 
ENDROOT
BRANCH   8  12
ATOM     12  C   UNL     1      -2.536   1.967  22.400  0.00  0.00    -0.013 C 
ATOM     17  C   UNL     1      -2.339   0.571  21.819  0.00  0.00    +0.007 C 
ATOM     18  C   UNL     1      -3.268   2.867  21.410  0.00  0.00    +0.007 C 
ENDBRANCH   8  12
BRANCH   9  15
ATOM     15  C   UNL     1      -3.130   4.318  24.459  0.00  0.00    +0.113 C 
BRANCH  15   4
ATOM      2  O   UNL     1      -2.179   4.064  27.148  0.00  0.00    -0.253 OA
ATOM      4  N   UNL     1      -1.873   3.781  24.873  0.00  0.00    -0.299 N 
ATOM      6  N   UNL     1      -0.196   3.120  26.317  0.00  0.00    -0.269 N 
ATOM     21  C   UNL     1      -1.470   3.686  26.218  0.00  0.00    +0.304 C 
ATOM     37  H   UNL     1      -1.222   3.473  24.156  0.00  0.00    +0.150 HD
ATOM     39  H   UNL     1       0.256   2.859  25.444  0.00  0.00    +0.156 HD
BRANCH   6  24
ATOM     24  C   UNL     1       0.549   2.861  27.491  0.00  0.00    +0.038 A 
ATOM     27  C   UNL     1       1.935   3.011  27.483  0.00  0.00    +0.069 A 
ATOM     28  C   UNL     1      -0.102   2.457  28.656  0.00  0.00    +0.023 A 
ATOM     31  C   UNL     1       2.672   2.754  28.640  0.00  0.00    +0.122 A 
ATOM     33  C   UNL     1       0.633   2.201  29.813  0.00  0.00    +0.005 A 
ATOM     34  C   UNL     1       2.021   2.349  29.805  0.00  0.00    +0.046 A 
BRANCH  31   3
ATOM      3  O   UNL     1       4.025   2.900  28.633  0.00  0.00    -0.495 OA
ATOM     36  C   UNL     1       4.777   1.932  27.902  0.00  0.00    +0.277 C 
ENDBRANCH  31   3
ENDBRANCH   6  24
ENDBRANCH  15   4
ENDBRANCH   9  15
BRANCH  11  16
ATOM     16  C   UNL     1      -4.137  -0.118  26.094  0.00  0.00    +0.103 C 
BRANCH  16  20
ATOM      1  O   UNL     1      -3.750  -2.367  25.291  0.00  0.00    -0.276 OA
ATOM      5  N   UNL     1      -1.990  -0.849  25.338  0.00  0.00    -0.311 N 
ATOM     20  C   UNL     1      -3.304  -1.248  25.533  0.00  0.00    +0.214 C 
ATOM     38  H   UNL     1      -1.741   0.122  25.504  0.00  0.00    +0.149 HD
BRANCH   5  22
ATOM     22  C   UNL     1      -0.969  -1.725  24.813  0.00  0.00    +0.139 C 
BRANCH  22  23
ATOM     23  C   UNL     1       0.197  -0.960  24.255  0.00  0.00    -0.030 A 
ATOM     25  C   UNL     1       0.131   0.429  24.147  0.00  0.00    +0.006 A 
ATOM     26  C   UNL     1       1.344  -1.638  23.846  0.00  0.00    +0.006 A 
ATOM     29  C   UNL     1       1.213   1.140  23.629  0.00  0.00    +0.019 A 
ATOM     30  C   UNL     1       2.427  -0.926  23.328  0.00  0.00    +0.019 A 
ATOM     32  C   UNL     1       2.361   0.463  23.220  0.00  0.00    +0.052 A 
BRANCH  32  35
ATOM      7  N   UNL     1       4.370   1.783  22.257  0.00  0.00    -0.191 NA
ATOM     35  C   UNL     1       3.470   1.192  22.689  0.00  0.00    +0.099 C 
ENDBRANCH  32  35
ENDBRANCH  22  23
ENDBRANCH   5  22
ENDBRANCH  16  20
ENDBRANCH  11  16
TORSDOF 10
ENDMDL
MODEL 10
REMARK VINA RESULT:       5.3      1.855      5.096
REMARK  Name = 38029337
REMARK  14 active torsions:
REMARK  status: ('A' for Active; 'I' for Inactive)
REMARK    1  A    between atoms: O_3  and  C_31
REMARK    2  A    between atoms: O_3  and  C_36
REMARK    3  A    between atoms: N_4  and  C_15
REMARK    4  A    between atoms: N_5  and  C_22
REMARK    5  A    between atoms: N_6  and  C_24
REMARK    6  A    between atoms: C_8  and  C_12
REMARK    7  A    between atoms: C_9  and  C_15
REMARK    8  A    between atoms: C_11  and  C_16
REMARK    9  A    between atoms: C_12  and  C_17
REMARK   10  A    between atoms: C_12  and  C_18
REMARK   11  A    between atoms: C_13  and  C_19
REMARK   12  A    between atoms: C_16  and  C_20
REMARK   13  A    between atoms: C_22  and  C_23
REMARK   14  A    between atoms: C_32  and  C_35
REMARK                            x       y       z     vdW  Elec       q    Type
REMARK                         _______ _______ _______ _____ _____    ______ ____
ROOT
ATOM      8  C   UNL     1      -1.850   0.361  24.751  0.00  0.00    +0.000 C 
ATOM      9  C   UNL     1      -0.819  -0.709  24.313  0.00  0.00    +0.032 C 
ATOM     10  C   UNL     1      -2.776  -0.203  25.840  0.00  0.00    +0.012 C 
ATOM     11  C   UNL     1      -3.541  -1.453  25.365  0.00  0.00    +0.023 C 
ATOM     13  C   UNL     1      -2.626  -2.445  24.676  0.00  0.00    -0.073 C 
ATOM     14  C   UNL     1      -1.408  -2.097  24.224  0.00  0.00    -0.022 C 
ATOM     19  C   UNL     1      -3.125  -3.857  24.558  0.00  0.00    +0.039 C 
ENDROOT
BRANCH   8  12
ATOM     12  C   UNL     1      -1.168   1.635  25.259  0.00  0.00    -0.013 C 
ATOM     17  C   UNL     1      -0.194   1.304  26.386  0.00  0.00    +0.007 C 
ATOM     18  C   UNL     1      -0.451   2.346  24.116  0.00  0.00    +0.007 C 
ENDBRANCH   8  12
BRANCH   9  15
ATOM     15  C   UNL     1      -0.177  -0.340  22.970  0.00  0.00    +0.113 C 
BRANCH  15   4
ATOM      2  O   UNL     1       2.134   1.226  23.613  0.00  0.00    -0.253 OA
ATOM      4  N   UNL     1       1.186  -0.769  22.924  0.00  0.00    -0.299 N 
ATOM      6  N   UNL     1       3.483  -0.631  23.117  0.00  0.00    -0.269 N 
ATOM     21  C   UNL     1       2.275   0.059  23.255  0.00  0.00    +0.304 C 
ATOM     37  H   UNL     1       1.381  -1.714  22.610  0.00  0.00    +0.150 HD
ATOM     39  H   UNL     1       3.423  -1.598  22.810  0.00  0.00    +0.156 HD
BRANCH   6  24
ATOM     24  C   UNL     1       4.790  -0.146  23.354  0.00  0.00    +0.038 A 
ATOM     27  C   UNL     1       5.884  -0.772  22.758  0.00  0.00    +0.069 A 
ATOM     28  C   UNL     1       4.985   0.958  24.184  0.00  0.00    +0.023 A 
ATOM     31  C   UNL     1       7.174  -0.296  22.992  0.00  0.00    +0.122 A 
ATOM     33  C   UNL     1       6.274   1.435  24.418  0.00  0.00    +0.005 A 
ATOM     34  C   UNL     1       7.369   0.808  23.822  0.00  0.00    +0.046 A 
BRANCH  31   3
ATOM      3  O   UNL     1       8.242  -0.907  22.410  0.00  0.00    -0.495 OA
ATOM     36  C   UNL     1       9.537  -0.419  22.759  0.00  0.00    +0.277 C 
ENDBRANCH  31   3
ENDBRANCH   6  24
ENDBRANCH  15   4
ENDBRANCH   9  15
BRANCH  11  16
ATOM     16  C   UNL     1      -4.717  -1.070  24.460  0.00  0.00    +0.103 C 
BRANCH  16  20
ATOM      1  O   UNL     1      -4.230   1.057  23.416  0.00  0.00    -0.276 OA
ATOM      5  N   UNL     1      -5.700   0.974  25.215  0.00  0.00    -0.311 N 
ATOM     20  C   UNL     1      -4.834   0.426  24.280  0.00  0.00    +0.214 C 
ATOM     38  H   UNL     1      -6.204   0.353  25.842  0.00  0.00    +0.149 HD
BRANCH   5  22
ATOM     22  C   UNL     1      -6.001   2.385  25.280  0.00  0.00    +0.139 C 
BRANCH  22  23
ATOM     23  C   UNL     1      -4.762   3.229  25.197  0.00  0.00    -0.030 A 
ATOM     25  C   UNL     1      -4.363   3.763  23.972  0.00  0.00    +0.006 A 
ATOM     26  C   UNL     1      -4.011   3.480  26.345  0.00  0.00    +0.006 A 
ATOM     29  C   UNL     1      -3.213   4.547  23.894  0.00  0.00    +0.019 A 
ATOM     30  C   UNL     1      -2.860   4.265  26.267  0.00  0.00    +0.019 A 
ATOM     32  C   UNL     1      -2.461   4.798  25.042  0.00  0.00    +0.052 A 
BRANCH  32  35
ATOM      7  N   UNL     1      -0.324   6.253  24.898  0.00  0.00    -0.191 NA
ATOM     35  C   UNL     1      -1.282   5.602  24.962  0.00  0.00    +0.099 C 
ENDBRANCH  32  35
ENDBRANCH  22  23
ENDBRANCH   5  22
ENDBRANCH  16  20
ENDBRANCH  11  16
TORSDOF 10
ENDMDL
