MODEL 1
REMARK VINA RESULT:      -3.8      0.000      0.000
REMARK  Name = 40777724
REMARK  9 active torsions:
REMARK  status: ('A' for Active; 'I' for Inactive)
REMARK    1  A    between atoms: O_2  and  C_27
REMARK    2  A    between atoms: O_2  and  C_29
REMARK    3  A    between atoms: N_3  and  C_8
REMARK    4  A    between atoms: N_3  and  C_14
REMARK    5  A    between atoms: N_4  and  C_17
REMARK    6  A    between atoms: C_6  and  C_9
REMARK    7  A    between atoms: C_12  and  C_15
REMARK    8  A    between atoms: C_13  and  C_16
REMARK    9  A    between atoms: C_14  and  C_18
REMARK                            x       y       z     vdW  Elec       q    Type
REMARK                         _______ _______ _______ _____ _____    ______ ____
ROOT
ATOM      6  C   UNL     1      16.330  -8.406  28.388  0.00  0.00    +0.047 C 
ATOM      7  C   UNL     1      15.078  -9.302  28.447  0.00  0.00    +0.035 C 
ATOM      8  C   UNL     1      15.396 -10.416  29.460  0.00  0.00    +0.078 C 
ATOM     10  C   UNL     1      17.405  -9.329  28.884  0.00  0.00    -0.021 C 
ATOM     11  C   UNL     1      16.893 -10.415  29.472  0.00  0.00    -0.012 C 
ENDROOT
BRANCH   6   9
ATOM      4  N   UNL     1      16.909  -6.473  25.330  0.00  0.00    -0.236 N 
ATOM      5  N   UNL     1      16.977  -7.693  24.771  0.00  0.00    -0.171 NA
ATOM      9  C   UNL     1      16.582  -7.822  27.017  0.00  0.00    +0.003 A 
ATOM     12  C   UNL     1      16.674  -6.495  26.674  0.00  0.00    +0.046 A 
ATOM     13  C   UNL     1      16.777  -8.513  25.806  0.00  0.00    +0.064 A 
ATOM     15  C   UNL     1      16.561  -5.274  27.497  0.00  0.00    +0.066 C 
ATOM     16  C   UNL     1      16.781  -9.970  25.587  0.00  0.00    +0.068 C 
BRANCH   4  17
ATOM      1 BR   UNL     1      17.217  -1.218  25.119  0.00  0.00    -0.050 Br
ATOM     17  C   UNL     1      17.073  -5.337  24.536  0.00  0.00    +0.067 A 
ATOM     19  C   UNL     1      17.067  -4.071  25.122  0.00  0.00    +0.043 A 
ATOM     20  C   UNL     1      17.242  -5.468  23.158  0.00  0.00    +0.028 A 
ATOM     25  C   UNL     1      17.230  -2.935  24.328  0.00  0.00    +0.020 A 
ATOM     26  C   UNL     1      17.405  -4.332  22.364  0.00  0.00    +0.003 A 
ATOM     28  C   UNL     1      17.399  -3.066  22.950  0.00  0.00    +0.015 A 
ENDBRANCH   4  17
ENDBRANCH   6   9
BRANCH   8   3
ATOM      3  N   UNL     1      14.851 -10.127  30.780  0.00  0.00    -0.306 NA
ATOM     30  H   UNL     1      15.606 -10.137  31.466  0.00  0.00    +0.123 HD
BRANCH   3  14
ATOM     14  C   UNL     1      14.207  -8.819  30.805  0.00  0.00    +0.116 C 
BRANCH  14  18
ATOM     18  C   UNL     1      12.784  -8.903  31.287  0.00  0.00    -0.033 A 
ATOM     21  C   UNL     1      12.197 -10.148  31.516  0.00  0.00    +0.008 A 
ATOM     22  C   UNL     1      12.050  -7.737  31.505  0.00  0.00    +0.008 A 
ATOM     23  C   UNL     1      10.879 -10.227  31.963  0.00  0.00    +0.046 A 
ATOM     24  C   UNL     1      10.731  -7.815  31.952  0.00  0.00    +0.046 A 
ATOM     27  C   UNL     1      10.145  -9.060  32.181  0.00  0.00    +0.120 A 
BRANCH  27   2
ATOM      2  O   UNL     1       8.859  -9.137  32.617  0.00  0.00    -0.495 OA
ATOM     29  C   UNL     1       7.836  -8.766  31.693  0.00  0.00    +0.277 C 
ENDBRANCH  27   2
ENDBRANCH  14  18
ENDBRANCH   3  14
ENDBRANCH   8   3
TORSDOF 6
ENDMDL
MODEL 2
REMARK VINA RESULT:       0.2     16.197     19.243
REMARK  Name = 40777724
REMARK  9 active torsions:
REMARK  status: ('A' for Active; 'I' for Inactive)
REMARK    1  A    between atoms: O_2  and  C_27
REMARK    2  A    between atoms: O_2  and  C_29
REMARK    3  A    between atoms: N_3  and  C_8
REMARK    4  A    between atoms: N_3  and  C_14
REMARK    5  A    between atoms: N_4  and  C_17
REMARK    6  A    between atoms: C_6  and  C_9
REMARK    7  A    between atoms: C_12  and  C_15
REMARK    8  A    between atoms: C_13  and  C_16
REMARK    9  A    between atoms: C_14  and  C_18
REMARK                            x       y       z     vdW  Elec       q    Type
REMARK                         _______ _______ _______ _____ _____    ______ ____
ROOT
ATOM      6  C   UNL     1      -2.507   0.083  25.245  0.00  0.00    +0.047 C 
ATOM      7  C   UNL     1      -3.657   0.249  24.234  0.00  0.00    +0.035 C 
ATOM      8  C   UNL     1      -4.932  -0.222  24.954  0.00  0.00    +0.078 C 
ATOM     10  C   UNL     1      -3.062  -0.941  26.192  0.00  0.00    -0.021 C 
ATOM     11  C   UNL     1      -4.381  -1.098  26.036  0.00  0.00    -0.012 C 
ENDROOT
BRANCH   6   9
ATOM      4  N   UNL     1       0.847  -0.302  23.821  0.00  0.00    -0.236 N 
ATOM      5  N   UNL     1       0.397  -1.534  23.525  0.00  0.00    -0.171 NA
ATOM      9  C   UNL     1      -1.195  -0.298  24.600  0.00  0.00    +0.003 A 
ATOM     12  C   UNL     1      -0.069   0.477  24.465  0.00  0.00    +0.046 A 
ATOM     13  C   UNL     1      -0.849  -1.526  24.003  0.00  0.00    +0.064 A 
ATOM     15  C   UNL     1       0.205   1.866  24.890  0.00  0.00    +0.066 C 
ATOM     16  C   UNL     1      -1.686  -2.730  23.866  0.00  0.00    +0.068 C 
BRANCH   4  17
ATOM      1 BR   UNL     1       5.975  -1.503  23.905  0.00  0.00    -0.050 Br
ATOM     17  C   UNL     1       2.144   0.065  23.465  0.00  0.00    +0.067 A 
ATOM     19  C   UNL     1       3.219  -0.758  23.801  0.00  0.00    +0.043 A 
ATOM     20  C   UNL     1       2.368   1.257  22.776  0.00  0.00    +0.028 A 
ATOM     25  C   UNL     1       4.518  -0.390  23.447  0.00  0.00    +0.020 A 
ATOM     26  C   UNL     1       3.666   1.625  22.421  0.00  0.00    +0.003 A 
ATOM     28  C   UNL     1       4.740   0.802  22.756  0.00  0.00    +0.015 A 
ENDBRANCH   4  17
ENDBRANCH   6   9
BRANCH   8   3
ATOM      3  N   UNL     1      -5.693   0.892  25.507  0.00  0.00    -0.306 NA
ATOM     30  H   UNL     1      -5.263   1.192  26.382  0.00  0.00    +0.123 HD
BRANCH   3  14
ATOM     14  C   UNL     1      -5.717   2.018  24.581  0.00  0.00    +0.116 C 
BRANCH  14  18
ATOM     18  C   UNL     1      -4.536   2.931  24.778  0.00  0.00    -0.033 A 
ATOM     21  C   UNL     1      -4.209   3.384  26.056  0.00  0.00    +0.008 A 
ATOM     22  C   UNL     1      -3.767   3.324  23.683  0.00  0.00    +0.008 A 
ATOM     23  C   UNL     1      -3.115   4.229  26.239  0.00  0.00    +0.046 A 
ATOM     24  C   UNL     1      -2.672   4.169  23.864  0.00  0.00    +0.046 A 
ATOM     27  C   UNL     1      -2.347   4.622  25.143  0.00  0.00    +0.120 A 
BRANCH  27   2
ATOM      2  O   UNL     1      -1.279   5.446  25.321  0.00  0.00    -0.495 OA
ATOM     29  C   UNL     1      -0.201   5.322  24.394  0.00  0.00    +0.277 C 
ENDBRANCH  27   2
ENDBRANCH  14  18
ENDBRANCH   3  14
ENDBRANCH   8   3
TORSDOF 6
ENDMDL
