MODEL 1
REMARK VINA RESULT:      -2.1      0.000      0.000
REMARK  Name = 11866302
REMARK  10 active torsions:
REMARK  status: ('A' for Active; 'I' for Inactive)
REMARK    1  A    between atoms: O_2  and  C_11
REMARK    2  A    between atoms: O_3  and  C_12
REMARK    3  A    between atoms: N_7  and  C_13
REMARK    4  A    between atoms: N_8  and  C_18
REMARK    5  A    between atoms: N_9  and  C_23
REMARK    6  A    between atoms: C_15  and  C_17
REMARK    7  A    between atoms: C_18  and  C_20
REMARK    8  A    between atoms: C_18  and  C_21
REMARK    9  A    between atoms: C_20  and  C_22
REMARK   10  A    between atoms: C_31  and  C_32
REMARK                            x       y       z     vdW  Elec       q    Type
REMARK                         _______ _______ _______ _____ _____    ______ ____
ROOT
ATOM     11  C   UNL     1      -1.947  -2.059  24.365  0.00  0.00    +0.167 C 
ATOM     12  C   UNL     1      -3.236  -2.430  25.108  0.00  0.00    +0.149 C 
ATOM     13  C   UNL     1      -2.174  -0.890  23.389  0.00  0.00    +0.129 C 
ATOM     14  C   UNL     1      -3.844  -1.227  25.850  0.00  0.00    +0.074 C 
ATOM     15  C   UNL     1      -3.736   0.062  25.084  0.00  0.00    +0.015 C 
ATOM     16  C   UNL     1      -2.998   0.224  23.976  0.00  0.00    +0.006 C 
ENDROOT
BRANCH  13   7
ATOM      5  O   UNL     1       0.443  -1.461  24.404  0.00  0.00    -0.252 OA
ATOM      7  N   UNL     1      -0.926  -0.345  22.912  0.00  0.00    -0.290 N 
ATOM      9  N   UNL     1       1.342   0.000  22.802  0.00  0.00    -0.269 N 
ATOM     19  C   UNL     1       0.316  -0.678  23.465  0.00  0.00    +0.304 C 
ATOM     33  H   UNL     1      -0.950   0.352  22.174  0.00  0.00    +0.151 HD
ATOM     37  H   UNL     1       1.064   0.616  22.041  0.00  0.00    +0.156 HD
BRANCH   9  23
ATOM     23  C   UNL     1       2.731  -0.063  23.057  0.00  0.00    +0.035 A 
ATOM     25  C   UNL     1       3.298  -1.239  23.549  0.00  0.00    +0.023 A 
ATOM     26  C   UNL     1       3.536   1.051  22.816  0.00  0.00    +0.023 A 
ATOM     29  C   UNL     1       4.668  -1.302  23.800  0.00  0.00    +0.005 A 
ATOM     30  C   UNL     1       4.907   0.988  23.067  0.00  0.00    +0.005 A 
ATOM     31  C   UNL     1       5.473  -0.189  23.559  0.00  0.00    -0.050 A 
ATOM     32  C   UNL     1       6.938  -0.256  23.827  0.00  0.00    +0.044 C 
ENDBRANCH   9  23
ENDBRANCH  13   7
BRANCH  15  17
ATOM      4  O   UNL     1      -5.720   1.148  25.719  0.00  0.00    -0.271 OA
ATOM      8  N   UNL     1      -3.710   2.328  25.800  0.00  0.00    -0.300 N 
ATOM     17  C   UNL     1      -4.501   1.216  25.563  0.00  0.00    +0.241 C 
ATOM     36  H   UNL     1      -2.714   2.281  25.605  0.00  0.00    +0.150 HD
BRANCH   8  18
ATOM     18  C   UNL     1      -4.239   3.586  26.275  0.00  0.00    +0.164 C 
BRANCH  18  21
ATOM      6  O   UNL     1      -4.787   4.261  24.006  0.00  0.00    -0.274 OA
ATOM     10  N   UNL     1      -6.407   4.434  25.625  0.00  0.00    -0.328 N 
ATOM     21  C   UNL     1      -5.138   4.137  25.177  0.00  0.00    +0.231 C 
ATOM     38  H   UNL     1      -7.111   4.795  24.989  0.00  0.00    +0.145 HD
ATOM     39  H   UNL     1      -6.684   4.324  26.594  0.00  0.00    +0.145 HD
ENDBRANCH  18  21
BRANCH  18  20
ATOM     20  C   UNL     1      -3.132   4.592  26.614  0.00  0.00    +0.074 C 
BRANCH  20  22
ATOM      1  S   UNL     1      -1.006   2.947  25.880  0.00  0.00    -0.102 S 
ATOM     22  C   UNL     1      -1.903   4.402  25.756  0.00  0.00    -0.008 A 
ATOM     24  C   UNL     1      -1.357   5.270  24.836  0.00  0.00    +0.011 A 
ATOM     27  C   UNL     1      -0.188   4.733  24.224  0.00  0.00    +0.008 A 
ATOM     28  C   UNL     1       0.115   3.477  24.699  0.00  0.00    +0.045 A 
ENDBRANCH  20  22
ENDBRANCH  18  20
ENDBRANCH   8  18
ENDBRANCH  15  17
BRANCH  11   2
ATOM      2  O   UNL     1      -0.952  -1.695  25.326  0.00  0.00    -0.387 OA
ATOM     34  H   UNL     1      -1.020  -2.320  26.069  0.00  0.00    +0.210 HD
ENDBRANCH  11   2
BRANCH  12   3
ATOM      3  O   UNL     1      -4.189  -2.975  24.197  0.00  0.00    -0.389 OA
ATOM     35  H   UNL     1      -4.156  -2.444  23.384  0.00  0.00    +0.210 HD
ENDBRANCH  12   3
TORSDOF 9
ENDMDL
