MODEL 1
REMARK VINA RESULT:      -4.1      0.000      0.000
REMARK  Name = 51137113
REMARK  3 active torsions:
REMARK  status: ('A' for Active; 'I' for Inactive)
REMARK    1  A    between atoms: N_3  and  C_11
REMARK    2  A    between atoms: C_6  and  C_10
REMARK    3  A    between atoms: C_11  and  C_12
REMARK                            x       y       z     vdW  Elec       q    Type
REMARK                         _______ _______ _______ _____ _____    ______ ____
ROOT
ATOM      3  N   UNL     1       0.466  -0.578  23.713  0.00  0.00    -0.297 NA
ATOM      6  C   UNL     1      -1.282   0.044  25.148  0.00  0.00    +0.070 C 
ATOM      7  C   UNL     1      -1.496  -1.404  24.673  0.00  0.00    +0.028 C 
ATOM      8  C   UNL     1      -0.237   0.618  24.183  0.00  0.00    +0.096 C 
ATOM      9  C   UNL     1      -0.590  -1.559  23.459  0.00  0.00    +0.085 C 
ENDROOT
BRANCH   6  10
ATOM      4  N   UNL     1      -2.481   2.244  25.308  0.00  0.00    -0.342 N 
ATOM      5  N   UNL     1      -3.778   0.442  25.210  0.00  0.00    -0.232 NA
ATOM     10  C   UNL     1      -2.539   0.880  25.221  0.00  0.00    +0.113 A 
ATOM     13  C   UNL     1      -3.767   2.716  25.358  0.00  0.00    +0.066 A 
ATOM     14  C   UNL     1      -4.558   1.572  25.295  0.00  0.00    +0.089 A 
ATOM     17  C   UNL     1      -4.291   4.006  25.449  0.00  0.00    +0.028 A 
ATOM     18  C   UNL     1      -5.957   1.704  25.325  0.00  0.00    +0.030 A 
ATOM     19  C   UNL     1      -5.685   4.118  25.478  0.00  0.00    +0.002 A 
ATOM     20  C   UNL     1      -6.505   2.990  25.417  0.00  0.00    +0.002 A 
ATOM     24  H   UNL     1      -1.640   2.807  25.333  0.00  0.00    +0.167 HD
ENDBRANCH   6  10
BRANCH   3  11
ATOM     11  C   UNL     1       1.277  -0.319  22.534  0.00  0.00    +0.119 C 
BRANCH  11  12
ATOM      1  F   UNL     1       5.426  -2.189  24.299  0.00  0.00    -0.202 F 
ATOM      2  F   UNL     1       6.744   0.157  23.813  0.00  0.00    -0.202 F 
ATOM     12  C   UNL     1       2.738  -0.191  22.875  0.00  0.00    -0.030 A 
ATOM     15  C   UNL     1       3.419  -1.271  23.440  0.00  0.00    +0.046 A 
ATOM     16  C   UNL     1       3.411   1.005  22.628  0.00  0.00    +0.008 A 
ATOM     21  C   UNL     1       4.772  -1.152  23.757  0.00  0.00    +0.159 A 
ATOM     22  C   UNL     1       4.764   1.123  22.944  0.00  0.00    +0.041 A 
ATOM     23  C   UNL     1       5.445   0.044  23.509  0.00  0.00    +0.158 A 
ENDBRANCH  11  12
ENDBRANCH   3  11
TORSDOF 3
ENDMDL
MODEL 2
REMARK VINA RESULT:      -3.1      2.871      7.308
REMARK  Name = 51137113
REMARK  3 active torsions:
REMARK  status: ('A' for Active; 'I' for Inactive)
REMARK    1  A    between atoms: N_3  and  C_11
REMARK    2  A    between atoms: C_6  and  C_10
REMARK    3  A    between atoms: C_11  and  C_12
REMARK                            x       y       z     vdW  Elec       q    Type
REMARK                         _______ _______ _______ _____ _____    ______ ____
ROOT
ATOM      3  N   UNL     1      -2.965  -0.278  24.512  0.00  0.00    -0.297 NA
ATOM      6  C   UNL     1      -0.922  -0.995  23.612  0.00  0.00    +0.070 C 
ATOM      7  C   UNL     1      -1.256  -1.831  24.859  0.00  0.00    +0.028 C 
ATOM      8  C   UNL     1      -1.855   0.220  23.697  0.00  0.00    +0.096 C 
ATOM      9  C   UNL     1      -2.330  -1.036  25.591  0.00  0.00    +0.085 C 
ENDROOT
BRANCH   6  10
ATOM      4  N   UNL     1       1.532  -1.467  23.853  0.00  0.00    -0.342 N 
ATOM      5  N   UNL     1       1.008   0.521  23.007  0.00  0.00    -0.232 NA
ATOM     10  C   UNL     1       0.534  -0.612  23.476  0.00  0.00    +0.113 A 
ATOM     13  C   UNL     1       2.730  -0.845  23.611  0.00  0.00    +0.066 A 
ATOM     14  C   UNL     1       2.376   0.394  23.084  0.00  0.00    +0.089 A 
ATOM     17  C   UNL     1       4.052  -1.247  23.804  0.00  0.00    +0.028 A 
ATOM     18  C   UNL     1       3.389   1.299  22.721  0.00  0.00    +0.030 A 
ATOM     19  C   UNL     1       5.047  -0.334  23.437  0.00  0.00    +0.002 A 
ATOM     20  C   UNL     1       4.724   0.916  22.905  0.00  0.00    +0.002 A 
ATOM     24  H   UNL     1       1.412  -2.393  24.241  0.00  0.00    +0.167 HD
ENDBRANCH   6  10
BRANCH   3  11
ATOM     11  C   UNL     1      -3.811   0.794  25.012  0.00  0.00    +0.119 C 
BRANCH  11  12
ATOM      1  F   UNL     1       0.162   3.434  26.048  0.00  0.00    -0.202 F 
ATOM      2  F   UNL     1      -1.075   5.717  25.193  0.00  0.00    -0.202 F 
ATOM     12  C   UNL     1      -3.081   2.110  25.060  0.00  0.00    -0.030 A 
ATOM     15  C   UNL     1      -1.772   2.163  25.542  0.00  0.00    +0.046 A 
ATOM     16  C   UNL     1      -3.711   3.275  24.624  0.00  0.00    +0.008 A 
ATOM     21  C   UNL     1      -1.095   3.382  25.587  0.00  0.00    +0.159 A 
ATOM     22  C   UNL     1      -3.035   4.493  24.669  0.00  0.00    +0.041 A 
ATOM     23  C   UNL     1      -1.725   4.547  25.150  0.00  0.00    +0.158 A 
ENDBRANCH  11  12
ENDBRANCH   3  11
TORSDOF 3
ENDMDL
MODEL 3
REMARK VINA RESULT:      -2.4      4.328      7.208
REMARK  Name = 51137113
REMARK  3 active torsions:
REMARK  status: ('A' for Active; 'I' for Inactive)
REMARK    1  A    between atoms: N_3  and  C_11
REMARK    2  A    between atoms: C_6  and  C_10
REMARK    3  A    between atoms: C_11  and  C_12
REMARK                            x       y       z     vdW  Elec       q    Type
REMARK                         _______ _______ _______ _____ _____    ______ ____
ROOT
ATOM      3  N   UNL     1       0.027   3.258  25.221  0.00  0.00    -0.297 NA
ATOM      6  C   UNL     1      -0.092   0.918  25.103  0.00  0.00    +0.070 C 
ATOM      7  C   UNL     1       0.661   1.458  23.875  0.00  0.00    +0.028 C 
ATOM      8  C   UNL     1      -0.799   2.145  25.695  0.00  0.00    +0.096 C 
ATOM      9  C   UNL     1       0.319   2.941  23.822  0.00  0.00    +0.085 C 
ENDROOT
BRANCH   6  10
ATOM      4  N   UNL     1      -2.344   0.000  24.482  0.00  0.00    -0.342 N 
ATOM      5  N   UNL     1      -0.753  -1.508  24.848  0.00  0.00    -0.232 NA
ATOM     10  C   UNL     1      -1.037  -0.225  24.817  0.00  0.00    +0.113 A 
ATOM     13  C   UNL     1      -2.942  -1.217  24.283  0.00  0.00    +0.066 A 
ATOM     14  C   UNL     1      -1.928  -2.143  24.518  0.00  0.00    +0.089 A 
ATOM     17  C   UNL     1      -4.242  -1.579  23.930  0.00  0.00    +0.028 A 
ATOM     18  C   UNL     1      -2.211  -3.514  24.399  0.00  0.00    +0.030 A 
ATOM     19  C   UNL     1      -4.506  -2.947  23.815  0.00  0.00    +0.002 A 
ATOM     20  C   UNL     1      -3.511  -3.900  24.045  0.00  0.00    +0.002 A 
ATOM     24  H   UNL     1      -2.793   0.903  24.394  0.00  0.00    +0.167 HD
ENDBRANCH   6  10
BRANCH   3  11
ATOM     11  C   UNL     1      -0.635   4.545  25.371  0.00  0.00    +0.119 C 
BRANCH  11  12
ATOM      1  F   UNL     1      -4.862   3.433  23.199  0.00  0.00    -0.202 F 
ATOM      2  F   UNL     1      -6.244   4.019  25.484  0.00  0.00    -0.202 F 
ATOM     12  C   UNL     1      -2.134   4.404  25.402  0.00  0.00    -0.030 A 
ATOM     15  C   UNL     1      -2.817   3.975  24.263  0.00  0.00    +0.046 A 
ATOM     16  C   UNL     1      -2.839   4.703  26.567  0.00  0.00    +0.008 A 
ATOM     21  C   UNL     1      -4.206   3.846  24.292  0.00  0.00    +0.159 A 
ATOM     22  C   UNL     1      -4.227   4.574  26.596  0.00  0.00    +0.041 A 
ATOM     23  C   UNL     1      -4.911   4.144  25.457  0.00  0.00    +0.158 A 
ENDBRANCH  11  12
ENDBRANCH   3  11
TORSDOF 3
ENDMDL
MODEL 4
REMARK VINA RESULT:      -2.4      3.367      7.562
REMARK  Name = 51137113
REMARK  3 active torsions:
REMARK  status: ('A' for Active; 'I' for Inactive)
REMARK    1  A    between atoms: N_3  and  C_11
REMARK    2  A    between atoms: C_6  and  C_10
REMARK    3  A    between atoms: C_11  and  C_12
REMARK                            x       y       z     vdW  Elec       q    Type
REMARK                         _______ _______ _______ _____ _____    ______ ____
ROOT
ATOM      3  N   UNL     1      -3.629   2.240  25.267  0.00  0.00    -0.297 NA
ATOM      6  C   UNL     1      -1.346   2.590  24.862  0.00  0.00    +0.070 C 
ATOM      7  C   UNL     1      -2.177   3.529  23.971  0.00  0.00    +0.028 C 
ATOM      8  C   UNL     1      -2.347   1.538  25.357  0.00  0.00    +0.096 C 
ATOM      9  C   UNL     1      -3.584   2.946  23.986  0.00  0.00    +0.085 C 
ENDROOT
BRANCH   6  10
ATOM      4  N   UNL     1      -0.236   0.837  23.449  0.00  0.00    -0.342 N 
ATOM      5  N   UNL     1       1.095   2.440  24.223  0.00  0.00    -0.232 NA
ATOM     10  C   UNL     1      -0.136   1.982  24.190  0.00  0.00    +0.113 A 
ATOM     13  C   UNL     1       1.014   0.537  22.972  0.00  0.00    +0.066 A 
ATOM     14  C   UNL     1       1.827   1.552  23.469  0.00  0.00    +0.089 A 
ATOM     17  C   UNL     1       1.489  -0.504  22.174  0.00  0.00    +0.028 A 
ATOM     18  C   UNL     1       3.198   1.543  23.162  0.00  0.00    +0.030 A 
ATOM     19  C   UNL     1       2.856  -0.497  21.878  0.00  0.00    +0.002 A 
ATOM     20  C   UNL     1       3.697   0.508  22.362  0.00  0.00    +0.002 A 
ATOM     24  H   UNL     1      -1.080   0.305  23.280  0.00  0.00    +0.167 HD
ENDBRANCH   6  10
BRANCH   3  11
ATOM     11  C   UNL     1      -4.766   1.336  25.362  0.00  0.00    +0.119 C 
BRANCH  11  12
ATOM      1  F   UNL     1      -4.601  -2.674  22.585  0.00  0.00    -0.202 F 
ATOM      2  F   UNL     1      -3.255  -4.030  24.541  0.00  0.00    -0.202 F 
ATOM     12  C   UNL     1      -4.362  -0.098  25.143  0.00  0.00    -0.030 A 
ATOM     15  C   UNL     1      -4.675  -0.734  23.941  0.00  0.00    +0.046 A 
ATOM     16  C   UNL     1      -3.676  -0.789  26.140  0.00  0.00    +0.008 A 
ATOM     21  C   UNL     1      -4.301  -2.063  23.739  0.00  0.00    +0.159 A 
ATOM     22  C   UNL     1      -3.301  -2.117  25.938  0.00  0.00    +0.041 A 
ATOM     23  C   UNL     1      -3.614  -2.755  24.736  0.00  0.00    +0.158 A 
ENDBRANCH  11  12
ENDBRANCH   3  11
TORSDOF 3
ENDMDL
MODEL 5
REMARK VINA RESULT:      -2.0      1.283      2.013
REMARK  Name = 51137113
REMARK  3 active torsions:
REMARK  status: ('A' for Active; 'I' for Inactive)
REMARK    1  A    between atoms: N_3  and  C_11
REMARK    2  A    between atoms: C_6  and  C_10
REMARK    3  A    between atoms: C_11  and  C_12
REMARK                            x       y       z     vdW  Elec       q    Type
REMARK                         _______ _______ _______ _____ _____    ______ ____
ROOT
ATOM      3  N   UNL     1       0.650   1.126  23.133  0.00  0.00    -0.297 NA
ATOM      6  C   UNL     1      -1.205   2.504  23.535  0.00  0.00    +0.070 C 
ATOM      7  C   UNL     1      -0.053   2.906  24.472  0.00  0.00    +0.028 C 
ATOM      8  C   UNL     1      -0.809   1.120  23.003  0.00  0.00    +0.096 C 
ATOM      9  C   UNL     1       0.910   1.726  24.442  0.00  0.00    +0.085 C 
ENDROOT
BRANCH   6  10
ATOM      4  N   UNL     1      -3.257   1.361  24.419  0.00  0.00    -0.342 N 
ATOM      5  N   UNL     1      -3.255   3.580  24.547  0.00  0.00    -0.232 NA
ATOM     10  C   UNL     1      -2.576   2.520  24.170  0.00  0.00    +0.113 A 
ATOM     13  C   UNL     1      -4.456   1.695  24.994  0.00  0.00    +0.066 A 
ATOM     14  C   UNL     1      -4.431   3.086  25.063  0.00  0.00    +0.089 A 
ATOM     17  C   UNL     1      -5.528   0.925  25.446  0.00  0.00    +0.028 A 
ATOM     18  C   UNL     1      -5.532   3.764  25.612  0.00  0.00    +0.030 A 
ATOM     19  C   UNL     1      -6.616   1.617  25.989  0.00  0.00    +0.002 A 
ATOM     20  C   UNL     1      -6.620   3.011  26.072  0.00  0.00    +0.002 A 
ATOM     24  H   UNL     1      -2.938   0.423  24.216  0.00  0.00    +0.167 HD
ENDBRANCH   6  10
BRANCH   3  11
ATOM     11  C   UNL     1       1.225  -0.205  23.008  0.00  0.00    +0.119 C 
BRANCH  11  12
ATOM      1  F   UNL     1       5.443  -2.327  24.242  0.00  0.00    -0.202 F 
ATOM      2  F   UNL     1       6.842  -0.117  23.446  0.00  0.00    -0.202 F 
ATOM     12  C   UNL     1       2.726  -0.181  23.125  0.00  0.00    -0.030 A 
ATOM     15  C   UNL     1       3.403  -1.287  23.640  0.00  0.00    +0.046 A 
ATOM     16  C   UNL     1       3.439   0.946  22.719  0.00  0.00    +0.008 A 
ATOM     21  C   UNL     1       4.793  -1.265  23.749  0.00  0.00    +0.159 A 
ATOM     22  C   UNL     1       4.830   0.969  22.827  0.00  0.00    +0.041 A 
ATOM     23  C   UNL     1       5.507  -0.138  23.342  0.00  0.00    +0.158 A 
ENDBRANCH  11  12
ENDBRANCH   3  11
TORSDOF 3
ENDMDL
MODEL 6
REMARK VINA RESULT:      -1.9      3.503      7.725
REMARK  Name = 51137113
REMARK  3 active torsions:
REMARK  status: ('A' for Active; 'I' for Inactive)
REMARK    1  A    between atoms: N_3  and  C_11
REMARK    2  A    between atoms: C_6  and  C_10
REMARK    3  A    between atoms: C_11  and  C_12
REMARK                            x       y       z     vdW  Elec       q    Type
REMARK                         _______ _______ _______ _____ _____    ______ ____
ROOT
ATOM      3  N   UNL     1      -2.477  -0.312  24.376  0.00  0.00    -0.297 NA
ATOM      6  C   UNL     1      -0.487  -0.818  23.242  0.00  0.00    +0.070 C 
ATOM      7  C   UNL     1      -1.022  -2.084  23.934  0.00  0.00    +0.028 C 
ATOM      8  C   UNL     1      -1.253   0.337  23.901  0.00  0.00    +0.096 C 
ATOM      9  C   UNL     1      -2.030  -1.579  24.957  0.00  0.00    +0.085 C 
ENDROOT
BRANCH   6  10
ATOM      4  N   UNL     1       1.615   0.501  22.865  0.00  0.00    -0.342 N 
ATOM      5  N   UNL     1       1.886  -1.512  23.767  0.00  0.00    -0.232 NA
ATOM     10  C   UNL     1       1.012  -0.644  23.307  0.00  0.00    +0.113 A 
ATOM     13  C   UNL     1       2.965   0.364  23.053  0.00  0.00    +0.066 A 
ATOM     14  C   UNL     1       3.109  -0.901  23.617  0.00  0.00    +0.089 A 
ATOM     17  C   UNL     1       4.042   1.211  22.785  0.00  0.00    +0.028 A 
ATOM     18  C   UNL     1       4.396  -1.365  23.939  0.00  0.00    +0.030 A 
ATOM     19  C   UNL     1       5.315   0.733  23.113  0.00  0.00    +0.002 A 
ATOM     20  C   UNL     1       5.492  -0.531  23.679  0.00  0.00    +0.002 A 
ATOM     24  H   UNL     1       1.149   1.308  22.470  0.00  0.00    +0.167 HD
ENDBRANCH   6  10
BRANCH   3  11
ATOM     11  C   UNL     1      -3.206   0.509  25.331  0.00  0.00    +0.119 C 
BRANCH  11  12
ATOM      1  F   UNL     1      -4.040   5.145  24.052  0.00  0.00    -0.202 F 
ATOM      2  F   UNL     1      -1.628   5.913  25.087  0.00  0.00    -0.202 F 
ATOM     12  C   UNL     1      -2.784   1.953  25.266  0.00  0.00    -0.030 A 
ATOM     15  C   UNL     1      -3.624   2.899  24.677  0.00  0.00    +0.046 A 
ATOM     16  C   UNL     1      -1.554   2.345  25.793  0.00  0.00    +0.008 A 
ATOM     21  C   UNL     1      -3.233   4.236  24.616  0.00  0.00    +0.159 A 
ATOM     22  C   UNL     1      -1.163   3.682  25.733  0.00  0.00    +0.041 A 
ATOM     23  C   UNL     1      -2.003   4.629  25.145  0.00  0.00    +0.158 A 
ENDBRANCH  11  12
ENDBRANCH   3  11
TORSDOF 3
ENDMDL
MODEL 7
REMARK VINA RESULT:      -1.8      4.185      9.069
REMARK  Name = 51137113
REMARK  3 active torsions:
REMARK  status: ('A' for Active; 'I' for Inactive)
REMARK    1  A    between atoms: N_3  and  C_11
REMARK    2  A    between atoms: C_6  and  C_10
REMARK    3  A    between atoms: C_11  and  C_12
REMARK                            x       y       z     vdW  Elec       q    Type
REMARK                         _______ _______ _______ _____ _____    ______ ____
ROOT
ATOM      3  N   UNL     1      -1.247   1.375  24.069  0.00  0.00    -0.297 NA
ATOM      6  C   UNL     1       0.628   0.421  23.033  0.00  0.00    +0.070 C 
ATOM      7  C   UNL     1      -0.242  -0.690  23.645  0.00  0.00    +0.028 C 
ATOM      8  C   UNL     1       0.126   1.714  23.689  0.00  0.00    +0.096 C 
ATOM      9  C   UNL     1      -1.162   0.025  24.627  0.00  0.00    +0.085 C 
ENDROOT
BRANCH   6  10
ATOM      4  N   UNL     1       2.641  -1.005  23.499  0.00  0.00    -0.342 N 
ATOM      5  N   UNL     1       3.053   1.135  23.062  0.00  0.00    -0.232 NA
ATOM     10  C   UNL     1       2.118   0.220  23.191  0.00  0.00    +0.113 A 
ATOM     13  C   UNL     1       4.003  -0.872  23.574  0.00  0.00    +0.066 A 
ATOM     14  C   UNL     1       4.235   0.472  23.297  0.00  0.00    +0.089 A 
ATOM     17  C   UNL     1       5.022  -1.784  23.851  0.00  0.00    +0.028 A 
ATOM     18  C   UNL     1       5.556   0.953  23.294  0.00  0.00    +0.030 A 
ATOM     19  C   UNL     1       6.330  -1.289  23.844  0.00  0.00    +0.002 A 
ATOM     20  C   UNL     1       6.595   0.054  23.570  0.00  0.00    +0.002 A 
ATOM     24  H   UNL     1       2.119  -1.859  23.646  0.00  0.00    +0.167 HD
ENDBRANCH   6  10
BRANCH   3  11
ATOM     11  C   UNL     1      -1.815   2.329  25.010  0.00  0.00    +0.119 C 
BRANCH  11  12
ATOM      1  F   UNL     1      -6.180   4.409  25.676  0.00  0.00    -0.202 F 
ATOM      2  F   UNL     1      -7.440   2.038  25.157  0.00  0.00    -0.202 F 
ATOM     12  C   UNL     1      -3.318   2.251  25.049  0.00  0.00    -0.030 A 
ATOM     15  C   UNL     1      -4.068   3.389  25.350  0.00  0.00    +0.046 A 
ATOM     16  C   UNL     1      -3.961   1.042  24.785  0.00  0.00    +0.008 A 
ATOM     21  C   UNL     1      -5.460   3.316  25.387  0.00  0.00    +0.159 A 
ATOM     22  C   UNL     1      -5.353   0.969  24.821  0.00  0.00    +0.041 A 
ATOM     23  C   UNL     1      -6.104   2.108  25.122  0.00  0.00    +0.158 A 
ENDBRANCH  11  12
ENDBRANCH   3  11
TORSDOF 3
ENDMDL
MODEL 8
REMARK VINA RESULT:      -1.7      3.932      8.168
REMARK  Name = 51137113
REMARK  3 active torsions:
REMARK  status: ('A' for Active; 'I' for Inactive)
REMARK    1  A    between atoms: N_3  and  C_11
REMARK    2  A    between atoms: C_6  and  C_10
REMARK    3  A    between atoms: C_11  and  C_12
REMARK                            x       y       z     vdW  Elec       q    Type
REMARK                         _______ _______ _______ _____ _____    ______ ____
ROOT
ATOM      3  N   UNL     1      -2.887  -1.312  24.502  0.00  0.00    -0.297 NA
ATOM      6  C   UNL     1      -0.561  -1.604  24.563  0.00  0.00    +0.070 C 
ATOM      7  C   UNL     1      -1.051  -1.089  25.927  0.00  0.00    +0.028 C 
ATOM      8  C   UNL     1      -1.730  -1.339  23.605  0.00  0.00    +0.096 C 
ATOM      9  C   UNL     1      -2.446  -0.539  25.663  0.00  0.00    +0.085 C 
ENDROOT
BRANCH   6  10
ATOM      4  N   UNL     1       1.933  -1.640  24.280  0.00  0.00    -0.342 N 
ATOM      5  N   UNL     1       0.893   0.144  23.460  0.00  0.00    -0.232 NA
ATOM     10  C   UNL     1       0.740  -1.001  24.086  0.00  0.00    +0.113 A 
ATOM     13  C   UNL     1       2.921  -0.856  23.744  0.00  0.00    +0.066 A 
ATOM     14  C   UNL     1       2.247   0.252  23.239  0.00  0.00    +0.089 A 
ATOM     17  C   UNL     1       4.305  -1.014  23.661  0.00  0.00    +0.028 A 
ATOM     18  C   UNL     1       2.981   1.273  22.609  0.00  0.00    +0.030 A 
ATOM     19  C   UNL     1       5.019   0.011  23.032  0.00  0.00    +0.002 A 
ATOM     20  C   UNL     1       4.372   1.134  22.515  0.00  0.00    +0.002 A 
ATOM     24  H   UNL     1       2.067  -2.533  24.738  0.00  0.00    +0.167 HD
ENDBRANCH   6  10
BRANCH   3  11
ATOM     11  C   UNL     1      -4.067  -0.741  23.871  0.00  0.00    +0.119 C 
BRANCH  11  12
ATOM      1  F   UNL     1      -6.270   2.562  26.709  0.00  0.00    -0.202 F 
ATOM      2  F   UNL     1      -4.928   4.594  25.465  0.00  0.00    -0.202 F 
ATOM     12  C   UNL     1      -4.296   0.685  24.296  0.00  0.00    -0.030 A 
ATOM     15  C   UNL     1      -5.194   0.968  25.326  0.00  0.00    +0.046 A 
ATOM     16  C   UNL     1      -3.613   1.721  23.662  0.00  0.00    +0.008 A 
ATOM     21  C   UNL     1      -5.408   2.289  25.720  0.00  0.00    +0.159 A 
ATOM     22  C   UNL     1      -3.825   3.042  24.056  0.00  0.00    +0.041 A 
ATOM     23  C   UNL     1      -4.723   3.326  25.086  0.00  0.00    +0.158 A 
ENDBRANCH  11  12
ENDBRANCH   3  11
TORSDOF 3
ENDMDL
MODEL 9
REMARK VINA RESULT:      -1.5      4.079      6.525
REMARK  Name = 51137113
REMARK  3 active torsions:
REMARK  status: ('A' for Active; 'I' for Inactive)
REMARK    1  A    between atoms: N_3  and  C_11
REMARK    2  A    between atoms: C_6  and  C_10
REMARK    3  A    between atoms: C_11  and  C_12
REMARK                            x       y       z     vdW  Elec       q    Type
REMARK                         _______ _______ _______ _____ _____    ______ ____
ROOT
ATOM      3  N   UNL     1      -5.400   3.683  25.317  0.00  0.00    -0.297 NA
ATOM      6  C   UNL     1      -5.453   1.448  24.608  0.00  0.00    +0.070 C 
ATOM      7  C   UNL     1      -6.214   1.584  25.938  0.00  0.00    +0.028 C 
ATOM      8  C   UNL     1      -4.637   2.742  24.492  0.00  0.00    +0.096 C 
ATOM      9  C   UNL     1      -5.769   2.923  26.512  0.00  0.00    +0.085 C 
ENDROOT
BRANCH   6  10
ATOM      4  N   UNL     1      -3.252   0.243  24.693  0.00  0.00    -0.342 N 
ATOM      5  N   UNL     1      -5.019  -1.007  24.186  0.00  0.00    -0.232 NA
ATOM     10  C   UNL     1      -4.604   0.204  24.486  0.00  0.00    +0.113 A 
ATOM     13  C   UNL     1      -2.764  -1.025  24.514  0.00  0.00    +0.066 A 
ATOM     14  C   UNL     1      -3.886  -1.787  24.198  0.00  0.00    +0.089 A 
ATOM     17  C   UNL     1      -1.477  -1.557  24.599  0.00  0.00    +0.028 A 
ATOM     18  C   UNL     1      -3.733  -3.161  23.948  0.00  0.00    +0.030 A 
ATOM     19  C   UNL     1      -1.343  -2.926  24.347  0.00  0.00    +0.002 A 
ATOM     20  C   UNL     1      -2.449  -3.716  24.027  0.00  0.00    +0.002 A 
ATOM     24  H   UNL     1      -2.707   1.060  24.935  0.00  0.00    +0.167 HD
ENDBRANCH   6  10
BRANCH   3  11
ATOM     11  C   UNL     1      -4.642   4.883  25.635  0.00  0.00    +0.119 C 
BRANCH  11  12
ATOM      1  F   UNL     1      -0.690   2.154  26.503  0.00  0.00    -0.202 F 
ATOM      2  F   UNL     1       0.914   4.010  25.295  0.00  0.00    -0.202 F 
ATOM     12  C   UNL     1      -3.157   4.650  25.544  0.00  0.00    -0.030 A 
ATOM     15  C   UNL     1      -2.600   3.487  26.076  0.00  0.00    +0.046 A 
ATOM     16  C   UNL     1      -2.339   5.597  24.928  0.00  0.00    +0.008 A 
ATOM     21  C   UNL     1      -1.225   3.271  25.993  0.00  0.00    +0.159 A 
ATOM     22  C   UNL     1      -0.964   5.381  24.844  0.00  0.00    +0.041 A 
ATOM     23  C   UNL     1      -0.406   4.217  25.376  0.00  0.00    +0.158 A 
ENDBRANCH  11  12
ENDBRANCH   3  11
TORSDOF 3
ENDMDL
MODEL 10
REMARK VINA RESULT:      -0.9      3.572      7.967
REMARK  Name = 51137113
REMARK  3 active torsions:
REMARK  status: ('A' for Active; 'I' for Inactive)
REMARK    1  A    between atoms: N_3  and  C_11
REMARK    2  A    between atoms: C_6  and  C_10
REMARK    3  A    between atoms: C_11  and  C_12
REMARK                            x       y       z     vdW  Elec       q    Type
REMARK                         _______ _______ _______ _____ _____    ______ ____
ROOT
ATOM      3  N   UNL     1      -2.525   4.345  26.092  0.00  0.00    -0.297 NA
ATOM      6  C   UNL     1      -0.472   3.364  25.523  0.00  0.00    +0.070 C 
ATOM      7  C   UNL     1      -0.527   4.799  24.972  0.00  0.00    +0.028 C 
ATOM      8  C   UNL     1      -1.928   3.026  25.872  0.00  0.00    +0.096 C 
ATOM      9  C   UNL     1      -2.001   5.181  25.012  0.00  0.00    +0.085 C 
ENDROOT
BRANCH   6  10
ATOM      4  N   UNL     1       1.499   2.385  24.316  0.00  0.00    -0.342 N 
ATOM      5  N   UNL     1      -0.446   1.366  23.975  0.00  0.00    -0.232 NA
ATOM     10  C   UNL     1       0.161   2.352  24.597  0.00  0.00    +0.113 A 
ATOM     13  C   UNL     1       1.773   1.352  23.457  0.00  0.00    +0.066 A 
ATOM     14  C   UNL     1       0.543   0.732  23.259  0.00  0.00    +0.089 A 
ATOM     17  C   UNL     1       2.955   0.921  22.854  0.00  0.00    +0.028 A 
ATOM     18  C   UNL     1       0.468  -0.387  22.412  0.00  0.00    +0.030 A 
ATOM     19  C   UNL     1       2.863  -0.194  22.014  0.00  0.00    +0.002 A 
ATOM     20  C   UNL     1       1.643  -0.838  21.795  0.00  0.00    +0.002 A 
ATOM     24  H   UNL     1       2.171   3.051  24.677  0.00  0.00    +0.167 HD
ENDBRANCH   6  10
BRANCH   3  11
ATOM     11  C   UNL     1      -3.979   4.302  26.105  0.00  0.00    +0.119 C 
BRANCH  11  12
ATOM      1  F   UNL     1      -3.574   0.359  23.256  0.00  0.00    -0.202 F 
ATOM      2  F   UNL     1      -5.948  -0.620  24.194  0.00  0.00    -0.202 F 
ATOM     12  C   UNL     1      -4.505   2.986  25.595  0.00  0.00    -0.030 A 
ATOM     15  C   UNL     1      -3.781   2.268  24.642  0.00  0.00    +0.046 A 
ATOM     16  C   UNL     1      -5.716   2.487  26.073  0.00  0.00    +0.008 A 
ATOM     21  C   UNL     1      -4.269   1.050  24.169  0.00  0.00    +0.159 A 
ATOM     22  C   UNL     1      -6.204   1.269  25.601  0.00  0.00    +0.041 A 
ATOM     23  C   UNL     1      -5.480   0.549  24.648  0.00  0.00    +0.158 A 
ENDBRANCH  11  12
ENDBRANCH   3  11
TORSDOF 3
ENDMDL
