MODEL 1
REMARK VINA RESULT:       5.2      0.000      0.000
REMARK  Name = 26762930
REMARK  8 active torsions:
REMARK  status: ('A' for Active; 'I' for Inactive)
REMARK    1  A    between atoms: N_6  and  C_11
REMARK    2  A    between atoms: N_8  and  C_30
REMARK    3  A    between atoms: N_8  and  C_31
REMARK    4  A    between atoms: N_8  and  C_32
REMARK    5  A    between atoms: C_10  and  C_15
REMARK    6  A    between atoms: C_15  and  C_17
REMARK    7  A    between atoms: C_17  and  C_18
REMARK    8  A    between atoms: C_19  and  C_25
REMARK                            x       y       z     vdW  Elec       q    Type
REMARK                         _______ _______ _______ _____ _____    ______ ____
ROOT
ATOM      1  O   UNL     1      -3.931   3.928  22.160  0.00  0.00    -0.274 OA
ATOM      4  N   UNL     1      -3.562   2.540  25.280  0.00  0.00    -0.285 NA
ATOM      5  N   UNL     1      -5.409   2.580  23.315  0.00  0.00    -0.313 N 
ATOM      9  C   UNL     1      -3.758   3.806  24.575  0.00  0.00    +0.145 C 
ATOM     10  C   UNL     1      -4.813   1.864  25.631  0.00  0.00    +0.075 C 
ATOM     11  C   UNL     1      -1.631   3.749  25.741  0.00  0.00    +0.089 C 
ATOM     12  C   UNL     1      -2.361   4.415  24.565  0.00  0.00    +0.052 C 
ATOM     13  C   UNL     1      -2.676   2.846  26.399  0.00  0.00    +0.107 C 
ATOM     14  C   UNL     1      -5.930   2.178  24.610  0.00  0.00    +0.123 C 
ATOM     16  C   UNL     1      -4.338   3.457  23.217  0.00  0.00    +0.230 C 
ATOM     33  H   UNL     1      -5.898   2.298  22.471  0.00  0.00    +0.149 HD
ENDROOT
BRANCH  11   6
ATOM      3  O   UNL     1      -1.376   2.341  23.250  0.00  0.00    -0.270 OA
ATOM      6  N   UNL     1      -0.485   2.995  25.289  0.00  0.00    -0.307 N 
ATOM     19  C   UNL     1      -0.456   2.345  24.063  0.00  0.00    +0.244 C 
ATOM     34  H   UNL     1       0.268   2.864  25.956  0.00  0.00    +0.149 HD
BRANCH  19  25
ATOM     25  C   UNL     1       0.787   1.590  23.758  0.00  0.00    +0.037 A 
ATOM     26  C   UNL     1       0.725   0.218  23.512  0.00  0.00    +0.015 A 
ATOM     27  C   UNL     1       2.013   2.251  23.717  0.00  0.00    +0.015 A 
ATOM     28  C   UNL     1       1.891  -0.491  23.226  0.00  0.00    +0.024 A 
ATOM     29  C   UNL     1       3.179   1.542  23.431  0.00  0.00    +0.024 A 
ATOM     30  C   UNL     1       3.119   0.170  23.186  0.00  0.00    +0.029 A 
BRANCH  30   8
ATOM      8  N   UNL     1       4.298  -0.547  22.897  0.00  0.00    -0.336 N 
ATOM     31  C   UNL     1       5.248  -0.039  21.929  0.00  0.00    +0.129 C 
ATOM     32  C   UNL     1       4.578  -1.800  23.572  0.00  0.00    +0.129 C 
ENDBRANCH  30   8
ENDBRANCH  19  25
ENDBRANCH  11   6
BRANCH  10  15
ATOM     15  C   UNL     1      -4.555   0.356  25.685  0.00  0.00    +0.029 C 
BRANCH  15  17
ATOM     17  C   UNL     1      -5.056  -0.363  24.442  0.00  0.00    +0.097 C 
BRANCH  17  18
ATOM      2  O   UNL     1      -4.754  -2.595  23.704  0.00  0.00    -0.276 OA
ATOM      7  N   UNL     1      -2.843  -1.460  24.381  0.00  0.00    -0.301 N 
ATOM     18  C   UNL     1      -4.212  -1.576  24.140  0.00  0.00    +0.216 C 
ATOM     20  C   UNL     1      -1.957  -2.594  24.114  0.00  0.00    +0.108 C 
ATOM     21  C   UNL     1      -2.164  -0.247  24.857  0.00  0.00    +0.108 C 
ATOM     22  C   UNL     1      -1.123  -2.937  25.346  0.00  0.00    +0.019 C 
ATOM     23  C   UNL     1      -1.333  -0.546  26.103  0.00  0.00    +0.019 C 
ATOM     24  C   UNL     1      -0.374  -1.711  25.865  0.00  0.00    +0.003 C 
ENDBRANCH  17  18
ENDBRANCH  15  17
ENDBRANCH  10  15
TORSDOF 6
ENDMDL
MODEL 2
REMARK VINA RESULT:       6.3      1.092      1.812
REMARK  Name = 26762930
REMARK  8 active torsions:
REMARK  status: ('A' for Active; 'I' for Inactive)
REMARK    1  A    between atoms: N_6  and  C_11
REMARK    2  A    between atoms: N_8  and  C_30
REMARK    3  A    between atoms: N_8  and  C_31
REMARK    4  A    between atoms: N_8  and  C_32
REMARK    5  A    between atoms: C_10  and  C_15
REMARK    6  A    between atoms: C_15  and  C_17
REMARK    7  A    between atoms: C_17  and  C_18
REMARK    8  A    between atoms: C_19  and  C_25
REMARK                            x       y       z     vdW  Elec       q    Type
REMARK                         _______ _______ _______ _____ _____    ______ ____
ROOT
ATOM      1  O   UNL     1      -4.336   3.684  22.128  0.00  0.00    -0.274 OA
ATOM      4  N   UNL     1      -3.639   3.142  25.448  0.00  0.00    -0.285 NA
ATOM      5  N   UNL     1      -5.679   2.711  23.738  0.00  0.00    -0.313 N 
ATOM      9  C   UNL     1      -3.914   4.186  24.463  0.00  0.00    +0.145 C 
ATOM     10  C   UNL     1      -4.842   2.606  26.087  0.00  0.00    +0.075 C 
ATOM     11  C   UNL     1      -1.678   4.389  25.381  0.00  0.00    +0.089 C 
ATOM     12  C   UNL     1      -2.529   4.743  24.153  0.00  0.00    +0.052 C 
ATOM     13  C   UNL     1      -2.643   3.707  26.353  0.00  0.00    +0.107 C 
ATOM     14  C   UNL     1      -6.061   2.668  25.138  0.00  0.00    +0.123 C 
ATOM     16  C   UNL     1      -4.629   3.510  23.307  0.00  0.00    +0.230 C 
ATOM     33  H   UNL     1      -6.250   2.231  23.049  0.00  0.00    +0.149 HD
ENDROOT
BRANCH  11   6
ATOM      3  O   UNL     1      -1.625   2.477  23.237  0.00  0.00    -0.270 OA
ATOM      6  N   UNL     1      -0.580   3.520  25.026  0.00  0.00    -0.307 N 
ATOM     19  C   UNL     1      -0.649   2.625  23.968  0.00  0.00    +0.244 C 
ATOM     34  H   UNL     1       0.217   3.509  25.656  0.00  0.00    +0.149 HD
BRANCH  19  25
ATOM     25  C   UNL     1       0.556   1.782  23.750  0.00  0.00    +0.037 A 
ATOM     26  C   UNL     1       1.809   2.381  23.616  0.00  0.00    +0.015 A 
ATOM     27  C   UNL     1       0.434   0.396  23.678  0.00  0.00    +0.015 A 
ATOM     28  C   UNL     1       2.939   1.591  23.411  0.00  0.00    +0.024 A 
ATOM     29  C   UNL     1       1.565  -0.394  23.473  0.00  0.00    +0.024 A 
ATOM     30  C   UNL     1       2.817   0.203  23.339  0.00  0.00    +0.029 A 
BRANCH  30   8
ATOM      8  N   UNL     1       3.961  -0.596  23.131  0.00  0.00    -0.336 N 
ATOM     31  C   UNL     1       5.040  -0.128  22.285  0.00  0.00    +0.129 C 
ATOM     32  C   UNL     1       4.075  -1.893  23.768  0.00  0.00    +0.129 C 
ENDBRANCH  30   8
ENDBRANCH  19  25
ENDBRANCH  11   6
BRANCH  10  15
ATOM     15  C   UNL     1      -4.571   1.157  26.504  0.00  0.00    +0.029 C 
BRANCH  15  17
ATOM     17  C   UNL     1      -4.290   0.254  25.313  0.00  0.00    +0.097 C 
BRANCH  17  18
ATOM      2  O   UNL     1      -1.959   0.411  25.713  0.00  0.00    -0.276 OA
ATOM      7  N   UNL     1      -2.762  -1.672  25.067  0.00  0.00    -0.301 N 
ATOM     18  C   UNL     1      -2.897  -0.320  25.385  0.00  0.00    +0.216 C 
ATOM     20  C   UNL     1      -1.442  -2.302  25.113  0.00  0.00    +0.108 C 
ATOM     21  C   UNL     1      -3.864  -2.577  24.718  0.00  0.00    +0.108 C 
ATOM     22  C   UNL     1      -1.121  -2.994  23.790  0.00  0.00    +0.019 C 
ATOM     23  C   UNL     1      -3.590  -3.276  23.388  0.00  0.00    +0.019 C 
ATOM     24  C   UNL     1      -2.229  -3.969  23.394  0.00  0.00    +0.003 C 
ENDBRANCH  17  18
ENDBRANCH  15  17
ENDBRANCH  10  15
TORSDOF 6
ENDMDL
MODEL 3
REMARK VINA RESULT:       6.5      1.721      4.610
REMARK  Name = 26762930
REMARK  8 active torsions:
REMARK  status: ('A' for Active; 'I' for Inactive)
REMARK    1  A    between atoms: N_6  and  C_11
REMARK    2  A    between atoms: N_8  and  C_30
REMARK    3  A    between atoms: N_8  and  C_31
REMARK    4  A    between atoms: N_8  and  C_32
REMARK    5  A    between atoms: C_10  and  C_15
REMARK    6  A    between atoms: C_15  and  C_17
REMARK    7  A    between atoms: C_17  and  C_18
REMARK    8  A    between atoms: C_19  and  C_25
REMARK                            x       y       z     vdW  Elec       q    Type
REMARK                         _______ _______ _______ _____ _____    ______ ____
ROOT
ATOM      1  O   UNL     1      -3.046  -1.440  27.593  0.00  0.00    -0.274 OA
ATOM      4  N   UNL     1      -3.235  -0.704  24.244  0.00  0.00    -0.285 NA
ATOM      5  N   UNL     1      -4.400   0.106  26.537  0.00  0.00    -0.313 N 
ATOM      9  C   UNL     1      -3.536  -1.733  25.237  0.00  0.00    +0.145 C 
ATOM     10  C   UNL     1      -4.321   0.259  24.047  0.00  0.00    +0.075 C 
ATOM     11  C   UNL     1      -1.882  -2.493  23.634  0.00  0.00    +0.089 C 
ATOM     12  C   UNL     1      -2.394  -2.726  25.062  0.00  0.00    +0.052 C 
ATOM     13  C   UNL     1      -2.806  -1.423  23.048  0.00  0.00    +0.107 C 
ATOM     14  C   UNL     1      -5.146   0.451  25.340  0.00  0.00    +0.123 C 
ATOM     16  C   UNL     1      -3.602  -1.029  26.580  0.00  0.00    +0.230 C 
ATOM     33  H   UNL     1      -4.543   0.643  27.387  0.00  0.00    +0.149 HD
ENDROOT
BRANCH  11   6
ATOM      3  O   UNL     1      -0.911   0.154  23.081  0.00  0.00    -0.270 OA
ATOM      6  N   UNL     1      -0.503  -2.062  23.633  0.00  0.00    -0.307 N 
ATOM     19  C   UNL     1      -0.130  -0.755  23.352  0.00  0.00    +0.244 C 
ATOM     34  H   UNL     1       0.202  -2.785  23.739  0.00  0.00    +0.149 HD
BRANCH  19  25
ATOM     25  C   UNL     1       1.329  -0.479  23.365  0.00  0.00    +0.037 A 
ATOM     26  C   UNL     1       1.802   0.791  23.033  0.00  0.00    +0.015 A 
ATOM     27  C   UNL     1       2.227  -1.489  23.709  0.00  0.00    +0.015 A 
ATOM     28  C   UNL     1       3.171   1.050  23.045  0.00  0.00    +0.024 A 
ATOM     29  C   UNL     1       3.598  -1.230  23.721  0.00  0.00    +0.024 A 
ATOM     30  C   UNL     1       4.070   0.039  23.388  0.00  0.00    +0.029 A 
BRANCH  30   8
ATOM      8  N   UNL     1       5.456   0.302  23.400  0.00  0.00    -0.336 N 
ATOM     31  C   UNL     1       6.353  -0.455  22.551  0.00  0.00    +0.129 C 
ATOM     32  C   UNL     1       5.999   1.338  24.256  0.00  0.00    +0.129 C 
ENDBRANCH  30   8
ENDBRANCH  19  25
ENDBRANCH  11   6
BRANCH  10  15
ATOM     15  C   UNL     1      -3.717   1.594  23.603  0.00  0.00    +0.029 C 
BRANCH  15  17
ATOM     17  C   UNL     1      -4.516   2.788  24.104  0.00  0.00    +0.097 C 
BRANCH  17  18
ATOM      2  O   UNL     1      -3.955   5.031  23.586  0.00  0.00    -0.276 OA
ATOM      7  N   UNL     1      -2.523   3.914  25.035  0.00  0.00    -0.301 N 
ATOM     18  C   UNL     1      -3.646   4.015  24.213  0.00  0.00    +0.216 C 
ATOM     20  C   UNL     1      -1.629   5.062  25.192  0.00  0.00    +0.108 C 
ATOM     21  C   UNL     1      -2.154   2.734  25.828  0.00  0.00    +0.108 C 
ATOM     22  C   UNL     1      -0.186   4.677  24.876  0.00  0.00    +0.019 C 
ATOM     23  C   UNL     1      -0.720   2.304  25.525  0.00  0.00    +0.019 C 
ATOM     24  C   UNL     1       0.256   3.466  25.696  0.00  0.00    +0.003 C 
ENDBRANCH  17  18
ENDBRANCH  15  17
ENDBRANCH  10  15
TORSDOF 6
ENDMDL
MODEL 4
REMARK VINA RESULT:       8.1      2.447      4.067
REMARK  Name = 26762930
REMARK  8 active torsions:
REMARK  status: ('A' for Active; 'I' for Inactive)
REMARK    1  A    between atoms: N_6  and  C_11
REMARK    2  A    between atoms: N_8  and  C_30
REMARK    3  A    between atoms: N_8  and  C_31
REMARK    4  A    between atoms: N_8  and  C_32
REMARK    5  A    between atoms: C_10  and  C_15
REMARK    6  A    between atoms: C_15  and  C_17
REMARK    7  A    between atoms: C_17  and  C_18
REMARK    8  A    between atoms: C_19  and  C_25
REMARK                            x       y       z     vdW  Elec       q    Type
REMARK                         _______ _______ _______ _____ _____    ______ ____
ROOT
ATOM      1  O   UNL     1      -4.372  -0.551  24.641  0.00  0.00    -0.274 OA
ATOM      4  N   UNL     1      -3.097   2.626  24.365  0.00  0.00    -0.285 NA
ATOM      5  N   UNL     1      -4.730   1.265  26.024  0.00  0.00    -0.313 N 
ATOM      9  C   UNL     1      -4.028   1.679  23.754  0.00  0.00    +0.145 C 
ATOM     10  C   UNL     1      -3.704   3.456  25.408  0.00  0.00    +0.075 C 
ATOM     11  C   UNL     1      -2.201   2.232  22.256  0.00  0.00    +0.089 C 
ATOM     12  C   UNL     1      -3.244   1.147  22.560  0.00  0.00    +0.052 C 
ATOM     13  C   UNL     1      -2.491   3.355  23.254  0.00  0.00    +0.107 C 
ATOM     14  C   UNL     1      -4.850   2.708  26.127  0.00  0.00    +0.123 C 
ATOM     16  C   UNL     1      -4.372   0.662  24.826  0.00  0.00    +0.230 C 
ATOM     33  H   UNL     1      -5.011   0.683  26.807  0.00  0.00    +0.149 HD
ENDROOT
BRANCH  11   6
ATOM      3  O   UNL     1      -1.332   0.174  24.063  0.00  0.00    -0.270 OA
ATOM      6  N   UNL     1      -0.857   1.724  22.404  0.00  0.00    -0.307 N 
ATOM     19  C   UNL     1      -0.533   0.723  23.309  0.00  0.00    +0.244 C 
ATOM     34  H   UNL     1      -0.126   2.208  21.892  0.00  0.00    +0.149 HD
BRANCH  19  25
ATOM     25  C   UNL     1       0.899   0.331  23.359  0.00  0.00    +0.037 A 
ATOM     26  C   UNL     1       1.252  -0.982  23.675  0.00  0.00    +0.015 A 
ATOM     27  C   UNL     1       1.891   1.274  23.091  0.00  0.00    +0.015 A 
ATOM     28  C   UNL     1       2.596  -1.350  23.722  0.00  0.00    +0.024 A 
ATOM     29  C   UNL     1       3.235   0.905  23.138  0.00  0.00    +0.024 A 
ATOM     30  C   UNL     1       3.588  -0.406  23.454  0.00  0.00    +0.029 A 
BRANCH  30   8
ATOM      8  N   UNL     1       4.947  -0.779  23.502  0.00  0.00    -0.336 N 
ATOM     31  C   UNL     1       5.984   0.181  23.180  0.00  0.00    +0.129 C 
ATOM     32  C   UNL     1       5.325  -2.126  23.882  0.00  0.00    +0.129 C 
ENDBRANCH  30   8
ENDBRANCH  19  25
ENDBRANCH  11   6
BRANCH  10  15
ATOM     15  C   UNL     1      -2.617   3.849  26.414  0.00  0.00    +0.029 C 
BRANCH  15  17
ATOM     17  C   UNL     1      -1.779   2.660  26.856  0.00  0.00    +0.097 C 
BRANCH  17  18
ATOM      2  O   UNL     1       0.119   2.968  25.470  0.00  0.00    -0.276 OA
ATOM      7  N   UNL     1       0.481   3.082  27.763  0.00  0.00    -0.301 N 
ATOM     18  C   UNL     1      -0.311   2.917  26.626  0.00  0.00    +0.216 C 
ATOM     20  C   UNL     1       1.916   3.333  27.622  0.00  0.00    +0.108 C 
ATOM     21  C   UNL     1      -0.008   3.071  29.147  0.00  0.00    +0.108 C 
ATOM     22  C   UNL     1       2.729   2.327  28.432  0.00  0.00    +0.019 C 
ATOM     23  C   UNL     1       0.768   2.061  29.988  0.00  0.00    +0.019 C 
ATOM     24  C   UNL     1       2.274   2.297  29.890  0.00  0.00    +0.003 C 
ENDBRANCH  17  18
ENDBRANCH  15  17
ENDBRANCH  10  15
TORSDOF 6
ENDMDL
MODEL 5
REMARK VINA RESULT:       8.1      1.871      4.105
REMARK  Name = 26762930
REMARK  8 active torsions:
REMARK  status: ('A' for Active; 'I' for Inactive)
REMARK    1  A    between atoms: N_6  and  C_11
REMARK    2  A    between atoms: N_8  and  C_30
REMARK    3  A    between atoms: N_8  and  C_31
REMARK    4  A    between atoms: N_8  and  C_32
REMARK    5  A    between atoms: C_10  and  C_15
REMARK    6  A    between atoms: C_15  and  C_17
REMARK    7  A    between atoms: C_17  and  C_18
REMARK    8  A    between atoms: C_19  and  C_25
REMARK                            x       y       z     vdW  Elec       q    Type
REMARK                         _______ _______ _______ _____ _____    ______ ____
ROOT
ATOM      1  O   UNL     1      -4.782  -1.224  25.107  0.00  0.00    -0.274 OA
ATOM      4  N   UNL     1      -3.875   2.031  24.493  0.00  0.00    -0.285 NA
ATOM      5  N   UNL     1      -5.329   0.671  26.311  0.00  0.00    -0.313 N 
ATOM      9  C   UNL     1      -4.699   0.930  23.998  0.00  0.00    +0.145 C 
ATOM     10  C   UNL     1      -4.561   2.889  25.462  0.00  0.00    +0.075 C 
ATOM     11  C   UNL     1      -2.960   1.529  22.416  0.00  0.00    +0.089 C 
ATOM     12  C   UNL     1      -3.872   0.371  22.846  0.00  0.00    +0.052 C 
ATOM     13  C   UNL     1      -3.365   2.707  23.304  0.00  0.00    +0.107 C 
ATOM     14  C   UNL     1      -5.609   2.095  26.275  0.00  0.00    +0.123 C 
ATOM     16  C   UNL     1      -4.917  -0.006  25.172  0.00  0.00    +0.230 C 
ATOM     33  H   UNL     1      -5.536   0.142  27.154  0.00  0.00    +0.149 HD
ENDROOT
BRANCH  11   6
ATOM      3  O   UNL     1      -1.903  -0.969  23.364  0.00  0.00    -0.270 OA
ATOM      6  N   UNL     1      -1.566   1.190  22.585  0.00  0.00    -0.307 N 
ATOM     19  C   UNL     1      -1.151  -0.049  23.053  0.00  0.00    +0.244 C 
ATOM     34  H   UNL     1      -0.894   1.939  22.452  0.00  0.00    +0.149 HD
BRANCH  19  25
ATOM     25  C   UNL     1       0.317  -0.231  23.196  0.00  0.00    +0.037 A 
ATOM     26  C   UNL     1       0.821  -1.064  24.195  0.00  0.00    +0.015 A 
ATOM     27  C   UNL     1       1.189   0.432  22.334  0.00  0.00    +0.015 A 
ATOM     28  C   UNL     1       2.198  -1.234  24.331  0.00  0.00    +0.024 A 
ATOM     29  C   UNL     1       2.567   0.261  22.470  0.00  0.00    +0.024 A 
ATOM     30  C   UNL     1       3.071  -0.571  23.468  0.00  0.00    +0.029 A 
BRANCH  30   8
ATOM      8  N   UNL     1       4.465  -0.743  23.606  0.00  0.00    -0.336 N 
ATOM     31  C   UNL     1       5.364   0.379  23.431  0.00  0.00    +0.129 C 
ATOM     32  C   UNL     1       5.014  -2.045  23.932  0.00  0.00    +0.129 C 
ENDBRANCH  30   8
ENDBRANCH  19  25
ENDBRANCH  11   6
BRANCH  10  15
ATOM     15  C   UNL     1      -3.516   3.499  26.401  0.00  0.00    +0.029 C 
BRANCH  15  17
ATOM     17  C   UNL     1      -3.301   4.982  26.144  0.00  0.00    +0.097 C 
BRANCH  17  18
ATOM      2  O   UNL     1      -2.252   6.055  24.310  0.00  0.00    -0.276 OA
ATOM      7  N   UNL     1      -1.012   4.420  25.401  0.00  0.00    -0.301 N 
ATOM     18  C   UNL     1      -2.147   5.207  25.200  0.00  0.00    +0.216 C 
ATOM     20  C   UNL     1       0.149   4.578  24.524  0.00  0.00    +0.108 C 
ATOM     21  C   UNL     1      -0.842   3.436  26.477  0.00  0.00    +0.108 C 
ATOM     22  C   UNL     1       0.561   3.239  23.917  0.00  0.00    +0.019 C 
ATOM     23  C   UNL     1      -0.447   2.074  25.908  0.00  0.00    +0.019 C 
ATOM     24  C   UNL     1       0.777   2.185  25.001  0.00  0.00    +0.003 C 
ENDBRANCH  17  18
ENDBRANCH  15  17
ENDBRANCH  10  15
TORSDOF 6
ENDMDL
MODEL 6
REMARK VINA RESULT:       8.5      1.611      3.849
REMARK  Name = 26762930
REMARK  8 active torsions:
REMARK  status: ('A' for Active; 'I' for Inactive)
REMARK    1  A    between atoms: N_6  and  C_11
REMARK    2  A    between atoms: N_8  and  C_30
REMARK    3  A    between atoms: N_8  and  C_31
REMARK    4  A    between atoms: N_8  and  C_32
REMARK    5  A    between atoms: C_10  and  C_15
REMARK    6  A    between atoms: C_15  and  C_17
REMARK    7  A    between atoms: C_17  and  C_18
REMARK    8  A    between atoms: C_19  and  C_25
REMARK                            x       y       z     vdW  Elec       q    Type
REMARK                         _______ _______ _______ _____ _____    ______ ____
ROOT
ATOM      1  O   UNL     1      -4.198   2.848  27.599  0.00  0.00    -0.274 OA
ATOM      4  N   UNL     1      -4.738   1.385  24.539  0.00  0.00    -0.285 NA
ATOM      5  N   UNL     1      -5.511   3.608  25.856  0.00  0.00    -0.313 N 
ATOM      9  C   UNL     1      -5.014   1.250  25.968  0.00  0.00    +0.145 C 
ATOM     10  C   UNL     1      -5.736   2.181  23.821  0.00  0.00    +0.075 C 
ATOM     11  C   UNL     1      -3.664  -0.588  25.139  0.00  0.00    +0.089 C 
ATOM     12  C   UNL     1      -4.010   0.193  26.415  0.00  0.00    +0.052 C 
ATOM     13  C   UNL     1      -4.542   0.025  24.046  0.00  0.00    +0.107 C 
ATOM     14  C   UNL     1      -6.365   3.256  24.736  0.00  0.00    +0.123 C 
ATOM     16  C   UNL     1      -4.834   2.630  26.573  0.00  0.00    +0.230 C 
ATOM     33  H   UNL     1      -5.488   4.568  26.185  0.00  0.00    +0.149 HD
ENDROOT
BRANCH  11   6
ATOM      3  O   UNL     1      -2.033  -2.575  23.858  0.00  0.00    -0.270 OA
ATOM      6  N   UNL     1      -2.261  -0.476  24.819  0.00  0.00    -0.307 N 
ATOM     19  C   UNL     1      -1.554  -1.496  24.196  0.00  0.00    +0.244 C 
ATOM     34  H   UNL     1      -1.775   0.344  25.169  0.00  0.00    +0.149 HD
BRANCH  19  25
ATOM     25  C   UNL     1      -0.110  -1.235  23.960  0.00  0.00    +0.037 A 
ATOM     26  C   UNL     1       0.283  -0.352  22.955  0.00  0.00    +0.015 A 
ATOM     27  C   UNL     1       0.850  -1.874  24.743  0.00  0.00    +0.015 A 
ATOM     28  C   UNL     1       1.638  -0.109  22.733  0.00  0.00    +0.024 A 
ATOM     29  C   UNL     1       2.206  -1.630  24.521  0.00  0.00    +0.024 A 
ATOM     30  C   UNL     1       2.600  -0.748  23.516  0.00  0.00    +0.029 A 
BRANCH  30   8
ATOM      8  N   UNL     1       3.970  -0.501  23.291  0.00  0.00    -0.336 N 
ATOM     31  C   UNL     1       4.978  -1.331  23.918  0.00  0.00    +0.129 C 
ATOM     32  C   UNL     1       4.387   0.583  22.423  0.00  0.00    +0.129 C 
ENDBRANCH  30   8
ENDBRANCH  19  25
ENDBRANCH  11   6
BRANCH  10  15
ATOM     15  C   UNL     1      -5.060   2.841  22.616  0.00  0.00    +0.029 C 
BRANCH  15  17
ATOM     17  C   UNL     1      -3.879   3.711  23.018  0.00  0.00    +0.097 C 
BRANCH  17  18
ATOM      2  O   UNL     1      -2.435   2.067  22.108  0.00  0.00    -0.276 OA
ATOM      7  N   UNL     1      -1.642   3.237  23.952  0.00  0.00    -0.301 N 
ATOM     18  C   UNL     1      -2.591   2.928  22.978  0.00  0.00    +0.216 C 
ATOM     20  C   UNL     1      -0.366   2.519  23.981  0.00  0.00    +0.108 C 
ATOM     21  C   UNL     1      -1.781   4.285  24.971  0.00  0.00    +0.108 C 
ATOM     22  C   UNL     1      -0.110   1.915  25.359  0.00  0.00    +0.019 C 
ATOM     23  C   UNL     1      -1.551   3.715  26.369  0.00  0.00    +0.019 C 
ATOM     24  C   UNL     1      -0.218   2.974  26.455  0.00  0.00    +0.003 C 
ENDBRANCH  17  18
ENDBRANCH  15  17
ENDBRANCH  10  15
TORSDOF 6
ENDMDL
MODEL 7
REMARK VINA RESULT:       8.7      1.952      4.812
REMARK  Name = 26762930
REMARK  8 active torsions:
REMARK  status: ('A' for Active; 'I' for Inactive)
REMARK    1  A    between atoms: N_6  and  C_11
REMARK    2  A    between atoms: N_8  and  C_30
REMARK    3  A    between atoms: N_8  and  C_31
REMARK    4  A    between atoms: N_8  and  C_32
REMARK    5  A    between atoms: C_10  and  C_15
REMARK    6  A    between atoms: C_15  and  C_17
REMARK    7  A    between atoms: C_17  and  C_18
REMARK    8  A    between atoms: C_19  and  C_25
REMARK                            x       y       z     vdW  Elec       q    Type
REMARK                         _______ _______ _______ _____ _____    ______ ____
ROOT
ATOM      1  O   UNL     1      -2.748  -1.047  27.377  0.00  0.00    -0.274 OA
ATOM      4  N   UNL     1      -2.624  -0.685  23.964  0.00  0.00    -0.285 NA
ATOM      5  N   UNL     1      -4.055   0.298  26.027  0.00  0.00    -0.313 N 
ATOM      9  C   UNL     1      -2.979  -1.617  25.032  0.00  0.00    +0.145 C 
ATOM     10  C   UNL     1      -3.726   0.188  23.555  0.00  0.00    +0.075 C 
ATOM     11  C   UNL     1      -1.135  -2.450  23.693  0.00  0.00    +0.089 C 
ATOM     12  C   UNL     1      -1.781  -2.558  25.082  0.00  0.00    +0.052 C 
ATOM     13  C   UNL     1      -2.042  -1.503  22.904  0.00  0.00    +0.107 C 
ATOM     14  C   UNL     1      -4.688   0.471  24.732  0.00  0.00    +0.123 C 
ATOM     16  C   UNL     1      -3.214  -0.779  26.274  0.00  0.00    +0.230 C 
ATOM     33  H   UNL     1      -4.309   0.914  26.794  0.00  0.00    +0.149 HD
ENDROOT
BRANCH  11   6
ATOM      3  O   UNL     1       0.142  -0.647  21.857  0.00  0.00    -0.270 OA
ATOM      6  N   UNL     1       0.215  -1.945  23.778  0.00  0.00    -0.307 N 
ATOM     19  C   UNL     1       0.746  -1.073  22.838  0.00  0.00    +0.244 C 
ATOM     34  H   UNL     1       0.807  -2.342  24.501  0.00  0.00    +0.149 HD
BRANCH  19  25
ATOM     25  C   UNL     1       2.159  -0.668  23.054  0.00  0.00    +0.037 A 
ATOM     26  C   UNL     1       2.598   0.585  22.622  0.00  0.00    +0.015 A 
ATOM     27  C   UNL     1       3.046  -1.538  23.686  0.00  0.00    +0.015 A 
ATOM     28  C   UNL     1       3.924   0.965  22.824  0.00  0.00    +0.024 A 
ATOM     29  C   UNL     1       4.372  -1.157  23.888  0.00  0.00    +0.024 A 
ATOM     30  C   UNL     1       4.812   0.094  23.456  0.00  0.00    +0.029 A 
BRANCH  30   8
ATOM      8  N   UNL     1       6.153   0.479  23.660  0.00  0.00    -0.336 N 
ATOM     31  C   UNL     1       7.237  -0.325  23.132  0.00  0.00    +0.129 C 
ATOM     32  C   UNL     1       6.465   1.691  24.394  0.00  0.00    +0.129 C 
ENDBRANCH  30   8
ENDBRANCH  19  25
ENDBRANCH  11   6
BRANCH  10  15
ATOM     15  C   UNL     1      -3.141   1.500  23.025  0.00  0.00    +0.029 C 
BRANCH  15  17
ATOM     17  C   UNL     1      -1.666   1.656  23.363  0.00  0.00    +0.097 C 
BRANCH  17  18
ATOM      2  O   UNL     1      -0.541   2.110  25.399  0.00  0.00    -0.276 OA
ATOM      7  N   UNL     1      -2.414   3.406  24.938  0.00  0.00    -0.301 N 
ATOM     18  C   UNL     1      -1.483   2.406  24.658  0.00  0.00    +0.216 C 
ATOM     20  C   UNL     1      -2.305   4.178  26.177  0.00  0.00    +0.108 C 
ATOM     21  C   UNL     1      -3.517   3.810  24.058  0.00  0.00    +0.108 C 
ATOM     22  C   UNL     1      -3.613   4.138  26.963  0.00  0.00    +0.019 C 
ATOM     23  C   UNL     1      -4.850   3.764  24.803  0.00  0.00    +0.019 C 
ATOM     24  C   UNL     1      -4.791   4.576  26.095  0.00  0.00    +0.003 C 
ENDBRANCH  17  18
ENDBRANCH  15  17
ENDBRANCH  10  15
TORSDOF 6
ENDMDL
