MODEL 1
REMARK VINA RESULT:      -4.4      0.000      0.000
REMARK  Name = 26744574
REMARK  6 active torsions:
REMARK  status: ('A' for Active; 'I' for Inactive)
REMARK    1  A    between atoms: O_4  and  C_11
REMARK    2  A    between atoms: N_6  and  C_13
REMARK    3  A    between atoms: C_9  and  C_14
REMARK    4  A    between atoms: C_13  and  C_15
REMARK    5  A    between atoms: C_16  and  C_19
REMARK    6  A    between atoms: C_19  and  C_22
REMARK                            x       y       z     vdW  Elec       q    Type
REMARK                         _______ _______ _______ _____ _____    ______ ____
ROOT
ATOM      6  N   UNL     1       0.161   0.012  23.965  0.00  0.00    -0.285 NA
ATOM      9  C   UNL     1       0.914   1.192  24.435  0.00  0.00    +0.149 C 
ATOM     10  C   UNL     1       2.012   1.405  23.376  0.00  0.00    +0.061 C 
ATOM     11  C   UNL     1       1.823   0.271  22.377  0.00  0.00    +0.130 C 
ATOM     12  C   UNL     1       1.096  -0.791  23.181  0.00  0.00    +0.116 C 
ENDROOT
BRANCH   9  14
ATOM      5  O   UNL     1       0.527   3.589  24.161  0.00  0.00    -0.336 OA
ATOM      7  N   UNL     1      -1.151   2.501  25.168  0.00  0.00    -0.194 NA
ATOM      8  N   UNL     1      -0.449   4.554  24.443  0.00  0.00    -0.061 NA
ATOM     14  C   UNL     1       0.034   2.409  24.620  0.00  0.00    +0.245 A 
ATOM     16  C   UNL     1      -1.406   3.835  25.036  0.00  0.00    +0.176 A 
BRANCH  16  19
ATOM     19  C   UNL     1      -2.652   4.445  25.515  0.00  0.00    +0.116 C 
BRANCH  19  22
ATOM      1 CL   UNL     1      -3.137   3.217  22.713  0.00  0.00    -0.083 Cl
ATOM      3  F   UNL     1      -7.314   1.322  24.834  0.00  0.00    -0.205 F 
ATOM     22  C   UNL     1      -3.902   3.597  25.301  0.00  0.00    -0.021 A 
ATOM     24  C   UNL     1      -4.186   3.012  24.067  0.00  0.00    +0.047 A 
ATOM     25  C   UNL     1      -4.770   3.413  26.377  0.00  0.00    +0.008 A 
ATOM     26  C   UNL     1      -5.339   2.243  23.910  0.00  0.00    +0.058 A 
ATOM     27  C   UNL     1      -5.922   2.644  26.220  0.00  0.00    +0.039 A 
ATOM     28  C   UNL     1      -6.207   2.059  24.986  0.00  0.00    +0.125 A 
ENDBRANCH  19  22
ENDBRANCH  16  19
ENDBRANCH   9  14
BRANCH  11   4
ATOM      4  O   UNL     1       3.071  -0.193  21.902  0.00  0.00    -0.390 OA
ATOM     29  H   UNL     1       3.162  -1.121  22.178  0.00  0.00    +0.210 HD
ENDBRANCH  11   4
BRANCH   6  13
ATOM     13  C   UNL     1      -0.445  -0.753  25.048  0.00  0.00    +0.120 C 
BRANCH  13  15
ATOM      2  F   UNL     1      -5.511  -2.764  23.618  0.00  0.00    -0.205 F 
ATOM     15  C   UNL     1      -1.798  -1.291  24.666  0.00  0.00    -0.033 A 
ATOM     17  C   UNL     1      -2.838  -0.411  24.366  0.00  0.00    +0.008 A 
ATOM     18  C   UNL     1      -2.012  -2.667  24.612  0.00  0.00    +0.008 A 
ATOM     20  C   UNL     1      -4.093  -0.908  24.012  0.00  0.00    +0.038 A 
ATOM     21  C   UNL     1      -3.266  -3.165  24.259  0.00  0.00    +0.038 A 
ATOM     23  C   UNL     1      -4.307  -2.286  23.958  0.00  0.00    +0.123 A 
ENDBRANCH  13  15
ENDBRANCH   6  13
TORSDOF 6
ENDMDL
MODEL 2
REMARK VINA RESULT:      -3.4     14.371     16.205
REMARK  Name = 26744574
REMARK  6 active torsions:
REMARK  status: ('A' for Active; 'I' for Inactive)
REMARK    1  A    between atoms: O_4  and  C_11
REMARK    2  A    between atoms: N_6  and  C_13
REMARK    3  A    between atoms: C_9  and  C_14
REMARK    4  A    between atoms: C_13  and  C_15
REMARK    5  A    between atoms: C_16  and  C_19
REMARK    6  A    between atoms: C_19  and  C_22
REMARK                            x       y       z     vdW  Elec       q    Type
REMARK                         _______ _______ _______ _____ _____    ______ ____
ROOT
ATOM      6  N   UNL     1      -2.696 -10.128  13.160  0.00  0.00    -0.285 NA
ATOM      9  C   UNL     1      -3.684 -10.773  14.048  0.00  0.00    +0.149 C 
ATOM     10  C   UNL     1      -3.156 -10.523  15.473  0.00  0.00    +0.061 C 
ATOM     11  C   UNL     1      -1.846  -9.770  15.282  0.00  0.00    +0.130 C 
ATOM     12  C   UNL     1      -1.422 -10.149  13.875  0.00  0.00    +0.116 C 
ENDROOT
BRANCH   9  14
ATOM      5  O   UNL     1      -5.196  -9.043  13.214  0.00  0.00    -0.336 OA
ATOM      7  N   UNL     1      -6.233 -10.775  14.183  0.00  0.00    -0.194 NA
ATOM      8  N   UNL     1      -6.567  -8.766  13.141  0.00  0.00    -0.061 NA
ATOM     14  C   UNL     1      -5.087 -10.243  13.841  0.00  0.00    +0.245 A 
ATOM     16  C   UNL     1      -7.112  -9.832  13.734  0.00  0.00    +0.176 A 
BRANCH  16  19
ATOM     19  C   UNL     1      -8.563  -9.978  13.890  0.00  0.00    +0.116 C 
BRANCH  19  22
ATOM      1 CL   UNL     1     -10.717  -7.854  14.558  0.00  0.00    -0.083 Cl
ATOM      3  F   UNL     1     -10.346  -9.701  19.248  0.00  0.00    -0.205 F 
ATOM     22  C   UNL     1      -9.064  -9.879  15.328  0.00  0.00    -0.021 A 
ATOM     24  C   UNL     1     -10.033  -8.948  15.703  0.00  0.00    +0.047 A 
ATOM     25  C   UNL     1      -8.529 -10.750  16.277  0.00  0.00    +0.008 A 
ATOM     26  C   UNL     1     -10.466  -8.888  17.027  0.00  0.00    +0.058 A 
ATOM     27  C   UNL     1      -8.963 -10.690  17.601  0.00  0.00    +0.039 A 
ATOM     28  C   UNL     1      -9.931  -9.759  17.976  0.00  0.00    +0.125 A 
ENDBRANCH  19  22
ENDBRANCH  16  19
ENDBRANCH   9  14
BRANCH  11   4
ATOM      4  O   UNL     1      -0.891 -10.172  16.244  0.00  0.00    -0.390 OA
ATOM     29  H   UNL     1      -1.266 -10.926  16.730  0.00  0.00    +0.210 HD
ENDBRANCH  11   4
BRANCH   6  13
ATOM     13  C   UNL     1      -2.600 -10.760  11.850  0.00  0.00    +0.120 C 
BRANCH  13  15
ATOM      2  F   UNL     1      -6.424  -8.720   8.250  0.00  0.00    -0.205 F 
ATOM     15  C   UNL     1      -3.622 -10.216  10.889  0.00  0.00    -0.033 A 
ATOM     17  C   UNL     1      -3.295  -9.145  10.057  0.00  0.00    +0.008 A 
ATOM     18  C   UNL     1      -4.895 -10.781  10.829  0.00  0.00    +0.008 A 
ATOM     20  C   UNL     1      -4.241  -8.639   9.166  0.00  0.00    +0.038 A 
ATOM     21  C   UNL     1      -5.842 -10.275   9.938  0.00  0.00    +0.038 A 
ATOM     23  C   UNL     1      -5.515  -9.204   9.106  0.00  0.00    +0.123 A 
ENDBRANCH  13  15
ENDBRANCH   6  13
TORSDOF 6
ENDMDL
MODEL 3
REMARK VINA RESULT:      -3.3      1.023      1.642
REMARK  Name = 26744574
REMARK  6 active torsions:
REMARK  status: ('A' for Active; 'I' for Inactive)
REMARK    1  A    between atoms: O_4  and  C_11
REMARK    2  A    between atoms: N_6  and  C_13
REMARK    3  A    between atoms: C_9  and  C_14
REMARK    4  A    between atoms: C_13  and  C_15
REMARK    5  A    between atoms: C_16  and  C_19
REMARK    6  A    between atoms: C_19  and  C_22
REMARK                            x       y       z     vdW  Elec       q    Type
REMARK                         _______ _______ _______ _____ _____    ______ ____
ROOT
ATOM      6  N   UNL     1       0.204   0.086  23.919  0.00  0.00    -0.285 NA
ATOM      9  C   UNL     1       0.996   1.265  24.322  0.00  0.00    +0.149 C 
ATOM     10  C   UNL     1       2.117   1.365  23.271  0.00  0.00    +0.061 C 
ATOM     11  C   UNL     1       1.898   0.174  22.346  0.00  0.00    +0.130 C 
ATOM     12  C   UNL     1       1.119  -0.803  23.206  0.00  0.00    +0.116 C 
ENDROOT
BRANCH   9  14
ATOM      5  O   UNL     1       0.718   3.657  23.907  0.00  0.00    -0.336 OA
ATOM      7  N   UNL     1      -1.035   2.693  24.912  0.00  0.00    -0.194 NA
ATOM      8  N   UNL     1      -0.226   4.674  24.103  0.00  0.00    -0.061 NA
ATOM     14  C   UNL     1       0.162   2.525  24.412  0.00  0.00    +0.245 A 
ATOM     16  C   UNL     1      -1.231   4.027  24.700  0.00  0.00    +0.176 A 
BRANCH  16  19
ATOM     19  C   UNL     1      -2.465   4.711  25.103  0.00  0.00    +0.116 C 
BRANCH  19  22
ATOM      1 CL   UNL     1      -3.797   4.042  27.818  0.00  0.00    -0.083 Cl
ATOM      3  F   UNL     1      -7.079   1.445  24.984  0.00  0.00    -0.205 F 
ATOM     22  C   UNL     1      -3.712   3.831  25.103  0.00  0.00    -0.021 A 
ATOM     24  C   UNL     1      -4.366   3.489  26.287  0.00  0.00    +0.047 A 
ATOM     25  C   UNL     1      -4.196   3.368  23.879  0.00  0.00    +0.008 A 
ATOM     26  C   UNL     1      -5.503   2.683  26.246  0.00  0.00    +0.058 A 
ATOM     27  C   UNL     1      -5.333   2.563  23.839  0.00  0.00    +0.039 A 
ATOM     28  C   UNL     1      -5.987   2.220  25.023  0.00  0.00    +0.125 A 
ENDBRANCH  19  22
ENDBRANCH  16  19
ENDBRANCH   9  14
BRANCH  11   4
ATOM      4  O   UNL     1       3.134  -0.367  21.924  0.00  0.00    -0.390 OA
ATOM     29  H   UNL     1       3.035  -0.628  20.992  0.00  0.00    +0.210 HD
ENDBRANCH  11   4
BRANCH   6  13
ATOM     13  C   UNL     1      -0.446  -0.581  25.040  0.00  0.00    +0.120 C 
BRANCH  13  15
ATOM      2  F   UNL     1      -5.474  -2.681  23.606  0.00  0.00    -0.205 F 
ATOM     15  C   UNL     1      -1.789  -1.141  24.657  0.00  0.00    -0.033 A 
ATOM     17  C   UNL     1      -1.978  -2.522  24.601  0.00  0.00    +0.008 A 
ATOM     18  C   UNL     1      -2.845  -0.281  24.358  0.00  0.00    +0.008 A 
ATOM     20  C   UNL     1      -3.222  -3.043  24.246  0.00  0.00    +0.038 A 
ATOM     21  C   UNL     1      -4.090  -0.801  24.003  0.00  0.00    +0.038 A 
ATOM     23  C   UNL     1      -4.279  -2.183  23.947  0.00  0.00    +0.123 A 
ENDBRANCH  13  15
ENDBRANCH   6  13
TORSDOF 6
ENDMDL
MODEL 4
REMARK VINA RESULT:      -3.0      3.448      6.739
REMARK  Name = 26744574
REMARK  6 active torsions:
REMARK  status: ('A' for Active; 'I' for Inactive)
REMARK    1  A    between atoms: O_4  and  C_11
REMARK    2  A    between atoms: N_6  and  C_13
REMARK    3  A    between atoms: C_9  and  C_14
REMARK    4  A    between atoms: C_13  and  C_15
REMARK    5  A    between atoms: C_16  and  C_19
REMARK    6  A    between atoms: C_19  and  C_22
REMARK                            x       y       z     vdW  Elec       q    Type
REMARK                         _______ _______ _______ _____ _____    ______ ____
ROOT
ATOM      6  N   UNL     1      -3.405   2.358  25.121  0.00  0.00    -0.285 NA
ATOM      9  C   UNL     1      -2.366   3.069  24.350  0.00  0.00    +0.149 C 
ATOM     10  C   UNL     1      -2.096   4.359  25.149  0.00  0.00    +0.061 C 
ATOM     11  C   UNL     1      -3.062   4.303  26.326  0.00  0.00    +0.130 C 
ATOM     12  C   UNL     1      -4.163   3.381  25.837  0.00  0.00    +0.116 C 
ENDROOT
BRANCH   9  14
ATOM      5  O   UNL     1      -0.052   2.537  24.928  0.00  0.00    -0.336 OA
ATOM      7  N   UNL     1      -0.908   1.253  23.306  0.00  0.00    -0.194 NA
ATOM      8  N   UNL     1       0.965   1.648  24.558  0.00  0.00    -0.061 NA
ATOM     14  C   UNL     1      -1.120   2.237  24.143  0.00  0.00    +0.245 A 
ATOM     16  C   UNL     1       0.384   0.924  23.597  0.00  0.00    +0.176 A 
BRANCH  16  19
ATOM     19  C   UNL     1       1.093  -0.155  22.900  0.00  0.00    +0.116 C 
BRANCH  19  22
ATOM      1 CL   UNL     1       2.440  -2.378  24.583  0.00  0.00    -0.083 Cl
ATOM      3  F   UNL     1       6.720   0.043  23.414  0.00  0.00    -0.205 F 
ATOM     22  C   UNL     1       2.611  -0.128  23.057  0.00  0.00    -0.021 A 
ATOM     24  C   UNL     1       3.286  -1.096  23.799  0.00  0.00    +0.047 A 
ATOM     25  C   UNL     1       3.323   0.898  22.435  0.00  0.00    +0.008 A 
ATOM     26  C   UNL     1       4.675  -1.038  23.920  0.00  0.00    +0.058 A 
ATOM     27  C   UNL     1       4.711   0.955  22.555  0.00  0.00    +0.039 A 
ATOM     28  C   UNL     1       5.387  -0.013  23.298  0.00  0.00    +0.125 A 
ENDBRANCH  19  22
ENDBRANCH  16  19
ENDBRANCH   9  14
BRANCH  11   4
ATOM      4  O   UNL     1      -3.553   5.592  26.634  0.00  0.00    -0.390 OA
ATOM     29  H   UNL     1      -3.184   6.209  25.978  0.00  0.00    +0.210 HD
ENDBRANCH  11   4
BRANCH   6  13
ATOM     13  C   UNL     1      -4.262   1.518  24.294  0.00  0.00    +0.120 C 
BRANCH  13  15
ATOM      2  F   UNL     1      -3.343  -3.965  25.212  0.00  0.00    -0.205 F 
ATOM     15  C   UNL     1      -4.016   0.053  24.538  0.00  0.00    -0.033 A 
ATOM     17  C   UNL     1      -3.442  -0.366  25.738  0.00  0.00    +0.008 A 
ATOM     18  C   UNL     1      -4.363  -0.885  23.567  0.00  0.00    +0.008 A 
ATOM     20  C   UNL     1      -3.214  -1.723  25.966  0.00  0.00    +0.038 A 
ATOM     21  C   UNL     1      -4.135  -2.242  23.794  0.00  0.00    +0.038 A 
ATOM     23  C   UNL     1      -3.561  -2.661  24.994  0.00  0.00    +0.123 A 
ENDBRANCH  13  15
ENDBRANCH   6  13
TORSDOF 6
ENDMDL
MODEL 5
REMARK VINA RESULT:      -2.3      2.360      4.121
REMARK  Name = 26744574
REMARK  6 active torsions:
REMARK  status: ('A' for Active; 'I' for Inactive)
REMARK    1  A    between atoms: O_4  and  C_11
REMARK    2  A    between atoms: N_6  and  C_13
REMARK    3  A    between atoms: C_9  and  C_14
REMARK    4  A    between atoms: C_13  and  C_15
REMARK    5  A    between atoms: C_16  and  C_19
REMARK    6  A    between atoms: C_19  and  C_22
REMARK                            x       y       z     vdW  Elec       q    Type
REMARK                         _______ _______ _______ _____ _____    ______ ____
ROOT
ATOM      6  N   UNL     1       1.631   1.396  23.722  0.00  0.00    -0.285 NA
ATOM      9  C   UNL     1       0.936   0.376  22.913  0.00  0.00    +0.149 C 
ATOM     10  C   UNL     1       1.969  -0.751  22.725  0.00  0.00    +0.061 C 
ATOM     11  C   UNL     1       3.227  -0.252  23.426  0.00  0.00    +0.130 C 
ATOM     12  C   UNL     1       3.056   1.255  23.430  0.00  0.00    +0.116 C 
ENDROOT
BRANCH   9  14
ATOM      5  O   UNL     1      -0.214  -0.980  24.591  0.00  0.00    -0.336 OA
ATOM      7  N   UNL     1      -1.585   0.194  23.267  0.00  0.00    -0.194 NA
ATOM      8  N   UNL     1      -1.515  -1.279  25.016  0.00  0.00    -0.061 NA
ATOM     14  C   UNL     1      -0.346  -0.107  23.559  0.00  0.00    +0.245 A 
ATOM     16  C   UNL     1      -2.267  -0.550  24.187  0.00  0.00    +0.176 A 
BRANCH  16  19
ATOM     19  C   UNL     1      -3.732  -0.550  24.263  0.00  0.00    +0.116 C 
BRANCH  19  22
ATOM      1 CL   UNL     1      -3.011   1.920  22.538  0.00  0.00    -0.083 Cl
ATOM      3  F   UNL     1      -6.091   4.383  25.700  0.00  0.00    -0.205 F 
ATOM     22  C   UNL     1      -4.353   0.796  24.627  0.00  0.00    -0.021 A 
ATOM     24  C   UNL     1      -4.076   1.951  23.895  0.00  0.00    +0.047 A 
ATOM     25  C   UNL     1      -5.217   0.852  25.720  0.00  0.00    +0.008 A 
ATOM     26  C   UNL     1      -4.663   3.163  24.258  0.00  0.00    +0.058 A 
ATOM     27  C   UNL     1      -5.805   2.064  26.082  0.00  0.00    +0.039 A 
ATOM     28  C   UNL     1      -5.527   3.219  25.351  0.00  0.00    +0.125 A 
ENDBRANCH  19  22
ENDBRANCH  16  19
ENDBRANCH   9  14
BRANCH  11   4
ATOM      4  O   UNL     1       4.386  -0.647  22.718  0.00  0.00    -0.390 OA
ATOM     29  H   UNL     1       4.927   0.149  22.576  0.00  0.00    +0.210 HD
ENDBRANCH  11   4
BRANCH   6  13
ATOM     13  C   UNL     1       1.152   2.750  23.477  0.00  0.00    +0.120 C 
BRANCH  13  15
ATOM      2  F   UNL     1      -2.947   4.212  27.055  0.00  0.00    -0.205 F 
ATOM     15  C   UNL     1       0.057   3.140  24.433  0.00  0.00    -0.033 A 
ATOM     17  C   UNL     1      -0.685   4.299  24.207  0.00  0.00    +0.008 A 
ATOM     18  C   UNL     1      -0.215   2.344  25.545  0.00  0.00    +0.008 A 
ATOM     20  C   UNL     1      -1.700   4.662  25.092  0.00  0.00    +0.038 A 
ATOM     21  C   UNL     1      -1.230   2.706  26.431  0.00  0.00    +0.038 A 
ATOM     23  C   UNL     1      -1.973   3.865  26.204  0.00  0.00    +0.123 A 
ENDBRANCH  13  15
ENDBRANCH   6  13
TORSDOF 6
ENDMDL
MODEL 6
REMARK VINA RESULT:      -1.7      2.631      5.624
REMARK  Name = 26744574
REMARK  6 active torsions:
REMARK  status: ('A' for Active; 'I' for Inactive)
REMARK    1  A    between atoms: O_4  and  C_11
REMARK    2  A    between atoms: N_6  and  C_13
REMARK    3  A    between atoms: C_9  and  C_14
REMARK    4  A    between atoms: C_13  and  C_15
REMARK    5  A    between atoms: C_16  and  C_19
REMARK    6  A    between atoms: C_19  and  C_22
REMARK                            x       y       z     vdW  Elec       q    Type
REMARK                         _______ _______ _______ _____ _____    ______ ____
ROOT
ATOM      6  N   UNL     1      -4.859   2.493  24.760  0.00  0.00    -0.285 NA
ATOM      9  C   UNL     1      -4.142   3.659  24.205  0.00  0.00    +0.149 C 
ATOM     10  C   UNL     1      -4.676   4.865  25.001  0.00  0.00    +0.061 C 
ATOM     11  C   UNL     1      -5.719   4.283  25.947  0.00  0.00    +0.130 C 
ATOM     12  C   UNL     1      -6.136   2.994  25.264  0.00  0.00    +0.116 C 
ENDROOT
BRANCH   9  14
ATOM      5  O   UNL     1      -1.943   4.633  24.638  0.00  0.00    -0.336 OA
ATOM      7  N   UNL     1      -1.891   2.463  24.090  0.00  0.00    -0.194 NA
ATOM      8  N   UNL     1      -0.593   4.259  24.655  0.00  0.00    -0.061 NA
ATOM     14  C   UNL     1      -2.638   3.517  24.296  0.00  0.00    +0.245 A 
ATOM     16  C   UNL     1      -0.644   2.967  24.322  0.00  0.00    +0.176 A 
BRANCH  16  19
ATOM     19  C   UNL     1       0.566   2.144  24.212  0.00  0.00    +0.116 C 
BRANCH  19  22
ATOM      1 CL   UNL     1       1.947   0.089  22.350  0.00  0.00    -0.083 Cl
ATOM      3  F   UNL     1      -0.282  -3.333  25.328  0.00  0.00    -0.205 F 
ATOM     22  C   UNL     1       0.356   0.658  24.488  0.00  0.00    -0.021 A 
ATOM     24  C   UNL     1       0.946  -0.325  23.693  0.00  0.00    +0.047 A 
ATOM     25  C   UNL     1      -0.450   0.292  25.566  0.00  0.00    +0.008 A 
ATOM     26  C   UNL     1       0.731  -1.673  23.977  0.00  0.00    +0.058 A 
ATOM     27  C   UNL     1      -0.664  -1.056  25.851  0.00  0.00    +0.039 A 
ATOM     28  C   UNL     1      -0.075  -2.038  25.055  0.00  0.00    +0.125 A 
ENDBRANCH  19  22
ENDBRANCH  16  19
ENDBRANCH   9  14
BRANCH  11   4
ATOM      4  O   UNL     1      -6.809   5.171  26.101  0.00  0.00    -0.390 OA
ATOM     29  H   UNL     1      -7.084   5.452  25.211  0.00  0.00    +0.210 HD
ENDBRANCH  11   4
BRANCH   6  13
ATOM     13  C   UNL     1      -5.034   1.414  23.797  0.00  0.00    +0.120 C 
BRANCH  13  15
ATOM      2  F   UNL     1      -3.116  -3.502  25.773  0.00  0.00    -0.205 F 
ATOM     15  C   UNL     1      -4.522   0.101  24.326  0.00  0.00    -0.033 A 
ATOM     17  C   UNL     1      -4.375  -0.987  23.465  0.00  0.00    +0.008 A 
ATOM     18  C   UNL     1      -4.194  -0.028  25.675  0.00  0.00    +0.008 A 
ATOM     20  C   UNL     1      -3.901  -2.204  23.954  0.00  0.00    +0.038 A 
ATOM     21  C   UNL     1      -3.720  -1.245  26.164  0.00  0.00    +0.038 A 
ATOM     23  C   UNL     1      -3.572  -2.333  25.303  0.00  0.00    +0.123 A 
ENDBRANCH  13  15
ENDBRANCH   6  13
TORSDOF 6
ENDMDL
MODEL 7
REMARK VINA RESULT:      -1.6      3.138      6.355
REMARK  Name = 26744574
REMARK  6 active torsions:
REMARK  status: ('A' for Active; 'I' for Inactive)
REMARK    1  A    between atoms: O_4  and  C_11
REMARK    2  A    between atoms: N_6  and  C_13
REMARK    3  A    between atoms: C_9  and  C_14
REMARK    4  A    between atoms: C_13  and  C_15
REMARK    5  A    between atoms: C_16  and  C_19
REMARK    6  A    between atoms: C_19  and  C_22
REMARK                            x       y       z     vdW  Elec       q    Type
REMARK                         _______ _______ _______ _____ _____    ______ ____
ROOT
ATOM      6  N   UNL     1      -5.099   1.791  25.115  0.00  0.00    -0.285 NA
ATOM      9  C   UNL     1      -4.447   2.620  24.082  0.00  0.00    +0.149 C 
ATOM     10  C   UNL     1      -4.746   4.073  24.497  0.00  0.00    +0.061 C 
ATOM     11  C   UNL     1      -5.607   3.957  25.748  0.00  0.00    +0.130 C 
ATOM     12  C   UNL     1      -6.220   2.574  25.629  0.00  0.00    +0.116 C 
ENDROOT
BRANCH   9  14
ATOM      5  O   UNL     1      -2.479   2.198  22.696  0.00  0.00    -0.336 OA
ATOM      7  N   UNL     1      -2.064   2.208  24.896  0.00  0.00    -0.194 NA
ATOM      8  N   UNL     1      -1.107   1.947  22.835  0.00  0.00    -0.061 NA
ATOM     14  C   UNL     1      -2.965   2.340  23.957  0.00  0.00    +0.245 A 
ATOM     16  C   UNL     1      -0.940   1.967  24.160  0.00  0.00    +0.176 A 
BRANCH  16  19
ATOM     19  C   UNL     1       0.370   1.745  24.782  0.00  0.00    +0.116 C 
BRANCH  19  22
ATOM      1 CL   UNL     1      -0.031  -1.032  23.468  0.00  0.00    -0.083 Cl
ATOM      3  F   UNL     1       4.425  -0.070  21.285  0.00  0.00    -0.205 F 
ATOM     22  C   UNL     1       1.448   1.228  23.833  0.00  0.00    -0.021 A 
ATOM     24  C   UNL     1       1.336  -0.012  23.204  0.00  0.00    +0.047 A 
ATOM     25  C   UNL     1       2.565   2.030  23.601  0.00  0.00    +0.008 A 
ATOM     26  C   UNL     1       2.342  -0.450  22.343  0.00  0.00    +0.058 A 
ATOM     27  C   UNL     1       3.571   1.592  22.740  0.00  0.00    +0.039 A 
ATOM     28  C   UNL     1       3.459   0.351  22.111  0.00  0.00    +0.125 A 
ENDBRANCH  19  22
ENDBRANCH  16  19
ENDBRANCH   9  14
BRANCH  11   4
ATOM      4  O   UNL     1      -6.595   4.968  25.774  0.00  0.00    -0.390 OA
ATOM     29  H   UNL     1      -7.431   4.553  26.046  0.00  0.00    +0.210 HD
ENDBRANCH  11   4
BRANCH   6  13
ATOM     13  C   UNL     1      -5.521   0.486  24.623  0.00  0.00    +0.120 C 
BRANCH  13  15
ATOM      2  F   UNL     1      -1.437  -3.365  25.118  0.00  0.00    -0.205 F 
ATOM     15  C   UNL     1      -4.430  -0.543  24.755  0.00  0.00    -0.033 A 
ATOM     17  C   UNL     1      -3.504  -0.449  25.794  0.00  0.00    +0.008 A 
ATOM     18  C   UNL     1      -4.345  -1.591  23.839  0.00  0.00    +0.008 A 
ATOM     20  C   UNL     1      -2.493  -1.401  25.917  0.00  0.00    +0.038 A 
ATOM     21  C   UNL     1      -3.333  -2.544  23.961  0.00  0.00    +0.038 A 
ATOM     23  C   UNL     1      -2.408  -2.449  25.000  0.00  0.00    +0.123 A 
ENDBRANCH  13  15
ENDBRANCH   6  13
TORSDOF 6
ENDMDL
MODEL 8
REMARK VINA RESULT:      -1.0      1.834      2.226
REMARK  Name = 26744574
REMARK  6 active torsions:
REMARK  status: ('A' for Active; 'I' for Inactive)
REMARK    1  A    between atoms: O_4  and  C_11
REMARK    2  A    between atoms: N_6  and  C_13
REMARK    3  A    between atoms: C_9  and  C_14
REMARK    4  A    between atoms: C_13  and  C_15
REMARK    5  A    between atoms: C_16  and  C_19
REMARK    6  A    between atoms: C_19  and  C_22
REMARK                            x       y       z     vdW  Elec       q    Type
REMARK                         _______ _______ _______ _____ _____    ______ ____
ROOT
ATOM      6  N   UNL     1       1.219   0.270  22.459  0.00  0.00    -0.285 NA
ATOM      9  C   UNL     1       1.513   0.640  23.858  0.00  0.00    +0.149 C 
ATOM     10  C   UNL     1       2.990   1.078  23.847  0.00  0.00    +0.061 C 
ATOM     11  C   UNL     1       3.450   0.878  22.408  0.00  0.00    +0.130 C 
ATOM     12  C   UNL     1       2.484  -0.161  21.869  0.00  0.00    +0.116 C 
ENDROOT
BRANCH   9  14
ATOM      5  O   UNL     1       0.770   2.094  25.676  0.00  0.00    -0.336 OA
ATOM      7  N   UNL     1      -0.385   2.344  23.774  0.00  0.00    -0.194 NA
ATOM      8  N   UNL     1      -0.190   3.082  25.931  0.00  0.00    -0.061 NA
ATOM     14  C   UNL     1       0.587   1.714  24.384  0.00  0.00    +0.245 A 
ATOM     16  C   UNL     1      -0.832   3.172  24.762  0.00  0.00    +0.176 A 
BRANCH  16  19
ATOM     19  C   UNL     1      -1.947   4.104  24.558  0.00  0.00    +0.116 C 
BRANCH  19  22
ATOM      1 CL   UNL     1      -3.458   4.479  27.236  0.00  0.00    -0.083 Cl
ATOM      3  F   UNL     1      -7.075   1.761  24.982  0.00  0.00    -0.205 F 
ATOM     22  C   UNL     1      -3.333   3.483  24.702  0.00  0.00    -0.021 A 
ATOM     24  C   UNL     1      -4.073   3.611  25.878  0.00  0.00    +0.047 A 
ATOM     25  C   UNL     1      -3.857   2.774  23.622  0.00  0.00    +0.008 A 
ATOM     26  C   UNL     1      -5.337   3.029  25.972  0.00  0.00    +0.058 A 
ATOM     27  C   UNL     1      -5.121   2.193  23.716  0.00  0.00    +0.039 A 
ATOM     28  C   UNL     1      -5.861   2.320  24.892  0.00  0.00    +0.125 A 
ENDBRANCH  19  22
ENDBRANCH  16  19
ENDBRANCH   9  14
BRANCH  11   4
ATOM      4  O   UNL     1       4.788   0.421  22.369  0.00  0.00    -0.390 OA
ATOM     29  H   UNL     1       5.361   1.204  22.297  0.00  0.00    +0.210 HD
ENDBRANCH  11   4
BRANCH   6  13
ATOM     13  C   UNL     1       0.183  -0.749  22.339  0.00  0.00    +0.120 C 
BRANCH  13  15
ATOM      2  F   UNL     1      -3.007  -1.058  26.973  0.00  0.00    -0.205 F 
ATOM     15  C   UNL     1      -0.668  -0.832  23.577  0.00  0.00    -0.033 A 
ATOM     17  C   UNL     1      -1.947  -0.274  23.582  0.00  0.00    +0.008 A 
ATOM     18  C   UNL     1      -0.180  -1.465  24.719  0.00  0.00    +0.008 A 
ATOM     20  C   UNL     1      -2.738  -0.350  24.729  0.00  0.00    +0.038 A 
ATOM     21  C   UNL     1      -0.970  -1.542  25.867  0.00  0.00    +0.038 A 
ATOM     23  C   UNL     1      -2.249  -0.984  25.872  0.00  0.00    +0.123 A 
ENDBRANCH  13  15
ENDBRANCH   6  13
TORSDOF 6
ENDMDL
MODEL 9
REMARK VINA RESULT:      -0.9      2.923      5.962
REMARK  Name = 26744574
REMARK  6 active torsions:
REMARK  status: ('A' for Active; 'I' for Inactive)
REMARK    1  A    between atoms: O_4  and  C_11
REMARK    2  A    between atoms: N_6  and  C_13
REMARK    3  A    between atoms: C_9  and  C_14
REMARK    4  A    between atoms: C_13  and  C_15
REMARK    5  A    between atoms: C_16  and  C_19
REMARK    6  A    between atoms: C_19  and  C_22
REMARK                            x       y       z     vdW  Elec       q    Type
REMARK                         _______ _______ _______ _____ _____    ______ ____
ROOT
ATOM      6  N   UNL     1      -4.586   1.916  25.077  0.00  0.00    -0.285 NA
ATOM      9  C   UNL     1      -3.743   3.011  24.557  0.00  0.00    +0.149 C 
ATOM     10  C   UNL     1      -4.339   4.293  25.169  0.00  0.00    +0.061 C 
ATOM     11  C   UNL     1      -5.539   3.821  25.981  0.00  0.00    +0.130 C 
ATOM     12  C   UNL     1      -5.902   2.495  25.338  0.00  0.00    +0.116 C 
ENDROOT
BRANCH   9  14
ATOM      5  O   UNL     1      -1.878   3.254  26.118  0.00  0.00    -0.336 OA
ATOM      7  N   UNL     1      -1.319   2.317  24.164  0.00  0.00    -0.194 NA
ATOM      8  N   UNL     1      -0.505   2.987  26.194  0.00  0.00    -0.061 NA
ATOM     14  C   UNL     1      -2.278   2.829  24.891  0.00  0.00    +0.245 A 
ATOM     16  C   UNL     1      -0.250   2.435  25.005  0.00  0.00    +0.176 A 
BRANCH  16  19
ATOM     19  C   UNL     1       1.095   1.986  24.629  0.00  0.00    +0.116 C 
BRANCH  19  22
ATOM      1 CL   UNL     1       3.767   1.561  23.120  0.00  0.00    -0.083 Cl
ATOM      3  F   UNL     1       1.128  -1.827  20.454  0.00  0.00    -0.205 F 
ATOM     22  C   UNL     1       1.135   0.963  23.497  0.00  0.00    -0.021 A 
ATOM     24  C   UNL     1       2.302   0.718  22.773  0.00  0.00    +0.047 A 
ATOM     25  C   UNL     1      -0.034   0.266  23.193  0.00  0.00    +0.008 A 
ATOM     26  C   UNL     1       2.299  -0.225  21.745  0.00  0.00    +0.058 A 
ATOM     27  C   UNL     1      -0.037  -0.677  22.166  0.00  0.00    +0.039 A 
ATOM     28  C   UNL     1       1.130  -0.922  21.442  0.00  0.00    +0.125 A 
ENDBRANCH  19  22
ENDBRANCH  16  19
ENDBRANCH   9  14
BRANCH  11   4
ATOM      4  O   UNL     1      -6.599   4.752  25.898  0.00  0.00    -0.390 OA
ATOM     29  H   UNL     1      -7.098   4.555  25.086  0.00  0.00    +0.210 HD
ENDBRANCH  11   4
BRANCH   6  13
ATOM     13  C   UNL     1      -4.658   0.770  24.180  0.00  0.00    +0.120 C 
BRANCH  13  15
ATOM      2  F   UNL     1      -0.913  -3.211  25.546  0.00  0.00    -0.205 F 
ATOM     15  C   UNL     1      -3.658  -0.293  24.546  0.00  0.00    -0.033 A 
ATOM     17  C   UNL     1      -3.585  -1.468  23.798  0.00  0.00    +0.008 A 
ATOM     18  C   UNL     1      -2.803  -0.104  25.631  0.00  0.00    +0.008 A 
ATOM     20  C   UNL     1      -2.659  -2.455  24.135  0.00  0.00    +0.038 A 
ATOM     21  C   UNL     1      -1.876  -1.090  25.969  0.00  0.00    +0.038 A 
ATOM     23  C   UNL     1      -1.804  -2.265  25.221  0.00  0.00    +0.123 A 
ENDBRANCH  13  15
ENDBRANCH   6  13
TORSDOF 6
ENDMDL
