MODEL 1
REMARK VINA RESULT:       3.7      0.000      0.000
REMARK  Name = 45783272
REMARK  8 active torsions:
REMARK  status: ('A' for Active; 'I' for Inactive)
REMARK    1  A    between atoms: O_3  and  C_29
REMARK    2  A    between atoms: O_3  and  C_30
REMARK    3  A    between atoms: N_4  and  C_10
REMARK    4  A    between atoms: N_9  and  C_28
REMARK    5  A    between atoms: C_11  and  C_19
REMARK    6  A    between atoms: C_20  and  C_21
REMARK    7  A    between atoms: C_22  and  C_23
REMARK    8  A    between atoms: C_28  and  C_29
REMARK                            x       y       z     vdW  Elec       q    Type
REMARK                         _______ _______ _______ _____ _____    ______ ____
ROOT
ATOM      1  O   UNL     1      -0.660  -1.336  25.621  0.00  0.00    -0.336 OA
ATOM      6  N   UNL     1      -0.938  -0.801  23.464  0.00  0.00    -0.190 NA
ATOM      7  N   UNL     1       0.617  -1.049  25.123  0.00  0.00    -0.056 NA
ATOM     19  C   UNL     1      -1.516  -1.166  24.580  0.00  0.00    +0.245 A 
ATOM     22  C   UNL     1       0.370  -0.741  23.846  0.00  0.00    +0.202 A 
ENDROOT
BRANCH  22  23
ATOM      8  N   UNL     1       3.431   0.341  21.134  0.00  0.00    -0.240 NA
ATOM      9  N   UNL     1       4.871   0.813  22.972  0.00  0.00    -0.327 N 
ATOM     23  C   UNL     1       1.408  -0.373  22.926  0.00  0.00    +0.027 A 
ATOM     24  C   UNL     1       2.646   0.045  23.402  0.00  0.00    +0.055 A 
ATOM     25  C   UNL     1       1.180  -0.434  21.556  0.00  0.00    +0.031 A 
ATOM     26  C   UNL     1       3.615   0.388  22.473  0.00  0.00    +0.119 A 
ATOM     27  C   UNL     1       2.215  -0.069  20.710  0.00  0.00    +0.113 A 
ATOM     31  H   UNL     1       5.572   1.058  22.283  0.00  0.00    +0.148 HD
BRANCH   9  28
ATOM     28  C   UNL     1       5.156   0.896  24.368  0.00  0.00    +0.131 C 
BRANCH  28  29
ATOM     29  C   UNL     1       5.758  -0.413  24.852  0.00  0.00    +0.178 C 
BRANCH  29   3
ATOM      3  O   UNL     1       5.749  -1.361  23.793  0.00  0.00    -0.381 OA
ATOM     30  C   UNL     1       4.714  -2.319  23.958  0.00  0.00    +0.194 C 
ENDBRANCH  29   3
ENDBRANCH  28  29
ENDBRANCH   9  28
ENDBRANCH  22  23
BRANCH  19  11
ATOM      4  N   UNL     1      -3.859  -0.969  23.764  0.00  0.00    -0.288 NA
ATOM     11  C   UNL     1      -2.982  -1.419  24.864  0.00  0.00    +0.146 C 
ATOM     12  C   UNL     1      -5.036  -1.837  23.793  0.00  0.00    +0.085 C 
ATOM     13  C   UNL     1      -3.306  -2.914  25.035  0.00  0.00    +0.030 C 
ATOM     16  C   UNL     1      -4.416  -3.199  24.033  0.00  0.00    +0.017 C 
BRANCH   4  10
ATOM      2  O   UNL     1      -2.098   4.800  24.958  0.00  0.00    -0.276 OA
ATOM      5  N   UNL     1      -3.690   3.112  24.851  0.00  0.00    -0.302 N 
ATOM     10  C   UNL     1      -4.218   0.445  23.855  0.00  0.00    +0.060 C 
ATOM     14  C   UNL     1      -3.091   1.311  23.277  0.00  0.00    +0.038 C 
ATOM     15  C   UNL     1      -4.491   0.826  25.316  0.00  0.00    +0.038 C 
ATOM     17  C   UNL     1      -3.402   2.797  23.450  0.00  0.00    +0.109 C 
ATOM     18  C   UNL     1      -4.774   2.322  25.449  0.00  0.00    +0.109 C 
ATOM     20  C   UNL     1      -2.981   4.125  25.495  0.00  0.00    +0.212 C 
ATOM     21  C   UNL     1      -3.334   4.387  26.937  0.00  0.00    +0.109 C 
ENDBRANCH   4  10
ENDBRANCH  19  11
TORSDOF 6
ENDMDL
MODEL 2
REMARK VINA RESULT:       4.2      2.416      5.375
REMARK  Name = 45783272
REMARK  8 active torsions:
REMARK  status: ('A' for Active; 'I' for Inactive)
REMARK    1  A    between atoms: O_3  and  C_29
REMARK    2  A    between atoms: O_3  and  C_30
REMARK    3  A    between atoms: N_4  and  C_10
REMARK    4  A    between atoms: N_9  and  C_28
REMARK    5  A    between atoms: C_11  and  C_19
REMARK    6  A    between atoms: C_20  and  C_21
REMARK    7  A    between atoms: C_22  and  C_23
REMARK    8  A    between atoms: C_28  and  C_29
REMARK                            x       y       z     vdW  Elec       q    Type
REMARK                         _______ _______ _______ _____ _____    ______ ____
ROOT
ATOM      1  O   UNL     1      -6.194   1.261  24.970  0.00  0.00    -0.336 OA
ATOM      6  N   UNL     1      -3.964   1.138  25.140  0.00  0.00    -0.190 NA
ATOM      7  N   UNL     1      -5.846  -0.040  24.586  0.00  0.00    -0.056 NA
ATOM     19  C   UNL     1      -5.029   1.887  25.280  0.00  0.00    +0.245 A 
ATOM     22  C   UNL     1      -4.516  -0.035  24.713  0.00  0.00    +0.202 A 
ENDROOT
BRANCH  22  23
ATOM      8  N   UNL     1      -2.135  -3.424  23.852  0.00  0.00    -0.240 NA
ATOM      9  N   UNL     1      -0.191  -2.046  23.882  0.00  0.00    -0.327 N 
ATOM     23  C   UNL     1      -3.708  -1.184  24.420  0.00  0.00    +0.027 A 
ATOM     24  C   UNL     1      -2.330  -1.054  24.293  0.00  0.00    +0.055 A 
ATOM     25  C   UNL     1      -4.301  -2.432  24.263  0.00  0.00    +0.031 A 
ATOM     26  C   UNL     1      -1.595  -2.194  24.011  0.00  0.00    +0.119 A 
ATOM     27  C   UNL     1      -3.478  -3.510  23.982  0.00  0.00    +0.113 A 
ATOM     31  H   UNL     1       0.335  -2.888  23.679  0.00  0.00    +0.148 HD
BRANCH   9  28
ATOM     28  C   UNL     1       0.467  -0.789  24.031  0.00  0.00    +0.131 C 
BRANCH  28  29
ATOM     29  C   UNL     1       1.188  -0.425  22.744  0.00  0.00    +0.178 C 
BRANCH  29   3
ATOM      3  O   UNL     1       2.593  -0.492  22.951  0.00  0.00    -0.381 OA
ATOM     30  C   UNL     1       3.236   0.711  22.554  0.00  0.00    +0.194 C 
ENDBRANCH  29   3
ENDBRANCH  28  29
ENDBRANCH   9  28
ENDBRANCH  22  23
BRANCH  19  11
ATOM      4  N   UNL     1      -4.629   4.279  24.722  0.00  0.00    -0.288 NA
ATOM     11  C   UNL     1      -5.136   3.328  25.732  0.00  0.00    +0.146 C 
ATOM     12  C   UNL     1      -5.380   5.520  24.908  0.00  0.00    +0.085 C 
ATOM     13  C   UNL     1      -6.590   3.766  25.985  0.00  0.00    +0.030 C 
ATOM     16  C   UNL     1      -6.789   5.004  25.121  0.00  0.00    +0.017 C 
BRANCH   4  10
ATOM      2  O   UNL     1       1.011   1.839  24.940  0.00  0.00    -0.276 OA
ATOM      5  N   UNL     1      -0.530   3.510  25.414  0.00  0.00    -0.302 N 
ATOM     10  C   UNL     1      -3.185   4.493  24.808  0.00  0.00    +0.060 C 
ATOM     14  C   UNL     1      -2.453   3.524  23.871  0.00  0.00    +0.038 C 
ATOM     15  C   UNL     1      -2.710   4.303  26.255  0.00  0.00    +0.038 C 
ATOM     17  C   UNL     1      -0.938   3.664  24.016  0.00  0.00    +0.109 C 
ATOM     18  C   UNL     1      -1.190   4.427  26.352  0.00  0.00    +0.109 C 
ATOM     20  C   UNL     1       0.446   2.574  25.753  0.00  0.00    +0.212 C 
ATOM     21  C   UNL     1       0.809   2.475  27.214  0.00  0.00    +0.109 C 
ENDBRANCH   4  10
ENDBRANCH  19  11
TORSDOF 6
ENDMDL
MODEL 3
REMARK VINA RESULT:       4.5      2.469      7.331
REMARK  Name = 45783272
REMARK  8 active torsions:
REMARK  status: ('A' for Active; 'I' for Inactive)
REMARK    1  A    between atoms: O_3  and  C_29
REMARK    2  A    between atoms: O_3  and  C_30
REMARK    3  A    between atoms: N_4  and  C_10
REMARK    4  A    between atoms: N_9  and  C_28
REMARK    5  A    between atoms: C_11  and  C_19
REMARK    6  A    between atoms: C_20  and  C_21
REMARK    7  A    between atoms: C_22  and  C_23
REMARK    8  A    between atoms: C_28  and  C_29
REMARK                            x       y       z     vdW  Elec       q    Type
REMARK                         _______ _______ _______ _____ _____    ______ ____
ROOT
ATOM      1  O   UNL     1       0.726   3.344  23.537  0.00  0.00    -0.336 OA
ATOM      6  N   UNL     1      -0.572   2.078  24.853  0.00  0.00    -0.190 NA
ATOM      7  N   UNL     1      -0.376   4.139  23.878  0.00  0.00    -0.056 NA
ATOM     19  C   UNL     1       0.532   2.148  24.152  0.00  0.00    +0.245 A 
ATOM     22  C   UNL     1      -1.095   3.323  24.656  0.00  0.00    +0.202 A 
ENDROOT
BRANCH  22  23
ATOM      8  N   UNL     1      -4.765   4.493  26.404  0.00  0.00    -0.240 NA
ATOM      9  N   UNL     1      -5.825   2.611  25.398  0.00  0.00    -0.327 N 
ATOM     23  C   UNL     1      -2.339   3.720  25.248  0.00  0.00    +0.027 A 
ATOM     24  C   UNL     1      -3.487   2.965  25.032  0.00  0.00    +0.055 A 
ATOM     25  C   UNL     1      -2.403   4.861  26.040  0.00  0.00    +0.031 A 
ATOM     26  C   UNL     1      -4.664   3.390  25.628  0.00  0.00    +0.119 A 
ATOM     27  C   UNL     1      -3.628   5.201  26.590  0.00  0.00    +0.113 A 
ATOM     31  H   UNL     1      -6.678   2.931  25.842  0.00  0.00    +0.148 HD
BRANCH   9  28
ATOM     28  C   UNL     1      -5.815   1.434  24.592  0.00  0.00    +0.131 C 
BRANCH  28  29
ATOM     29  C   UNL     1      -4.468   0.739  24.706  0.00  0.00    +0.178 C 
BRANCH  29   3
ATOM      3  O   UNL     1      -4.132   0.150  23.457  0.00  0.00    -0.381 OA
ATOM     30  C   UNL     1      -3.007   0.785  22.866  0.00  0.00    +0.194 C 
ENDBRANCH  29   3
ENDBRANCH  28  29
ENDBRANCH   9  28
ENDBRANCH  22  23
BRANCH  19  11
ATOM      4  N   UNL     1       1.127  -0.036  23.118  0.00  0.00    -0.288 NA
ATOM     11  C   UNL     1       1.601   1.097  23.938  0.00  0.00    +0.146 C 
ATOM     12  C   UNL     1       2.300  -0.558  22.417  0.00  0.00    +0.085 C 
ATOM     13  C   UNL     1       2.827   1.641  23.182  0.00  0.00    +0.030 C 
ATOM     16  C   UNL     1       3.001   0.715  21.987  0.00  0.00    +0.017 C 
BRANCH   4  10
ATOM      2  O   UNL     1      -4.105  -2.967  24.477  0.00  0.00    -0.276 OA
ATOM      5  N   UNL     1      -1.978  -2.196  25.004  0.00  0.00    -0.302 N 
ATOM     10  C   UNL     1       0.449  -1.068  23.899  0.00  0.00    +0.060 C 
ATOM     14  C   UNL     1      -0.565  -1.812  23.020  0.00  0.00    +0.038 C 
ATOM     15  C   UNL     1      -0.251  -0.438  25.110  0.00  0.00    +0.038 C 
ATOM     17  C   UNL     1      -1.354  -2.831  23.841  0.00  0.00    +0.109 C 
ATOM     18  C   UNL     1      -1.047  -1.484  25.889  0.00  0.00    +0.109 C 
ATOM     20  C   UNL     1      -3.349  -2.332  25.217  0.00  0.00    +0.212 C 
ATOM     21  C   UNL     1      -3.915  -1.647  26.435  0.00  0.00    +0.109 C 
ENDBRANCH   4  10
ENDBRANCH  19  11
TORSDOF 6
ENDMDL
MODEL 4
REMARK VINA RESULT:       4.6      1.013      1.253
REMARK  Name = 45783272
REMARK  8 active torsions:
REMARK  status: ('A' for Active; 'I' for Inactive)
REMARK    1  A    between atoms: O_3  and  C_29
REMARK    2  A    between atoms: O_3  and  C_30
REMARK    3  A    between atoms: N_4  and  C_10
REMARK    4  A    between atoms: N_9  and  C_28
REMARK    5  A    between atoms: C_11  and  C_19
REMARK    6  A    between atoms: C_20  and  C_21
REMARK    7  A    between atoms: C_22  and  C_23
REMARK    8  A    between atoms: C_28  and  C_29
REMARK                            x       y       z     vdW  Elec       q    Type
REMARK                         _______ _______ _______ _____ _____    ______ ____
ROOT
ATOM      1  O   UNL     1      -0.513  -1.728  25.525  0.00  0.00    -0.336 OA
ATOM      6  N   UNL     1      -0.830  -0.514  23.670  0.00  0.00    -0.190 NA
ATOM      7  N   UNL     1       0.751  -1.569  24.945  0.00  0.00    -0.056 NA
ATOM     19  C   UNL     1      -1.386  -1.077  24.713  0.00  0.00    +0.245 A 
ATOM     22  C   UNL     1       0.482  -0.842  23.856  0.00  0.00    +0.202 A 
ENDROOT
BRANCH  22  23
ATOM      8  N   UNL     1       3.484   0.372  21.134  0.00  0.00    -0.240 NA
ATOM      9  N   UNL     1       4.937   0.831  22.966  0.00  0.00    -0.327 N 
ATOM     23  C   UNL     1       1.499  -0.429  22.933  0.00  0.00    +0.027 A 
ATOM     24  C   UNL     1       2.734   0.004  23.403  0.00  0.00    +0.055 A 
ATOM     25  C   UNL     1       1.256  -0.462  21.565  0.00  0.00    +0.031 A 
ATOM     26  C   UNL     1       3.684   0.390  22.471  0.00  0.00    +0.119 A 
ATOM     27  C   UNL     1       2.272  -0.054  20.715  0.00  0.00    +0.113 A 
ATOM     31  H   UNL     1       5.623   1.107  22.274  0.00  0.00    +0.148 HD
BRANCH   9  28
ATOM     28  C   UNL     1       5.238   0.886  24.359  0.00  0.00    +0.131 C 
BRANCH  28  29
ATOM     29  C   UNL     1       5.771  -0.458  24.828  0.00  0.00    +0.178 C 
BRANCH  29   3
ATOM      3  O   UNL     1       5.716  -1.391  23.757  0.00  0.00    -0.381 OA
ATOM     30  C   UNL     1       4.695  -2.357  23.959  0.00  0.00    +0.194 C 
ENDBRANCH  29   3
ENDBRANCH  28  29
ENDBRANCH   9  28
ENDBRANCH  22  23
BRANCH  19  11
ATOM      4  N   UNL     1      -3.649  -0.083  24.427  0.00  0.00    -0.288 NA
ATOM     11  C   UNL     1      -2.842  -1.101  25.128  0.00  0.00    +0.146 C 
ATOM     12  C   UNL     1      -5.007  -0.620  24.339  0.00  0.00    +0.085 C 
ATOM     13  C   UNL     1      -3.532  -2.438  24.802  0.00  0.00    +0.030 C 
ATOM     16  C   UNL     1      -4.749  -2.065  23.966  0.00  0.00    +0.017 C 
BRANCH   4  10
ATOM      2  O   UNL     1      -2.821   5.989  23.918  0.00  0.00    -0.276 OA
ATOM      5  N   UNL     1      -2.781   3.997  25.111  0.00  0.00    -0.302 N 
ATOM     10  C   UNL     1      -3.617   1.226  25.079  0.00  0.00    +0.060 C 
ATOM     14  C   UNL     1      -4.282   2.277  24.181  0.00  0.00    +0.038 C 
ATOM     15  C   UNL     1      -2.168   1.624  25.389  0.00  0.00    +0.038 C 
ATOM     17  C   UNL     1      -4.174   3.670  24.800  0.00  0.00    +0.109 C 
ATOM     18  C   UNL     1      -2.102   3.030  25.984  0.00  0.00    +0.109 C 
ATOM     20  C   UNL     1      -2.217   5.174  24.620  0.00  0.00    +0.212 C 
ATOM     21  C   UNL     1      -0.778   5.438  24.983  0.00  0.00    +0.109 C 
ENDBRANCH   4  10
ENDBRANCH  19  11
TORSDOF 6
ENDMDL
MODEL 5
REMARK VINA RESULT:       4.8      1.858      7.096
REMARK  Name = 45783272
REMARK  8 active torsions:
REMARK  status: ('A' for Active; 'I' for Inactive)
REMARK    1  A    between atoms: O_3  and  C_29
REMARK    2  A    between atoms: O_3  and  C_30
REMARK    3  A    between atoms: N_4  and  C_10
REMARK    4  A    between atoms: N_9  and  C_28
REMARK    5  A    between atoms: C_11  and  C_19
REMARK    6  A    between atoms: C_20  and  C_21
REMARK    7  A    between atoms: C_22  and  C_23
REMARK    8  A    between atoms: C_28  and  C_29
REMARK                            x       y       z     vdW  Elec       q    Type
REMARK                         _______ _______ _______ _____ _____    ______ ____
ROOT
ATOM      1  O   UNL     1      -4.392  -1.395  23.979  0.00  0.00    -0.336 OA
ATOM      6  N   UNL     1      -3.143   0.329  24.675  0.00  0.00    -0.190 NA
ATOM      7  N   UNL     1      -5.287  -0.356  24.262  0.00  0.00    -0.056 NA
ATOM     19  C   UNL     1      -3.153  -0.909  24.249  0.00  0.00    +0.245 A 
ATOM     22  C   UNL     1      -4.475   0.627  24.666  0.00  0.00    +0.202 A 
ENDROOT
BRANCH  22  23
ATOM      8  N   UNL     1      -5.912   4.425  25.850  0.00  0.00    -0.240 NA
ATOM      9  N   UNL     1      -3.667   5.160  26.161  0.00  0.00    -0.327 N 
ATOM     23  C   UNL     1      -4.962   1.914  25.068  0.00  0.00    +0.027 A 
ATOM     24  C   UNL     1      -4.069   2.919  25.422  0.00  0.00    +0.055 A 
ATOM     25  C   UNL     1      -6.330   2.163  25.105  0.00  0.00    +0.031 A 
ATOM     26  C   UNL     1      -4.590   4.145  25.802  0.00  0.00    +0.119 A 
ATOM     27  C   UNL     1      -6.749   3.423  25.500  0.00  0.00    +0.113 A 
ATOM     31  H   UNL     1      -4.061   6.052  26.434  0.00  0.00    +0.148 HD
BRANCH   9  28
ATOM     28  C   UNL     1      -2.255   4.956  26.142  0.00  0.00    +0.131 C 
BRANCH  28  29
ATOM     29  C   UNL     1      -1.638   5.709  24.975  0.00  0.00    +0.178 C 
BRANCH  29   3
ATOM      3  O   UNL     1      -0.499   5.001  24.503  0.00  0.00    -0.381 OA
ATOM     30  C   UNL     1      -0.605   3.609  24.762  0.00  0.00    +0.194 C 
ENDBRANCH  29   3
ENDBRANCH  28  29
ENDBRANCH   9  28
ENDBRANCH  22  23
BRANCH  19  11
ATOM      4  N   UNL     1      -0.729  -1.352  24.598  0.00  0.00    -0.288 NA
ATOM     11  C   UNL     1      -1.992  -1.854  24.021  0.00  0.00    +0.146 C 
ATOM     12  C   UNL     1       0.063  -2.531  24.949  0.00  0.00    +0.085 C 
ATOM     13  C   UNL     1      -2.204  -3.228  24.683  0.00  0.00    +0.030 C 
ATOM     16  C   UNL     1      -0.982  -3.438  25.565  0.00  0.00    +0.017 C 
BRANCH   4  10
ATOM      2  O   UNL     1       4.483  -0.025  21.616  0.00  0.00    -0.276 OA
ATOM      5  N   UNL     1       2.488   0.573  22.645  0.00  0.00    -0.302 N 
ATOM     10  C   UNL     1      -0.005  -0.451  23.702  0.00  0.00    +0.060 C 
ATOM     14  C   UNL     1       0.843  -1.262  22.713  0.00  0.00    +0.038 C 
ATOM     15  C   UNL     1       0.883   0.499  24.517  0.00  0.00    +0.038 C 
ATOM     17  C   UNL     1       1.682  -0.339  21.831  0.00  0.00    +0.109 C 
ATOM     18  C   UNL     1       1.722   1.386  23.598  0.00  0.00    +0.109 C 
ATOM     20  C   UNL     1       3.867   0.644  22.450  0.00  0.00    +0.212 C 
ATOM     21  C   UNL     1       4.626   1.605  23.329  0.00  0.00    +0.109 C 
ENDBRANCH   4  10
ENDBRANCH  19  11
TORSDOF 6
ENDMDL
MODEL 6
REMARK VINA RESULT:       5.6      1.563      4.133
REMARK  Name = 45783272
REMARK  8 active torsions:
REMARK  status: ('A' for Active; 'I' for Inactive)
REMARK    1  A    between atoms: O_3  and  C_29
REMARK    2  A    between atoms: O_3  and  C_30
REMARK    3  A    between atoms: N_4  and  C_10
REMARK    4  A    between atoms: N_9  and  C_28
REMARK    5  A    between atoms: C_11  and  C_19
REMARK    6  A    between atoms: C_20  and  C_21
REMARK    7  A    between atoms: C_22  and  C_23
REMARK    8  A    between atoms: C_28  and  C_29
REMARK                            x       y       z     vdW  Elec       q    Type
REMARK                         _______ _______ _______ _____ _____    ______ ____
ROOT
ATOM      1  O   UNL     1      -0.660   2.743  25.247  0.00  0.00    -0.336 OA
ATOM      6  N   UNL     1      -1.131   1.636  23.358  0.00  0.00    -0.190 NA
ATOM      7  N   UNL     1       0.549   2.187  24.810  0.00  0.00    -0.056 NA
ATOM     19  C   UNL     1      -1.597   2.370  24.337  0.00  0.00    +0.245 A 
ATOM     22  C   UNL     1       0.189   1.551  23.691  0.00  0.00    +0.202 A 
ENDROOT
BRANCH  22  23
ATOM      8  N   UNL     1       2.946  -0.606  21.316  0.00  0.00    -0.240 NA
ATOM      9  N   UNL     1       4.740   0.341  22.564  0.00  0.00    -0.327 N 
ATOM     23  C   UNL     1       1.124   0.820  22.885  0.00  0.00    +0.027 A 
ATOM     24  C   UNL     1       2.489   0.938  23.120  0.00  0.00    +0.055 A 
ATOM     25  C   UNL     1       0.668  -0.009  21.866  0.00  0.00    +0.031 A 
ATOM     26  C   UNL     1       3.351   0.210  22.314  0.00  0.00    +0.119 A 
ATOM     27  C   UNL     1       1.611  -0.694  21.117  0.00  0.00    +0.113 A 
ATOM     31  H   UNL     1       5.358  -0.198  21.971  0.00  0.00    +0.148 HD
BRANCH   9  28
ATOM     28  C   UNL     1       5.260   1.180  23.595  0.00  0.00    +0.131 C 
BRANCH  28  29
ATOM     29  C   UNL     1       5.541   0.357  24.841  0.00  0.00    +0.178 C 
BRANCH  29   3
ATOM      3  O   UNL     1       5.981  -0.941  24.464  0.00  0.00    -0.381 OA
ATOM     30  C   UNL     1       4.887  -1.798  24.168  0.00  0.00    +0.194 C 
ENDBRANCH  29   3
ENDBRANCH  28  29
ENDBRANCH   9  28
ENDBRANCH  22  23
BRANCH  19  11
ATOM      4  N   UNL     1      -3.531   2.429  25.902  0.00  0.00    -0.288 NA
ATOM     11  C   UNL     1      -3.011   2.852  24.587  0.00  0.00    +0.146 C 
ATOM     12  C   UNL     1      -4.490   3.452  26.317  0.00  0.00    +0.085 C 
ATOM     13  C   UNL     1      -3.123   4.388  24.598  0.00  0.00    +0.030 C 
ATOM     16  C   UNL     1      -3.772   4.729  25.932  0.00  0.00    +0.017 C 
BRANCH   4  10
ATOM      2  O   UNL     1      -2.993  -3.510  24.400  0.00  0.00    -0.276 OA
ATOM      5  N   UNL     1      -4.238  -1.592  24.809  0.00  0.00    -0.302 N 
ATOM     10  C   UNL     1      -4.125   1.094  25.884  0.00  0.00    +0.060 C 
ATOM     14  C   UNL     1      -3.067   0.041  26.236  0.00  0.00    +0.038 C 
ATOM     15  C   UNL     1      -4.729   0.806  24.502  0.00  0.00    +0.038 C 
ATOM     17  C   UNL     1      -3.643  -1.370  26.128  0.00  0.00    +0.109 C 
ATOM     18  C   UNL     1      -5.272  -0.621  24.428  0.00  0.00    +0.109 C 
ATOM     20  C   UNL     1      -3.839  -2.686  24.042  0.00  0.00    +0.212 C 
ATOM     21  C   UNL     1      -4.497  -2.844  22.695  0.00  0.00    +0.109 C 
ENDBRANCH   4  10
ENDBRANCH  19  11
TORSDOF 6
ENDMDL
MODEL 7
REMARK VINA RESULT:       6.2      2.541      6.274
REMARK  Name = 45783272
REMARK  8 active torsions:
REMARK  status: ('A' for Active; 'I' for Inactive)
REMARK    1  A    between atoms: O_3  and  C_29
REMARK    2  A    between atoms: O_3  and  C_30
REMARK    3  A    between atoms: N_4  and  C_10
REMARK    4  A    between atoms: N_9  and  C_28
REMARK    5  A    between atoms: C_11  and  C_19
REMARK    6  A    between atoms: C_20  and  C_21
REMARK    7  A    between atoms: C_22  and  C_23
REMARK    8  A    between atoms: C_28  and  C_29
REMARK                            x       y       z     vdW  Elec       q    Type
REMARK                         _______ _______ _______ _____ _____    ______ ____
ROOT
ATOM      1  O   UNL     1      -5.724  -0.233  24.295  0.00  0.00    -0.336 OA
ATOM      6  N   UNL     1      -3.737   0.793  24.427  0.00  0.00    -0.190 NA
ATOM      7  N   UNL     1      -5.992   1.083  24.692  0.00  0.00    -0.056 NA
ATOM     19  C   UNL     1      -4.375  -0.319  24.162  0.00  0.00    +0.245 A 
ATOM     22  C   UNL     1      -4.771   1.625  24.747  0.00  0.00    +0.202 A 
ENDROOT
BRANCH  22  23
ATOM      8  N   UNL     1      -4.117   5.658  25.842  0.00  0.00    -0.240 NA
ATOM      9  N   UNL     1      -1.792   5.386  25.398  0.00  0.00    -0.327 N 
ATOM     23  C   UNL     1      -4.549   2.992  25.119  0.00  0.00    +0.027 A 
ATOM     24  C   UNL     1      -3.267   3.528  25.077  0.00  0.00    +0.055 A 
ATOM     25  C   UNL     1      -5.616   3.787  25.522  0.00  0.00    +0.031 A 
ATOM     26  C   UNL     1      -3.105   4.854  25.445  0.00  0.00    +0.119 A 
ATOM     27  C   UNL     1      -5.349   5.102  25.871  0.00  0.00    +0.113 A 
ATOM     31  H   UNL     1      -1.689   6.357  25.667  0.00  0.00    +0.148 HD
BRANCH   9  28
ATOM     28  C   UNL     1      -0.663   4.613  24.994  0.00  0.00    +0.131 C 
BRANCH  28  29
ATOM     29  C   UNL     1      -0.641   3.294  25.749  0.00  0.00    +0.178 C 
BRANCH  29   3
ATOM      3  O   UNL     1       0.655   3.079  26.291  0.00  0.00    -0.381 OA
ATOM     30  C   UNL     1       0.590   2.483  27.579  0.00  0.00    +0.194 C 
ENDBRANCH  29   3
ENDBRANCH  28  29
ENDBRANCH   9  28
ENDBRANCH  22  23
BRANCH  19  11
ATOM      4  N   UNL     1      -3.149  -2.377  24.836  0.00  0.00    -0.288 NA
ATOM     11  C   UNL     1      -3.824  -1.663  23.734  0.00  0.00    +0.146 C 
ATOM     12  C   UNL     1      -3.302  -3.805  24.560  0.00  0.00    +0.085 C 
ATOM     13  C   UNL     1      -4.921  -2.632  23.256  0.00  0.00    +0.030 C 
ATOM     16  C   UNL     1      -4.745  -3.883  24.105  0.00  0.00    +0.017 C 
BRANCH   4  10
ATOM      2  O   UNL     1       1.321   1.690  23.700  0.00  0.00    -0.276 OA
ATOM      5  N   UNL     1       0.552  -0.457  24.141  0.00  0.00    -0.302 N 
ATOM     10  C   UNL     1      -1.747  -1.996  24.995  0.00  0.00    +0.060 C 
ATOM     14  C   UNL     1      -1.638  -0.491  25.272  0.00  0.00    +0.038 C 
ATOM     15  C   UNL     1      -0.954  -2.369  23.736  0.00  0.00    +0.038 C 
ATOM     17  C   UNL     1      -0.176  -0.054  25.346  0.00  0.00    +0.109 C 
ATOM     18  C   UNL     1       0.495  -1.894  23.839  0.00  0.00    +0.109 C 
ATOM     20  C   UNL     1       1.259   0.493  23.406  0.00  0.00    +0.212 C 
ATOM     21  C   UNL     1       1.981  -0.001  22.177  0.00  0.00    +0.109 C 
ENDBRANCH   4  10
ENDBRANCH  19  11
TORSDOF 6
ENDMDL
MODEL 8
REMARK VINA RESULT:       7.0      3.479      6.315
REMARK  Name = 45783272
REMARK  8 active torsions:
REMARK  status: ('A' for Active; 'I' for Inactive)
REMARK    1  A    between atoms: O_3  and  C_29
REMARK    2  A    between atoms: O_3  and  C_30
REMARK    3  A    between atoms: N_4  and  C_10
REMARK    4  A    between atoms: N_9  and  C_28
REMARK    5  A    between atoms: C_11  and  C_19
REMARK    6  A    between atoms: C_20  and  C_21
REMARK    7  A    between atoms: C_22  and  C_23
REMARK    8  A    between atoms: C_28  and  C_29
REMARK                            x       y       z     vdW  Elec       q    Type
REMARK                         _______ _______ _______ _____ _____    ______ ____
ROOT
ATOM      1  O   UNL     1      -0.008   2.536  25.858  0.00  0.00    -0.336 OA
ATOM      6  N   UNL     1      -1.245   1.412  24.367  0.00  0.00    -0.190 NA
ATOM      7  N   UNL     1       0.145   1.179  26.170  0.00  0.00    -0.056 NA
ATOM     19  C   UNL     1      -0.840   2.585  24.785  0.00  0.00    +0.245 A 
ATOM     22  C   UNL     1      -0.614   0.581  25.246  0.00  0.00    +0.202 A 
ENDROOT
BRANCH  22  23
ATOM      8  N   UNL     1      -1.057  -3.621  25.037  0.00  0.00    -0.240 NA
ATOM      9  N   UNL     1      -3.339  -3.334  24.416  0.00  0.00    -0.327 N 
ATOM     23  C   UNL     1      -0.764  -0.844  25.176  0.00  0.00    +0.027 A 
ATOM     24  C   UNL     1      -1.990  -1.400  24.827  0.00  0.00    +0.055 A 
ATOM     25  C   UNL     1       0.315  -1.674  25.456  0.00  0.00    +0.031 A 
ATOM     26  C   UNL     1      -2.083  -2.781  24.772  0.00  0.00    +0.119 A 
ATOM     27  C   UNL     1       0.119  -3.043  25.373  0.00  0.00    +0.113 A 
ATOM     31  H   UNL     1      -3.392  -4.345  24.377  0.00  0.00    +0.148 HD
BRANCH   9  28
ATOM     28  C   UNL     1      -4.478  -2.527  24.122  0.00  0.00    +0.131 C 
BRANCH  28  29
ATOM     29  C   UNL     1      -4.068  -1.344  23.260  0.00  0.00    +0.178 C 
BRANCH  29   3
ATOM      3  O   UNL     1      -4.325  -0.135  23.961  0.00  0.00    -0.381 OA
ATOM     30  C   UNL     1      -3.749   0.983  23.300  0.00  0.00    +0.194 C 
ENDBRANCH  29   3
ENDBRANCH  28  29
ENDBRANCH   9  28
ENDBRANCH  22  23
BRANCH  19  11
ATOM      4  N   UNL     1      -1.618   4.891  25.302  0.00  0.00    -0.288 NA
ATOM     11  C   UNL     1      -1.168   3.962  24.247  0.00  0.00    +0.146 C 
ATOM     12  C   UNL     1      -1.228   6.232  24.866  0.00  0.00    +0.085 C 
ATOM     13  C   UNL     1       0.049   4.656  23.608  0.00  0.00    +0.030 C 
ATOM     16  C   UNL     1       0.167   5.993  24.326  0.00  0.00    +0.017 C 
BRANCH   4  10
ATOM      2  O   UNL     1      -6.421   1.384  26.864  0.00  0.00    -0.276 OA
ATOM      5  N   UNL     1      -5.468   3.222  25.812  0.00  0.00    -0.302 N 
ATOM     10  C   UNL     1      -3.051   4.799  25.578  0.00  0.00    +0.060 C 
ATOM     14  C   UNL     1      -3.296   3.876  26.779  0.00  0.00    +0.038 C 
ATOM     15  C   UNL     1      -3.792   4.277  24.340  0.00  0.00    +0.038 C 
ATOM     17  C   UNL     1      -4.793   3.688  27.025  0.00  0.00    +0.109 C 
ATOM     18  C   UNL     1      -5.279   4.080  24.635  0.00  0.00    +0.109 C 
ATOM     20  C   UNL     1      -6.249   2.068  25.852  0.00  0.00    +0.212 C 
ATOM     21  C   UNL     1      -6.909   1.654  24.561  0.00  0.00    +0.109 C 
ENDBRANCH   4  10
ENDBRANCH  19  11
TORSDOF 6
ENDMDL
MODEL 9
REMARK VINA RESULT:       7.6      2.125      3.348
REMARK  Name = 45783272
REMARK  8 active torsions:
REMARK  status: ('A' for Active; 'I' for Inactive)
REMARK    1  A    between atoms: O_3  and  C_29
REMARK    2  A    between atoms: O_3  and  C_30
REMARK    3  A    between atoms: N_4  and  C_10
REMARK    4  A    between atoms: N_9  and  C_28
REMARK    5  A    between atoms: C_11  and  C_19
REMARK    6  A    between atoms: C_20  and  C_21
REMARK    7  A    between atoms: C_22  and  C_23
REMARK    8  A    between atoms: C_28  and  C_29
REMARK                            x       y       z     vdW  Elec       q    Type
REMARK                         _______ _______ _______ _____ _____    ______ ____
ROOT
ATOM      1  O   UNL     1      -0.971  -2.711  25.032  0.00  0.00    -0.336 OA
ATOM      6  N   UNL     1      -1.398  -0.697  24.148  0.00  0.00    -0.190 NA
ATOM      7  N   UNL     1       0.275  -2.138  24.750  0.00  0.00    -0.056 NA
ATOM     19  C   UNL     1      -1.901  -1.797  24.648  0.00  0.00    +0.245 A 
ATOM     22  C   UNL     1      -0.060  -0.952  24.232  0.00  0.00    +0.202 A 
ENDROOT
BRANCH  22  23
ATOM      8  N   UNL     1       2.823   1.852  22.921  0.00  0.00    -0.240 NA
ATOM      9  N   UNL     1       1.245   3.606  23.253  0.00  0.00    -0.327 N 
ATOM     23  C   UNL     1       0.917  -0.001  23.786  0.00  0.00    +0.027 A 
ATOM     24  C   UNL     1       0.602   1.352  23.736  0.00  0.00    +0.055 A 
ATOM     25  C   UNL     1       2.184  -0.429  23.404  0.00  0.00    +0.031 A 
ATOM     26  C   UNL     1       1.581   2.230  23.300  0.00  0.00    +0.119 A 
ATOM     27  C   UNL     1       3.092   0.529  22.982  0.00  0.00    +0.113 A 
ATOM     31  H   UNL     1       1.971   4.238  22.936  0.00  0.00    +0.148 HD
BRANCH   9  28
ATOM     28  C   UNL     1      -0.040   4.097  23.632  0.00  0.00    +0.131 C 
BRANCH  28  29
ATOM     29  C   UNL     1      -0.078   4.347  25.131  0.00  0.00    +0.178 C 
BRANCH  29   3
ATOM      3  O   UNL     1      -0.848   3.332  25.762  0.00  0.00    -0.381 OA
ATOM     30  C   UNL     1      -0.061   2.564  26.661  0.00  0.00    +0.194 C 
ENDBRANCH  29   3
ENDBRANCH  28  29
ENDBRANCH   9  28
ENDBRANCH  22  23
BRANCH  19  11
ATOM      4  N   UNL     1      -4.288  -1.186  24.298  0.00  0.00    -0.288 NA
ATOM     11  C   UNL     1      -3.351  -2.183  24.853  0.00  0.00    +0.146 C 
ATOM     12  C   UNL     1      -5.494  -1.919  23.914  0.00  0.00    +0.085 C 
ATOM     13  C   UNL     1      -3.722  -3.501  24.149  0.00  0.00    +0.030 C 
ATOM     16  C   UNL     1      -4.914  -3.159  23.265  0.00  0.00    +0.017 C 
BRANCH   4  10
ATOM      2  O   UNL     1      -6.225   4.593  25.113  0.00  0.00    -0.276 OA
ATOM      5  N   UNL     1      -4.988   2.728  25.733  0.00  0.00    -0.302 N 
ATOM     10  C   UNL     1      -4.581  -0.093  25.223  0.00  0.00    +0.060 C 
ATOM     14  C   UNL     1      -5.870   0.623  24.801  0.00  0.00    +0.038 C 
ATOM     15  C   UNL     1      -3.407   0.894  25.261  0.00  0.00    +0.038 C 
ATOM     17  C   UNL     1      -6.143   1.829  25.698  0.00  0.00    +0.109 C 
ATOM     18  C   UNL     1      -3.729   2.095  26.149  0.00  0.00    +0.109 C 
ATOM     20  C   UNL     1      -5.148   4.078  25.425  0.00  0.00    +0.212 C 
ATOM     21  C   UNL     1      -3.910   4.937  25.482  0.00  0.00    +0.109 C 
ENDBRANCH   4  10
ENDBRANCH  19  11
TORSDOF 6
ENDMDL
