MODEL 1
REMARK VINA RESULT:       7.9      0.000      0.000
REMARK  Name = 11885141
REMARK  2 active torsions:
REMARK  status: ('A' for Active; 'I' for Inactive)
REMARK    1  A    between atoms: C_15  and  C_18
REMARK    2  A    between atoms: C_16  and  C_19
REMARK                            x       y       z     vdW  Elec       q    Type
REMARK                         _______ _______ _______ _____ _____    ______ ____
ROOT
ATOM      2  O   UNL     1       0.293   2.352  25.455  0.00  0.00    -0.267 OA
ATOM      3  O   UNL     1      -3.391  -0.700  27.076  0.00  0.00    -0.269 OA
ATOM      4  N   UNL     1      -4.334   0.556  25.371  0.00  0.00    -0.296 N 
ATOM      5  N   UNL     1      -1.814   2.218  24.462  0.00  0.00    -0.311 N 
ATOM      6  C   UNL     1      -3.947   2.997  25.648  0.00  0.00    +0.027 C 
ATOM      7  C   UNL     1      -4.083   2.028  23.388  0.00  0.00    +0.054 C 
ATOM      8  C   UNL     1      -4.476   3.236  24.237  0.00  0.00    +0.018 C 
ATOM      9  C   UNL     1      -2.416   2.935  25.596  0.00  0.00    +0.130 C 
ATOM     10  C   UNL     1      -4.560   1.713  26.239  0.00  0.00    +0.113 C 
ATOM     11  C   UNL     1      -4.735   0.755  23.968  0.00  0.00    +0.117 C 
ATOM     12  C   UNL     1      -2.578   1.854  23.350  0.00  0.00    +0.027 A 
ATOM     13  C   UNL     1      -1.986   1.310  22.274  0.00  0.00    +0.022 A 
ATOM     14  C   UNL     1      -0.421   2.014  24.508  0.00  0.00    +0.259 A 
ATOM     15  C   UNL     1      -3.703  -0.591  25.890  0.00  0.00    +0.253 C 
ATOM     16  C   UNL     1       0.205   1.360  23.307  0.00  0.00    +0.047 A 
ATOM     17  C   UNL     1      -0.574   1.057  22.258  0.00  0.00    +0.015 A 
ENDROOT
BRANCH  16  19
ATOM     19  C   UNL     1       1.643   1.038  23.276  0.00  0.00    -0.012 A 
ATOM     20  C   UNL     1       2.079  -0.244  23.608  0.00  0.00    +0.017 A 
ATOM     22  C   UNL     1       2.566   2.015  22.915  0.00  0.00    +0.009 A 
ATOM     23  C   UNL     1       3.446  -0.567  23.584  0.00  0.00    -0.017 A 
ATOM     24  C   UNL     1       3.928   1.713  22.884  0.00  0.00    +0.009 A 
ATOM     25  C   UNL     1       4.384   0.427  23.216  0.00  0.00    -0.018 A 
ATOM     28  C   UNL     1       3.902  -1.853  23.916  0.00  0.00    +0.008 A 
ATOM     29  C   UNL     1       5.751   0.104  23.192  0.00  0.00    +0.008 A 
ATOM     30  C   UNL     1       5.263  -2.156  23.885  0.00  0.00    +0.001 A 
ATOM     31  C   UNL     1       6.186  -1.179  23.524  0.00  0.00    +0.001 A 
ENDBRANCH  16  19
BRANCH  15  18
ATOM      1  S   UNL     1      -1.757  -2.042  24.639  0.00  0.00    -0.092 S 
ATOM     18  C   UNL     1      -3.394  -1.661  24.951  0.00  0.00    +0.074 A 
ATOM     21  C   UNL     1      -4.262  -2.455  24.241  0.00  0.00    +0.021 A 
ATOM     26  C   UNL     1      -3.571  -3.394  23.423  0.00  0.00    +0.008 A 
ATOM     27  C   UNL     1      -2.204  -3.280  23.543  0.00  0.00    +0.046 A 
ENDBRANCH  15  18
TORSDOF 2
ENDMDL
