MODEL 1
REMARK VINA RESULT:       2.9      0.000      0.000
REMARK  Name = 40776831
REMARK  10 active torsions:
REMARK  status: ('A' for Active; 'I' for Inactive)
REMARK    1  A    between atoms: O_2  and  C_29
REMARK    2  A    between atoms: O_2  and  C_32
REMARK    3  A    between atoms: O_3  and  C_31
REMARK    4  A    between atoms: O_3  and  C_33
REMARK    5  A    between atoms: N_5  and  C_15
REMARK    6  A    between atoms: C_9  and  C_16
REMARK    7  A    between atoms: C_10  and  C_15
REMARK    8  A    between atoms: C_17  and  C_19
REMARK    9  A    between atoms: C_23  and  C_25
REMARK   10  A    between atoms: C_24  and  C_26
REMARK                            x       y       z     vdW  Elec       q    Type
REMARK                         _______ _______ _______ _____ _____    ______ ____
ROOT
ATOM      4  N   UNL     1      -4.729   3.272  26.016  0.00  0.00    -0.297 NA
ATOM      8  C   UNL     1      -5.282   1.591  24.105  0.00  0.00    +0.002 C 
ATOM      9  C   UNL     1      -4.482   0.886  25.236  0.00  0.00    +0.055 C 
ATOM     10  C   UNL     1      -4.344   3.852  24.702  0.00  0.00    +0.074 C 
ATOM     11  C   UNL     1      -4.471   2.796  23.582  0.00  0.00    +0.024 C 
ATOM     12  C   UNL     1      -6.566   2.154  24.752  0.00  0.00    +0.019 C 
ATOM     13  C   UNL     1      -4.019   1.987  26.232  0.00  0.00    +0.094 C 
ATOM     14  C   UNL     1      -6.185   2.996  25.982  0.00  0.00    +0.085 C 
ENDROOT
BRANCH   9  16
ATOM      6  N   UNL     1      -3.618  -1.371  24.858  0.00  0.00    -0.237 NA
ATOM      7  N   UNL     1      -1.353  -1.775  24.139  0.00  0.00    -0.232 NA
ATOM     16  C   UNL     1      -3.348  -0.049  24.839  0.00  0.00    +0.050 A 
ATOM     18  C   UNL     1      -2.123   0.478  24.487  0.00  0.00    +0.052 A 
ATOM     23  C   UNL     1      -1.153  -0.441  24.143  0.00  0.00    +0.075 A 
ATOM     24  C   UNL     1      -2.590  -2.165  24.502  0.00  0.00    +0.127 A 
ATOM     26  C   UNL     1      -2.850  -3.634  24.511  0.00  0.00    +0.088 C 
BRANCH  23  25
ATOM     25  C   UNL     1       0.171  -0.018  23.757  0.00  0.00    +0.004 A 
ATOM     27  C   UNL     1       1.165  -0.968  23.517  0.00  0.00    +0.059 A 
ATOM     28  C   UNL     1       0.460   1.340  23.624  0.00  0.00    +0.014 A 
ATOM     29  C   UNL     1       2.444  -0.560  23.143  0.00  0.00    +0.162 A 
ATOM     30  C   UNL     1       1.740   1.748  23.251  0.00  0.00    +0.050 A 
ATOM     31  C   UNL     1       2.733   0.798  23.009  0.00  0.00    +0.162 A 
BRANCH  29   2
ATOM      2  O   UNL     1       3.405  -1.498  22.908  0.00  0.00    -0.491 OA
ATOM     32  C   UNL     1       4.300  -1.791  23.980  0.00  0.00    +0.277 C 
ENDBRANCH  29   2
BRANCH  31   3
ATOM      3  O   UNL     1       3.979   1.208  22.645  0.00  0.00    -0.491 OA
ATOM     33  C   UNL     1       5.054   0.877  23.523  0.00  0.00    +0.277 C 
ENDBRANCH  31   3
ENDBRANCH  23  25
ENDBRANCH   9  16
BRANCH  10  15
ATOM     15  C   UNL     1      -2.953   4.489  24.731  0.00  0.00    +0.123 C 
BRANCH  15   5
ATOM      1  O   UNL     1      -0.094   4.751  24.754  0.00  0.00    -0.276 OA
ATOM      5  N   UNL     1      -2.019   3.644  25.409  0.00  0.00    -0.314 N 
ATOM     19  C   UNL     1      -0.637   3.833  25.376  0.00  0.00    +0.216 C 
ATOM     34  H   UNL     1      -2.388   2.860  25.940  0.00  0.00    +0.149 HD
BRANCH  19  17
ATOM     17  C   UNL     1       0.154   2.783  26.179  0.00  0.00    +0.075 C 
ATOM     20  C   UNL     1       1.244   3.300  27.142  0.00  0.00    +0.013 C 
ATOM     21  C   UNL     1      -0.535   2.166  27.414  0.00  0.00    +0.013 C 
ATOM     22  C   UNL     1       0.855   2.140  28.082  0.00  0.00    +0.001 C 
ENDBRANCH  19  17
ENDBRANCH  15   5
ENDBRANCH  10  15
TORSDOF 7
ENDMDL
MODEL 2
REMARK VINA RESULT:       3.9      1.884      4.546
REMARK  Name = 40776831
REMARK  10 active torsions:
REMARK  status: ('A' for Active; 'I' for Inactive)
REMARK    1  A    between atoms: O_2  and  C_29
REMARK    2  A    between atoms: O_2  and  C_32
REMARK    3  A    between atoms: O_3  and  C_31
REMARK    4  A    between atoms: O_3  and  C_33
REMARK    5  A    between atoms: N_5  and  C_15
REMARK    6  A    between atoms: C_9  and  C_16
REMARK    7  A    between atoms: C_10  and  C_15
REMARK    8  A    between atoms: C_17  and  C_19
REMARK    9  A    between atoms: C_23  and  C_25
REMARK   10  A    between atoms: C_24  and  C_26
REMARK                            x       y       z     vdW  Elec       q    Type
REMARK                         _______ _______ _______ _____ _____    ______ ____
ROOT
ATOM      4  N   UNL     1      -5.907   1.564  24.045  0.00  0.00    -0.297 NA
ATOM      8  C   UNL     1      -4.630   2.397  26.156  0.00  0.00    +0.002 C 
ATOM      9  C   UNL     1      -4.184   3.196  24.900  0.00  0.00    +0.055 C 
ATOM     10  C   UNL     1      -5.328   0.407  24.777  0.00  0.00    +0.074 C 
ATOM     11  C   UNL     1      -4.397   0.891  25.911  0.00  0.00    +0.024 C 
ATOM     12  C   UNL     1      -6.153   2.605  26.298  0.00  0.00    +0.019 C 
ATOM     13  C   UNL     1      -4.831   2.513  23.662  0.00  0.00    +0.094 C 
ATOM     14  C   UNL     1      -6.837   2.265  24.962  0.00  0.00    +0.085 C 
ENDROOT
BRANCH   9  16
ATOM      6  N   UNL     1      -2.268   4.717  24.928  0.00  0.00    -0.237 NA
ATOM      7  N   UNL     1      -0.041   3.987  24.367  0.00  0.00    -0.232 NA
ATOM     16  C   UNL     1      -2.697   3.457  24.703  0.00  0.00    +0.050 A 
ATOM     18  C   UNL     1      -1.870   2.424  24.313  0.00  0.00    +0.052 A 
ATOM     23  C   UNL     1      -0.538   2.750  24.159  0.00  0.00    +0.075 A 
ATOM     24  C   UNL     1      -0.948   4.908  24.744  0.00  0.00    +0.127 A 
ATOM     26  C   UNL     1      -0.436   6.289  24.981  0.00  0.00    +0.088 C 
BRANCH  23  25
ATOM     25  C   UNL     1       0.429   1.760  23.753  0.00  0.00    +0.004 A 
ATOM     27  C   UNL     1       1.760   2.126  23.552  0.00  0.00    +0.059 A 
ATOM     28  C   UNL     1       0.035   0.436  23.562  0.00  0.00    +0.014 A 
ATOM     29  C   UNL     1       2.696   1.170  23.161  0.00  0.00    +0.162 A 
ATOM     30  C   UNL     1       0.971  -0.521  23.169  0.00  0.00    +0.050 A 
ATOM     31  C   UNL     1       2.302  -0.154  22.970  0.00  0.00    +0.162 A 
BRANCH  29   2
ATOM      2  O   UNL     1       3.994   1.540  22.971  0.00  0.00    -0.491 OA
ATOM     32  C   UNL     1       4.991   0.782  23.655  0.00  0.00    +0.277 C 
ENDBRANCH  29   2
BRANCH  31   3
ATOM      3  O   UNL     1       3.207  -1.098  22.587  0.00  0.00    -0.491 OA
ATOM     33  C   UNL     1       3.902  -1.789  23.624  0.00  0.00    +0.277 C 
ENDBRANCH  31   3
ENDBRANCH  23  25
ENDBRANCH   9  16
BRANCH  10  15
ATOM     15  C   UNL     1      -4.624  -0.581  23.845  0.00  0.00    +0.123 C 
BRANCH  15   5
ATOM      1  O   UNL     1      -3.992  -3.360  24.192  0.00  0.00    -0.276 OA
ATOM      5  N   UNL     1      -3.455  -1.124  24.465  0.00  0.00    -0.314 N 
ATOM     19  C   UNL     1      -3.213  -2.492  24.599  0.00  0.00    +0.216 C 
ATOM     34  H   UNL     1      -2.767  -0.473  24.831  0.00  0.00    +0.149 HD
BRANCH  19  17
ATOM     17  C   UNL     1      -1.888  -2.823  25.312  0.00  0.00    +0.075 C 
ATOM     20  C   UNL     1      -0.643  -3.042  24.427  0.00  0.00    +0.013 C 
ATOM     21  C   UNL     1      -1.122  -1.654  25.965  0.00  0.00    +0.013 C 
ATOM     22  C   UNL     1       0.177  -2.373  25.549  0.00  0.00    +0.001 C 
ENDBRANCH  19  17
ENDBRANCH  15   5
ENDBRANCH  10  15
TORSDOF 7
ENDMDL
MODEL 3
REMARK VINA RESULT:       4.7      1.504      2.070
REMARK  Name = 40776831
REMARK  10 active torsions:
REMARK  status: ('A' for Active; 'I' for Inactive)
REMARK    1  A    between atoms: O_2  and  C_29
REMARK    2  A    between atoms: O_2  and  C_32
REMARK    3  A    between atoms: O_3  and  C_31
REMARK    4  A    between atoms: O_3  and  C_33
REMARK    5  A    between atoms: N_5  and  C_15
REMARK    6  A    between atoms: C_9  and  C_16
REMARK    7  A    between atoms: C_10  and  C_15
REMARK    8  A    between atoms: C_17  and  C_19
REMARK    9  A    between atoms: C_23  and  C_25
REMARK   10  A    between atoms: C_24  and  C_26
REMARK                            x       y       z     vdW  Elec       q    Type
REMARK                         _______ _______ _______ _____ _____    ______ ____
ROOT
ATOM      4  N   UNL     1      -5.862   2.646  26.586  0.00  0.00    -0.297 NA
ATOM      8  C   UNL     1      -5.437   1.876  24.134  0.00  0.00    +0.002 C 
ATOM      9  C   UNL     1      -5.193   0.702  25.124  0.00  0.00    +0.055 C 
ATOM     10  C   UNL     1      -4.959   3.608  25.900  0.00  0.00    +0.074 C 
ATOM     11  C   UNL     1      -4.530   3.064  24.520  0.00  0.00    +0.024 C 
ATOM     12  C   UNL     1      -6.897   2.333  24.338  0.00  0.00    +0.019 C 
ATOM     13  C   UNL     1      -5.267   1.286  26.563  0.00  0.00    +0.094 C 
ATOM     14  C   UNL     1      -7.139   2.605  25.833  0.00  0.00    +0.085 C 
ENDROOT
BRANCH   9  16
ATOM      6  N   UNL     1      -4.122  -1.496  25.099  0.00  0.00    -0.237 NA
ATOM      7  N   UNL     1      -1.790  -1.783  24.560  0.00  0.00    -0.232 NA
ATOM     16  C   UNL     1      -3.962  -0.169  24.917  0.00  0.00    +0.050 A 
ATOM     18  C   UNL     1      -2.765   0.417  24.562  0.00  0.00    +0.052 A 
ATOM     23  C   UNL     1      -1.702  -0.447  24.396  0.00  0.00    +0.075 A 
ATOM     24  C   UNL     1      -3.011  -2.233  24.907  0.00  0.00    +0.127 A 
ATOM     26  C   UNL     1      -3.147  -3.706  25.100  0.00  0.00    +0.088 C 
BRANCH  23  25
ATOM     25  C   UNL     1      -0.395   0.041  24.027  0.00  0.00    +0.004 A 
ATOM     27  C   UNL     1       0.193  -0.374  22.832  0.00  0.00    +0.059 A 
ATOM     28  C   UNL     1       0.280   0.929  24.863  0.00  0.00    +0.014 A 
ATOM     29  C   UNL     1       1.455   0.098  22.475  0.00  0.00    +0.162 A 
ATOM     30  C   UNL     1       1.543   1.401  24.507  0.00  0.00    +0.050 A 
ATOM     31  C   UNL     1       2.131   0.985  23.311  0.00  0.00    +0.162 A 
BRANCH  29   2
ATOM      2  O   UNL     1       2.018  -0.314  21.303  0.00  0.00    -0.491 OA
ATOM     32  C   UNL     1       1.210  -1.114  20.442  0.00  0.00    +0.277 C 
ENDBRANCH  29   2
BRANCH  31   3
ATOM      3  O   UNL     1       3.365   1.453  22.973  0.00  0.00    -0.491 OA
ATOM     33  C   UNL     1       4.475   0.591  23.218  0.00  0.00    +0.277 C 
ENDBRANCH  31   3
ENDBRANCH  23  25
ENDBRANCH   9  16
BRANCH  10  15
ATOM     15  C   UNL     1      -3.754   3.992  26.761  0.00  0.00    +0.123 C 
BRANCH  15   5
ATOM      1  O   UNL     1      -1.184   2.713  26.681  0.00  0.00    -0.276 OA
ATOM      5  N   UNL     1      -2.638   4.357  25.943  0.00  0.00    -0.314 N 
ATOM     19  C   UNL     1      -1.414   3.687  25.957  0.00  0.00    +0.216 C 
ATOM     34  H   UNL     1      -2.746   5.154  25.323  0.00  0.00    +0.149 HD
BRANCH  19  17
ATOM     17  C   UNL     1      -0.369   4.279  24.992  0.00  0.00    +0.075 C 
ATOM     20  C   UNL     1      -0.389   3.779  23.532  0.00  0.00    +0.013 C 
ATOM     21  C   UNL     1      -0.641   5.690  24.431  0.00  0.00    +0.013 C 
ATOM     22  C   UNL     1       0.011   5.211  23.118  0.00  0.00    +0.001 C 
ENDBRANCH  19  17
ENDBRANCH  15   5
ENDBRANCH  10  15
TORSDOF 7
ENDMDL
MODEL 4
REMARK VINA RESULT:       5.2      1.925      4.479
REMARK  Name = 40776831
REMARK  10 active torsions:
REMARK  status: ('A' for Active; 'I' for Inactive)
REMARK    1  A    between atoms: O_2  and  C_29
REMARK    2  A    between atoms: O_2  and  C_32
REMARK    3  A    between atoms: O_3  and  C_31
REMARK    4  A    between atoms: O_3  and  C_33
REMARK    5  A    between atoms: N_5  and  C_15
REMARK    6  A    between atoms: C_9  and  C_16
REMARK    7  A    between atoms: C_10  and  C_15
REMARK    8  A    between atoms: C_17  and  C_19
REMARK    9  A    between atoms: C_23  and  C_25
REMARK   10  A    between atoms: C_24  and  C_26
REMARK                            x       y       z     vdW  Elec       q    Type
REMARK                         _______ _______ _______ _____ _____    ______ ____
ROOT
ATOM      4  N   UNL     1      -5.787   1.263  24.795  0.00  0.00    -0.297 NA
ATOM      8  C   UNL     1      -5.000   3.662  25.436  0.00  0.00    +0.002 C 
ATOM      9  C   UNL     1      -4.164   3.114  24.245  0.00  0.00    +0.055 C 
ATOM     10  C   UNL     1      -5.546   1.345  26.260  0.00  0.00    +0.074 C 
ATOM     11  C   UNL     1      -4.884   2.690  26.629  0.00  0.00    +0.024 C 
ATOM     12  C   UNL     1      -6.476   3.653  24.984  0.00  0.00    +0.019 C 
ATOM     13  C   UNL     1      -4.550   1.620  24.056  0.00  0.00    +0.094 C 
ATOM     14  C   UNL     1      -6.833   2.255  24.450  0.00  0.00    +0.085 C 
ENDROOT
BRANCH   9  16
ATOM      6  N   UNL     1      -2.220   4.556  24.602  0.00  0.00    -0.237 NA
ATOM      7  N   UNL     1       0.038   3.758  24.330  0.00  0.00    -0.232 NA
ATOM     16  C   UNL     1      -2.656   3.323  24.270  0.00  0.00    +0.050 A 
ATOM     18  C   UNL     1      -1.818   2.272  23.958  0.00  0.00    +0.052 A 
ATOM     23  C   UNL     1      -0.467   2.550  24.005  0.00  0.00    +0.075 A 
ATOM     24  C   UNL     1      -0.881   4.701  24.612  0.00  0.00    +0.127 A 
ATOM     26  C   UNL     1      -0.360   6.051  24.974  0.00  0.00    +0.088 C 
BRANCH  23  25
ATOM     25  C   UNL     1       0.513   1.537  23.699  0.00  0.00    +0.004 A 
ATOM     27  C   UNL     1       1.814   1.906  23.357  0.00  0.00    +0.059 A 
ATOM     28  C   UNL     1       0.162   0.188  23.746  0.00  0.00    +0.014 A 
ATOM     29  C   UNL     1       2.763   0.927  23.062  0.00  0.00    +0.162 A 
ATOM     30  C   UNL     1       1.110  -0.791  23.450  0.00  0.00    +0.050 A 
ATOM     31  C   UNL     1       2.411  -0.421  23.109  0.00  0.00    +0.162 A 
BRANCH  29   2
ATOM      2  O   UNL     1       4.031   1.301  22.732  0.00  0.00    -0.491 OA
ATOM     32  C   UNL     1       5.082   0.852  23.586  0.00  0.00    +0.277 C 
ENDBRANCH  29   2
BRANCH  31   3
ATOM      3  O   UNL     1       3.329  -1.386  22.823  0.00  0.00    -0.491 OA
ATOM     33  C   UNL     1       4.194  -1.794  23.882  0.00  0.00    +0.277 C 
ENDBRANCH  31   3
ENDBRANCH  23  25
ENDBRANCH   9  16
BRANCH  10  15
ATOM     15  C   UNL     1      -4.746   0.152  26.787  0.00  0.00    +0.123 C 
BRANCH  15   5
ATOM      1  O   UNL     1      -2.000  -0.486  26.236  0.00  0.00    -0.276 OA
ATOM      5  N   UNL     1      -4.249  -0.646  25.708  0.00  0.00    -0.314 N 
ATOM     19  C   UNL     1      -2.896  -0.915  25.502  0.00  0.00    +0.216 C 
ATOM     34  H   UNL     1      -4.925  -1.032  25.054  0.00  0.00    +0.149 HD
BRANCH  19  17
ATOM     17  C   UNL     1      -2.617  -1.791  24.265  0.00  0.00    +0.075 C 
ATOM     20  C   UNL     1      -1.639  -2.972  24.439  0.00  0.00    +0.013 C 
ATOM     21  C   UNL     1      -3.686  -2.834  23.878  0.00  0.00    +0.013 C 
ATOM     22  C   UNL     1      -2.524  -3.751  23.444  0.00  0.00    +0.001 C 
ENDBRANCH  19  17
ENDBRANCH  15   5
ENDBRANCH  10  15
TORSDOF 7
ENDMDL
MODEL 5
REMARK VINA RESULT:       5.5      2.012      4.051
REMARK  Name = 40776831
REMARK  10 active torsions:
REMARK  status: ('A' for Active; 'I' for Inactive)
REMARK    1  A    between atoms: O_2  and  C_29
REMARK    2  A    between atoms: O_2  and  C_32
REMARK    3  A    between atoms: O_3  and  C_31
REMARK    4  A    between atoms: O_3  and  C_33
REMARK    5  A    between atoms: N_5  and  C_15
REMARK    6  A    between atoms: C_9  and  C_16
REMARK    7  A    between atoms: C_10  and  C_15
REMARK    8  A    between atoms: C_17  and  C_19
REMARK    9  A    between atoms: C_23  and  C_25
REMARK   10  A    between atoms: C_24  and  C_26
REMARK                            x       y       z     vdW  Elec       q    Type
REMARK                         _______ _______ _______ _____ _____    ______ ____
ROOT
ATOM      4  N   UNL     1      -5.361   3.155  24.066  0.00  0.00    -0.297 NA
ATOM      8  C   UNL     1      -4.419   3.576  26.458  0.00  0.00    +0.002 C 
ATOM      9  C   UNL     1      -3.303   3.764  25.392  0.00  0.00    +0.055 C 
ATOM     10  C   UNL     1      -5.736   2.032  24.965  0.00  0.00    +0.074 C 
ATOM     11  C   UNL     1      -5.016   2.159  26.326  0.00  0.00    +0.024 C 
ATOM     12  C   UNL     1      -5.541   4.577  26.107  0.00  0.00    +0.019 C 
ATOM     13  C   UNL     1      -3.884   3.302  24.026  0.00  0.00    +0.094 C 
ATOM     14  C   UNL     1      -5.934   4.401  24.631  0.00  0.00    +0.085 C 
ENDROOT
BRANCH   9  16
ATOM      6  N   UNL     1      -1.476   3.254  26.937  0.00  0.00    -0.237 NA
ATOM      7  N   UNL     1       0.516   2.096  26.233  0.00  0.00    -0.232 NA
ATOM     16  C   UNL     1      -1.934   3.160  25.671  0.00  0.00    +0.050 A 
ATOM     18  C   UNL     1      -1.234   2.557  24.647  0.00  0.00    +0.052 A 
ATOM     23  C   UNL     1      -0.002   2.037  24.989  0.00  0.00    +0.075 A 
ATOM     24  C   UNL     1      -0.262   2.709  27.145  0.00  0.00    +0.127 A 
ATOM     26  C   UNL     1       0.278   2.795  28.532  0.00  0.00    +0.088 C 
BRANCH  23  25
ATOM     25  C   UNL     1       0.829   1.383  24.008  0.00  0.00    +0.004 A 
ATOM     27  C   UNL     1       2.206   1.611  23.996  0.00  0.00    +0.059 A 
ATOM     28  C   UNL     1       0.258   0.522  23.071  0.00  0.00    +0.014 A 
ATOM     29  C   UNL     1       3.010   0.978  23.049  0.00  0.00    +0.162 A 
ATOM     30  C   UNL     1       1.062  -0.111  22.123  0.00  0.00    +0.050 A 
ATOM     31  C   UNL     1       2.439   0.117  22.113  0.00  0.00    +0.162 A 
BRANCH  29   2
ATOM      2  O   UNL     1       4.354   1.207  23.050  0.00  0.00    -0.491 OA
ATOM     32  C   UNL     1       5.156   0.352  23.862  0.00  0.00    +0.277 C 
ENDBRANCH  29   2
BRANCH  31   3
ATOM      3  O   UNL     1       3.214  -0.507  21.182  0.00  0.00    -0.491 OA
ATOM     33  C   UNL     1       4.428   0.143  20.808  0.00  0.00    +0.277 C 
ENDBRANCH  31   3
ENDBRANCH  23  25
ENDBRANCH   9  16
BRANCH  10  15
ATOM     15  C   UNL     1      -5.498   0.665  24.320  0.00  0.00    +0.123 C 
BRANCH  15   5
ATOM      1  O   UNL     1      -4.479  -1.939  23.666  0.00  0.00    -0.276 OA
ATOM      5  N   UNL     1      -4.381   0.004  24.921  0.00  0.00    -0.314 N 
ATOM     19  C   UNL     1      -3.940  -1.267  24.551  0.00  0.00    +0.216 C 
ATOM     34  H   UNL     1      -3.886   0.490  25.664  0.00  0.00    +0.149 HD
BRANCH  19  17
ATOM     17  C   UNL     1      -2.723  -1.763  25.355  0.00  0.00    +0.075 C 
ATOM     20  C   UNL     1      -1.529  -2.328  24.556  0.00  0.00    +0.013 C 
ATOM     21  C   UNL     1      -1.752  -0.696  25.903  0.00  0.00    +0.013 C 
ATOM     22  C   UNL     1      -0.614  -1.702  25.630  0.00  0.00    +0.001 C 
ENDBRANCH  19  17
ENDBRANCH  15   5
ENDBRANCH  10  15
TORSDOF 7
ENDMDL
MODEL 6
REMARK VINA RESULT:       5.9      2.266      4.038
REMARK  Name = 40776831
REMARK  10 active torsions:
REMARK  status: ('A' for Active; 'I' for Inactive)
REMARK    1  A    between atoms: O_2  and  C_29
REMARK    2  A    between atoms: O_2  and  C_32
REMARK    3  A    between atoms: O_3  and  C_31
REMARK    4  A    between atoms: O_3  and  C_33
REMARK    5  A    between atoms: N_5  and  C_15
REMARK    6  A    between atoms: C_9  and  C_16
REMARK    7  A    between atoms: C_10  and  C_15
REMARK    8  A    between atoms: C_17  and  C_19
REMARK    9  A    between atoms: C_23  and  C_25
REMARK   10  A    between atoms: C_24  and  C_26
REMARK                            x       y       z     vdW  Elec       q    Type
REMARK                         _______ _______ _______ _____ _____    ______ ____
ROOT
ATOM      4  N   UNL     1      -3.945   4.131  24.135  0.00  0.00    -0.297 NA
ATOM      8  C   UNL     1      -1.688   4.258  25.429  0.00  0.00    +0.002 C 
ATOM      9  C   UNL     1      -1.542   3.363  24.167  0.00  0.00    +0.055 C 
ATOM     10  C   UNL     1      -4.168   3.836  25.575  0.00  0.00    +0.074 C 
ATOM     11  C   UNL     1      -2.820   3.703  26.319  0.00  0.00    +0.024 C 
ATOM     12  C   UNL     1      -2.137   5.651  24.938  0.00  0.00    +0.019 C 
ATOM     13  C   UNL     1      -2.963   3.173  23.566  0.00  0.00    +0.094 C 
ATOM     14  C   UNL     1      -3.372   5.494  24.033  0.00  0.00    +0.085 C 
ENDROOT
BRANCH   9  16
ATOM      6  N   UNL     1      -1.449   1.032  24.903  0.00  0.00    -0.237 NA
ATOM      7  N   UNL     1       0.504  -0.341  24.574  0.00  0.00    -0.232 NA
ATOM     16  C   UNL     1      -0.791   2.046  24.302  0.00  0.00    +0.050 A 
ATOM     18  C   UNL     1       0.497   1.944  23.819  0.00  0.00    +0.052 A 
ATOM     23  C   UNL     1       1.102   0.715  23.984  0.00  0.00    +0.075 A 
ATOM     24  C   UNL     1      -0.752  -0.116  25.004  0.00  0.00    +0.127 A 
ATOM     26  C   UNL     1      -1.446  -1.260  25.664  0.00  0.00    +0.088 C 
BRANCH  23  25
ATOM     25  C   UNL     1       2.449   0.479  23.524  0.00  0.00    +0.004 A 
ATOM     27  C   UNL     1       3.081  -0.732  23.807  0.00  0.00    +0.059 A 
ATOM     28  C   UNL     1       3.120   1.461  22.796  0.00  0.00    +0.014 A 
ATOM     29  C   UNL     1       4.382  -0.961  23.362  0.00  0.00    +0.162 A 
ATOM     30  C   UNL     1       4.422   1.232  22.351  0.00  0.00    +0.050 A 
ATOM     31  C   UNL     1       5.053   0.020  22.633  0.00  0.00    +0.162 A 
BRANCH  29   2
ATOM      2  O   UNL     1       4.987  -2.150  23.642  0.00  0.00    -0.491 OA
ATOM     32  C   UNL     1       5.887  -2.173  24.749  0.00  0.00    +0.277 C 
ENDBRANCH  29   2
BRANCH  31   3
ATOM      3  O   UNL     1       6.324  -0.192  22.193  0.00  0.00    -0.491 OA
ATOM     33  C   UNL     1       7.379   0.020  23.131  0.00  0.00    +0.277 C 
ENDBRANCH  31   3
ENDBRANCH  23  25
ENDBRANCH   9  16
BRANCH  10  15
ATOM     15  C   UNL     1      -5.060   2.612  25.788  0.00  0.00    +0.123 C 
BRANCH  15   5
ATOM      1  O   UNL     1      -6.210   0.388  24.380  0.00  0.00    -0.276 OA
ATOM      5  N   UNL     1      -4.391   1.415  25.380  0.00  0.00    -0.314 N 
ATOM     19  C   UNL     1      -5.016   0.372  24.696  0.00  0.00    +0.216 C 
ATOM     34  H   UNL     1      -3.405   1.322  25.609  0.00  0.00    +0.149 HD
BRANCH  19  17
ATOM     17  C   UNL     1      -4.082  -0.812  24.378  0.00  0.00    +0.075 C 
ATOM     20  C   UNL     1      -3.875  -1.869  25.484  0.00  0.00    +0.013 C 
ATOM     21  C   UNL     1      -4.651  -1.950  23.505  0.00  0.00    +0.013 C 
ATOM     22  C   UNL     1      -3.810  -2.922  24.359  0.00  0.00    +0.001 C 
ENDBRANCH  19  17
ENDBRANCH  15   5
ENDBRANCH  10  15
TORSDOF 7
ENDMDL
MODEL 7
REMARK VINA RESULT:       6.0      2.866      5.970
REMARK  Name = 40776831
REMARK  10 active torsions:
REMARK  status: ('A' for Active; 'I' for Inactive)
REMARK    1  A    between atoms: O_2  and  C_29
REMARK    2  A    between atoms: O_2  and  C_32
REMARK    3  A    between atoms: O_3  and  C_31
REMARK    4  A    between atoms: O_3  and  C_33
REMARK    5  A    between atoms: N_5  and  C_15
REMARK    6  A    between atoms: C_9  and  C_16
REMARK    7  A    between atoms: C_10  and  C_15
REMARK    8  A    between atoms: C_17  and  C_19
REMARK    9  A    between atoms: C_23  and  C_25
REMARK   10  A    between atoms: C_24  and  C_26
REMARK                            x       y       z     vdW  Elec       q    Type
REMARK                         _______ _______ _______ _____ _____    ______ ____
ROOT
ATOM      4  N   UNL     1      -3.223  -2.498  25.935  0.00  0.00    -0.297 NA
ATOM      8  C   UNL     1      -2.355  -2.345  23.484  0.00  0.00    +0.002 C 
ATOM      9  C   UNL     1      -1.236  -1.943  24.484  0.00  0.00    +0.055 C 
ATOM     10  C   UNL     1      -4.179  -1.719  25.105  0.00  0.00    +0.074 C 
ATOM     11  C   UNL     1      -3.586  -1.440  23.706  0.00  0.00    +0.024 C 
ATOM     12  C   UNL     1      -2.778  -3.785  23.845  0.00  0.00    +0.019 C 
ATOM     13  C   UNL     1      -1.882  -1.864  25.896  0.00  0.00    +0.094 C 
ATOM     14  C   UNL     1      -3.110  -3.854  25.345  0.00  0.00    +0.085 C 
ENDROOT
BRANCH   9  16
ATOM      6  N   UNL     1       0.809  -0.938  23.593  0.00  0.00    -0.237 NA
ATOM      7  N   UNL     1       1.165   1.445  23.570  0.00  0.00    -0.232 NA
ATOM     16  C   UNL     1      -0.393  -0.716  24.165  0.00  0.00    +0.050 A 
ATOM     18  C   UNL     1      -0.877   0.540  24.466  0.00  0.00    +0.052 A 
ATOM     23  C   UNL     1      -0.048   1.594  24.143  0.00  0.00    +0.075 A 
ATOM     24  C   UNL     1       1.525   0.171  23.326  0.00  0.00    +0.127 A 
ATOM     26  C   UNL     1       2.860  -0.035  22.695  0.00  0.00    +0.088 C 
BRANCH  23  25
ATOM     25  C   UNL     1      -0.437   2.958  24.408  0.00  0.00    +0.004 A 
ATOM     27  C   UNL     1      -1.332   3.240  25.441  0.00  0.00    +0.059 A 
ATOM     28  C   UNL     1       0.081   3.995  23.634  0.00  0.00    +0.014 A 
ATOM     29  C   UNL     1      -1.708   4.557  25.698  0.00  0.00    +0.162 A 
ATOM     30  C   UNL     1      -0.295   5.314  23.890  0.00  0.00    +0.050 A 
ATOM     31  C   UNL     1      -1.190   5.595  24.924  0.00  0.00    +0.162 A 
BRANCH  29   2
ATOM      2  O   UNL     1      -2.581   4.820  26.712  0.00  0.00    -0.491 OA
ATOM     32  C   UNL     1      -3.483   3.776  27.076  0.00  0.00    +0.277 C 
ENDBRANCH  29   2
BRANCH  31   3
ATOM      3  O   UNL     1      -1.550   6.886  25.166  0.00  0.00    -0.491 OA
ATOM     33  C   UNL     1      -2.402   7.512  24.208  0.00  0.00    +0.277 C 
ENDBRANCH  31   3
ENDBRANCH  23  25
ENDBRANCH   9  16
BRANCH  10  15
ATOM     15  C   UNL     1      -4.637  -0.433  25.796  0.00  0.00    +0.123 C 
BRANCH  15   5
ATOM      1  O   UNL     1      -6.275   1.924  25.875  0.00  0.00    -0.276 OA
ATOM      5  N   UNL     1      -4.589   0.676  24.894  0.00  0.00    -0.314 N 
ATOM     19  C   UNL     1      -5.419   1.793  24.994  0.00  0.00    +0.216 C 
ATOM     34  H   UNL     1      -3.913   0.642  24.137  0.00  0.00    +0.149 HD
BRANCH  19  17
ATOM     17  C   UNL     1      -5.179   2.848  23.897  0.00  0.00    +0.075 C 
ATOM     20  C   UNL     1      -4.729   4.253  24.350  0.00  0.00    +0.013 C 
ATOM     21  C   UNL     1      -3.856   2.763  23.109  0.00  0.00    +0.013 C 
ATOM     22  C   UNL     1      -3.867   4.305  23.072  0.00  0.00    +0.001 C 
ENDBRANCH  19  17
ENDBRANCH  15   5
ENDBRANCH  10  15
TORSDOF 7
ENDMDL
MODEL 8
REMARK VINA RESULT:       6.6      2.250      5.154
REMARK  Name = 40776831
REMARK  10 active torsions:
REMARK  status: ('A' for Active; 'I' for Inactive)
REMARK    1  A    between atoms: O_2  and  C_29
REMARK    2  A    between atoms: O_2  and  C_32
REMARK    3  A    between atoms: O_3  and  C_31
REMARK    4  A    between atoms: O_3  and  C_33
REMARK    5  A    between atoms: N_5  and  C_15
REMARK    6  A    between atoms: C_9  and  C_16
REMARK    7  A    between atoms: C_10  and  C_15
REMARK    8  A    between atoms: C_17  and  C_19
REMARK    9  A    between atoms: C_23  and  C_25
REMARK   10  A    between atoms: C_24  and  C_26
REMARK                            x       y       z     vdW  Elec       q    Type
REMARK                         _______ _______ _______ _____ _____    ______ ____
ROOT
ATOM      4  N   UNL     1      -1.377   5.231  25.554  0.00  0.00    -0.297 NA
ATOM      8  C   UNL     1      -3.070   4.459  23.731  0.00  0.00    +0.002 C 
ATOM      9  C   UNL     1      -3.644   4.200  25.152  0.00  0.00    +0.055 C 
ATOM     10  C   UNL     1      -0.691   4.367  24.557  0.00  0.00    +0.074 C 
ATOM     11  C   UNL     1      -1.715   3.733  23.589  0.00  0.00    +0.024 C 
ATOM     12  C   UNL     1      -2.787   5.973  23.635  0.00  0.00    +0.019 C 
ATOM     13  C   UNL     1      -2.508   4.494  26.172  0.00  0.00    +0.094 C 
ATOM     14  C   UNL     1      -1.928   6.405  24.836  0.00  0.00    +0.085 C 
ENDROOT
BRANCH   9  16
ATOM      6  N   UNL     1      -5.461   2.903  26.153  0.00  0.00    -0.237 NA
ATOM      7  N   UNL     1      -5.602   0.508  25.932  0.00  0.00    -0.232 NA
ATOM     16  C   UNL     1      -4.329   2.867  25.419  0.00  0.00    +0.050 A 
ATOM     18  C   UNL     1      -3.780   1.706  24.915  0.00  0.00    +0.052 A 
ATOM     23  C   UNL     1      -4.466   0.545  25.205  0.00  0.00    +0.075 A 
ATOM     24  C   UNL     1      -6.037   1.705  26.368  0.00  0.00    +0.127 A 
ATOM     26  C   UNL     1      -7.290   1.705  27.176  0.00  0.00    +0.088 C 
BRANCH  23  25
ATOM     25  C   UNL     1      -3.995  -0.736  24.738  0.00  0.00    +0.004 A 
ATOM     27  C   UNL     1      -2.734  -1.197  25.117  0.00  0.00    +0.059 A 
ATOM     28  C   UNL     1      -4.799  -1.515  23.906  0.00  0.00    +0.014 A 
ATOM     29  C   UNL     1      -2.278  -2.435  24.667  0.00  0.00    +0.162 A 
ATOM     30  C   UNL     1      -4.343  -2.754  23.455  0.00  0.00    +0.050 A 
ATOM     31  C   UNL     1      -3.083  -3.214  23.836  0.00  0.00    +0.162 A 
BRANCH  29   2
ATOM      2  O   UNL     1      -1.046  -2.875  25.048  0.00  0.00    -0.491 OA
ATOM     32  C   UNL     1      -0.148  -1.904  25.584  0.00  0.00    +0.277 C 
ENDBRANCH  29   2
BRANCH  31   3
ATOM      3  O   UNL     1      -2.649  -4.425  23.389  0.00  0.00    -0.491 OA
ATOM     33  C   UNL     1      -1.459  -4.438  22.601  0.00  0.00    +0.277 C 
ENDBRANCH  31   3
ENDBRANCH  23  25
ENDBRANCH   9  16
BRANCH  10  15
ATOM     15  C   UNL     1       0.200   3.312  25.214  0.00  0.00    +0.123 C 
BRANCH  15   5
ATOM      1  O   UNL     1      -0.042   0.599  24.306  0.00  0.00    -0.276 OA
ATOM      5  N   UNL     1       1.018   2.656  24.241  0.00  0.00    -0.314 N 
ATOM     19  C   UNL     1       0.841   1.329  23.847  0.00  0.00    +0.216 C 
ATOM     34  H   UNL     1       1.773   3.190  23.819  0.00  0.00    +0.149 HD
BRANCH  19  17
ATOM     17  C   UNL     1       1.857   0.853  22.791  0.00  0.00    +0.075 C 
ATOM     20  C   UNL     1       3.311   1.351  22.930  0.00  0.00    +0.013 C 
ATOM     21  C   UNL     1       2.415  -0.578  22.938  0.00  0.00    +0.013 C 
ATOM     22  C   UNL     1       3.753  -0.029  22.402  0.00  0.00    +0.001 C 
ENDBRANCH  19  17
ENDBRANCH  15   5
ENDBRANCH  10  15
TORSDOF 7
ENDMDL
