MODEL 1
REMARK VINA RESULT:      -1.0      0.000      0.000
REMARK  Name = 45783542
REMARK  11 active torsions:
REMARK  status: ('A' for Active; 'I' for Inactive)
REMARK    1  A    between atoms: O_5  and  C_25
REMARK    2  A    between atoms: O_5  and  C_30
REMARK    3  A    between atoms: O_6  and  C_29
REMARK    4  A    between atoms: O_6  and  C_31
REMARK    5  A    between atoms: O_7  and  C_32
REMARK    6  A    between atoms: O_7  and  C_33
REMARK    7  A    between atoms: N_8  and  C_16
REMARK    8  A    between atoms: C_12  and  C_17
REMARK    9  A    between atoms: C_16  and  C_18
REMARK   10  A    between atoms: C_21  and  C_24
REMARK   11  A    between atoms: C_31  and  C_32
REMARK                            x       y       z     vdW  Elec       q    Type
REMARK                         _______ _______ _______ _____ _____    ______ ____
ROOT
ATOM      8  N   UNL     1      -5.435   2.447  25.245  0.00  0.00    -0.287 NA
ATOM     12  C   UNL     1      -4.516   3.222  24.389  0.00  0.00    +0.146 C 
ATOM     13  C   UNL     1      -4.757   4.691  24.786  0.00  0.00    +0.030 C 
ATOM     14  C   UNL     1      -5.868   4.645  25.825  0.00  0.00    +0.017 C 
ATOM     15  C   UNL     1      -6.565   3.328  25.545  0.00  0.00    +0.085 C 
ENDROOT
BRANCH  12  17
ATOM      4  O   UNL     1      -2.504   3.051  25.764  0.00  0.00    -0.336 OA
ATOM      9  N   UNL     1      -2.270   2.227  23.694  0.00  0.00    -0.190 NA
ATOM     10  N   UNL     1      -1.185   2.582  25.677  0.00  0.00    -0.056 NA
ATOM     17  C   UNL     1      -3.071   2.802  24.555  0.00  0.00    +0.245 A 
ATOM     21  C   UNL     1      -1.125   2.111  24.428  0.00  0.00    +0.204 A 
BRANCH  21  24
ATOM     11  N   UNL     1       2.457   1.618  23.561  0.00  0.00    -0.221 NA
ATOM     24  C   UNL     1       0.063   1.520  23.884  0.00  0.00    +0.041 A 
ATOM     26  C   UNL     1       0.009   0.327  23.173  0.00  0.00    +0.018 A 
ATOM     27  C   UNL     1       1.301   2.121  24.048  0.00  0.00    +0.126 A 
ATOM     28  C   UNL     1       1.177  -0.222  22.656  0.00  0.00    +0.068 A 
ATOM     29  C   UNL     1       2.365   0.456  22.875  0.00  0.00    +0.215 A 
BRANCH  29   6
ATOM      6  O   UNL     1       3.530  -0.064  22.376  0.00  0.00    -0.474 OA
BRANCH   6  31
ATOM     31  C   UNL     1       4.707   0.713  22.558  0.00  0.00    +0.258 C 
BRANCH  31  32
ATOM     32  C   UNL     1       5.764  -0.141  23.233  0.00  0.00    +0.200 C 
BRANCH  32   7
ATOM      7  O   UNL     1       5.182  -0.807  24.347  0.00  0.00    -0.380 OA
ATOM     33  C   UNL     1       4.681  -2.086  23.988  0.00  0.00    +0.194 C 
ENDBRANCH  32   7
ENDBRANCH  31  32
ENDBRANCH   6  31
ENDBRANCH  29   6
ENDBRANCH  21  24
ENDBRANCH  12  17
BRANCH   8  16
ATOM     16  C   UNL     1      -5.865   1.193  24.640  0.00  0.00    +0.120 C 
BRANCH  16  18
ATOM     18  C   UNL     1      -4.851   0.098  24.840  0.00  0.00    -0.033 A 
ATOM     19  C   UNL     1      -4.163  -0.003  26.049  0.00  0.00    +0.008 A 
ATOM     20  C   UNL     1      -4.598  -0.814  23.816  0.00  0.00    +0.008 A 
ATOM     22  C   UNL     1      -3.223  -1.017  26.235  0.00  0.00    +0.046 A 
ATOM     23  C   UNL     1      -3.658  -1.828  24.001  0.00  0.00    +0.046 A 
ATOM     25  C   UNL     1      -2.970  -1.930  25.210  0.00  0.00    +0.130 A 
BRANCH  25   5
ATOM      5  O   UNL     1      -2.054  -2.919  25.391  0.00  0.00    -0.406 OA
BRANCH   5  30
ATOM      1  F   UNL     1      -0.565  -2.608  23.723  0.00  0.00    -0.133 F 
ATOM      2  F   UNL     1      -0.312  -1.446  25.556  0.00  0.00    -0.133 F 
ATOM      3  F   UNL     1       0.120  -3.614  25.538  0.00  0.00    -0.133 F 
ATOM     30  C   UNL     1      -0.694  -2.645  25.069  0.00  0.00    +0.575 C 
ENDBRANCH   5  30
ENDBRANCH  25   5
ENDBRANCH  16  18
ENDBRANCH   8  16
TORSDOF 10
ENDMDL
MODEL 2
REMARK VINA RESULT:      -1.0      2.578      4.394
REMARK  Name = 45783542
REMARK  11 active torsions:
REMARK  status: ('A' for Active; 'I' for Inactive)
REMARK    1  A    between atoms: O_5  and  C_25
REMARK    2  A    between atoms: O_5  and  C_30
REMARK    3  A    between atoms: O_6  and  C_29
REMARK    4  A    between atoms: O_6  and  C_31
REMARK    5  A    between atoms: O_7  and  C_32
REMARK    6  A    between atoms: O_7  and  C_33
REMARK    7  A    between atoms: N_8  and  C_16
REMARK    8  A    between atoms: C_12  and  C_17
REMARK    9  A    between atoms: C_16  and  C_18
REMARK   10  A    between atoms: C_21  and  C_24
REMARK   11  A    between atoms: C_31  and  C_32
REMARK                            x       y       z     vdW  Elec       q    Type
REMARK                         _______ _______ _______ _____ _____    ______ ____
ROOT
ATOM      8  N   UNL     1      -4.672  -1.000  24.090  0.00  0.00    -0.287 NA
ATOM     12  C   UNL     1      -3.675  -1.458  25.078  0.00  0.00    +0.146 C 
ATOM     13  C   UNL     1      -3.528  -2.967  24.814  0.00  0.00    +0.030 C 
ATOM     14  C   UNL     1      -4.524  -3.276  23.704  0.00  0.00    +0.017 C 
ATOM     15  C   UNL     1      -5.532  -2.149  23.806  0.00  0.00    +0.085 C 
ENDROOT
BRANCH  12  17
ATOM      4  O   UNL     1      -2.129   0.247  25.897  0.00  0.00    -0.336 OA
ATOM      9  N   UNL     1      -1.397  -0.859  24.092  0.00  0.00    -0.190 NA
ATOM     10  N   UNL     1      -0.872   0.787  25.592  0.00  0.00    -0.056 NA
ATOM     17  C   UNL     1      -2.361  -0.714  24.967  0.00  0.00    +0.245 A 
ATOM     21  C   UNL     1      -0.506   0.083  24.518  0.00  0.00    +0.204 A 
BRANCH  21  24
ATOM     11  N   UNL     1       2.654   1.721  23.441  0.00  0.00    -0.221 NA
ATOM     24  C   UNL     1       0.744   0.296  23.846  0.00  0.00    +0.041 A 
ATOM     26  C   UNL     1       1.260  -0.656  22.975  0.00  0.00    +0.018 A 
ATOM     27  C   UNL     1       1.473   1.459  24.043  0.00  0.00    +0.126 A 
ATOM     28  C   UNL     1       2.473  -0.421  22.337  0.00  0.00    +0.068 A 
ATOM     29  C   UNL     1       3.125   0.772  22.601  0.00  0.00    +0.215 A 
BRANCH  29   6
ATOM      6  O   UNL     1       4.322   1.027  21.985  0.00  0.00    -0.474 OA
BRANCH   6  31
ATOM     31  C   UNL     1       5.434   0.242  22.398  0.00  0.00    +0.258 C 
BRANCH  31  32
ATOM     32  C   UNL     1       5.796   0.609  23.824  0.00  0.00    +0.200 C 
BRANCH  32   7
ATOM      7  O   UNL     1       5.484  -0.485  24.679  0.00  0.00    -0.380 OA
ATOM     33  C   UNL     1       5.188  -1.659  23.936  0.00  0.00    +0.194 C 
ENDBRANCH  32   7
ENDBRANCH  31  32
ENDBRANCH   6  31
ENDBRANCH  29   6
ENDBRANCH  21  24
ENDBRANCH  12  17
BRANCH   8  16
ATOM     16  C   UNL     1      -5.436   0.157  24.538  0.00  0.00    +0.120 C 
BRANCH  16  18
ATOM     18  C   UNL     1      -4.599   1.409  24.553  0.00  0.00    -0.033 A 
ATOM     19  C   UNL     1      -3.727   1.678  23.498  0.00  0.00    +0.008 A 
ATOM     20  C   UNL     1      -4.695   2.299  25.622  0.00  0.00    +0.008 A 
ATOM     22  C   UNL     1      -2.951   2.837  23.512  0.00  0.00    +0.046 A 
ATOM     23  C   UNL     1      -3.919   3.459  25.636  0.00  0.00    +0.046 A 
ATOM     25  C   UNL     1      -3.047   3.728  24.581  0.00  0.00    +0.130 A 
BRANCH  25   5
ATOM      5  O   UNL     1      -2.291   4.859  24.595  0.00  0.00    -0.406 OA
BRANCH   5  30
ATOM      1  F   UNL     1      -0.303   4.157  23.787  0.00  0.00    -0.133 F 
ATOM      2  F   UNL     1      -0.329   5.944  25.045  0.00  0.00    -0.133 F 
ATOM      3  F   UNL     1      -0.672   3.949  25.931  0.00  0.00    -0.133 F 
ATOM     30  C   UNL     1      -0.897   4.734  24.856  0.00  0.00    +0.575 C 
ENDBRANCH   5  30
ENDBRANCH  25   5
ENDBRANCH  16  18
ENDBRANCH   8  16
TORSDOF 10
ENDMDL
MODEL 3
REMARK VINA RESULT:       2.9      2.659      4.001
REMARK  Name = 45783542
REMARK  11 active torsions:
REMARK  status: ('A' for Active; 'I' for Inactive)
REMARK    1  A    between atoms: O_5  and  C_25
REMARK    2  A    between atoms: O_5  and  C_30
REMARK    3  A    between atoms: O_6  and  C_29
REMARK    4  A    between atoms: O_6  and  C_31
REMARK    5  A    between atoms: O_7  and  C_32
REMARK    6  A    between atoms: O_7  and  C_33
REMARK    7  A    between atoms: N_8  and  C_16
REMARK    8  A    between atoms: C_12  and  C_17
REMARK    9  A    between atoms: C_16  and  C_18
REMARK   10  A    between atoms: C_21  and  C_24
REMARK   11  A    between atoms: C_31  and  C_32
REMARK                            x       y       z     vdW  Elec       q    Type
REMARK                         _______ _______ _______ _____ _____    ______ ____
ROOT
ATOM      8  N   UNL     1      -4.319   3.151  24.827  0.00  0.00    -0.287 NA
ATOM     12  C   UNL     1      -4.057   1.886  25.543  0.00  0.00    +0.146 C 
ATOM     13  C   UNL     1      -5.389   1.117  25.477  0.00  0.00    +0.030 C 
ATOM     14  C   UNL     1      -6.354   2.052  24.761  0.00  0.00    +0.017 C 
ATOM     15  C   UNL     1      -5.748   3.424  24.979  0.00  0.00    +0.085 C 
ENDROOT
BRANCH  12  17
ATOM      4  O   UNL     1      -3.049  -0.241  24.888  0.00  0.00    -0.336 OA
ATOM      9  N   UNL     1      -1.763   1.545  24.473  0.00  0.00    -0.190 NA
ATOM     10  N   UNL     1      -1.872  -0.735  24.310  0.00  0.00    -0.056 NA
ATOM     17  C   UNL     1      -2.903   1.107  24.947  0.00  0.00    +0.245 A 
ATOM     21  C   UNL     1      -1.165   0.378  24.094  0.00  0.00    +0.204 A 
BRANCH  21  24
ATOM     11  N   UNL     1       2.390   1.242  23.429  0.00  0.00    -0.221 NA
ATOM     24  C   UNL     1       0.141   0.359  23.500  0.00  0.00    +0.041 A 
ATOM     26  C   UNL     1       0.442  -0.512  22.460  0.00  0.00    +0.018 A 
ATOM     27  C   UNL     1       1.141   1.210  23.944  0.00  0.00    +0.126 A 
ATOM     28  C   UNL     1       1.717  -0.507  21.904  0.00  0.00    +0.068 A 
ATOM     29  C   UNL     1       2.646   0.381  22.419  0.00  0.00    +0.215 A 
BRANCH  29   6
ATOM      6  O   UNL     1       3.908   0.405  21.887  0.00  0.00    -0.474 OA
BRANCH   6  31
ATOM     31  C   UNL     1       4.936   0.952  22.705  0.00  0.00    +0.258 C 
BRANCH  31  32
ATOM     32  C   UNL     1       5.865  -0.164  23.144  0.00  0.00    +0.200 C 
BRANCH  32   7
ATOM      7  O   UNL     1       5.348  -0.760  24.328  0.00  0.00    -0.380 OA
ATOM     33  C   UNL     1       4.563  -1.907  24.035  0.00  0.00    +0.194 C 
ENDBRANCH  32   7
ENDBRANCH  31  32
ENDBRANCH   6  31
ENDBRANCH  29   6
ENDBRANCH  21  24
ENDBRANCH  12  17
BRANCH   8  16
ATOM     16  C   UNL     1      -3.497   4.258  25.297  0.00  0.00    +0.120 C 
BRANCH  16  18
ATOM     18  C   UNL     1      -2.184   3.781  25.859  0.00  0.00    -0.033 A 
ATOM     19  C   UNL     1      -1.000   4.013  25.160  0.00  0.00    +0.008 A 
ATOM     20  C   UNL     1      -2.152   3.106  27.079  0.00  0.00    +0.008 A 
ATOM     22  C   UNL     1       0.217   3.570  25.680  0.00  0.00    +0.046 A 
ATOM     23  C   UNL     1      -0.936   2.664  27.600  0.00  0.00    +0.046 A 
ATOM     25  C   UNL     1       0.248   2.896  26.901  0.00  0.00    +0.130 A 
BRANCH  25   5
ATOM      5  O   UNL     1       1.435   2.465  27.409  0.00  0.00    -0.406 OA
BRANCH   5  30
ATOM      1  F   UNL     1       2.542   3.828  28.828  0.00  0.00    -0.133 F 
ATOM      2  F   UNL     1       0.603   3.043  29.460  0.00  0.00    -0.133 F 
ATOM      3  F   UNL     1       2.367   1.715  29.359  0.00  0.00    -0.133 F 
ATOM     30  C   UNL     1       1.727   2.749  28.773  0.00  0.00    +0.575 C 
ENDBRANCH   5  30
ENDBRANCH  25   5
ENDBRANCH  16  18
ENDBRANCH   8  16
TORSDOF 10
ENDMDL
