MODEL 1
REMARK VINA RESULT:      -3.7      0.000      0.000
REMARK  Name = 40777374
REMARK  7 active torsions:
REMARK  status: ('A' for Active; 'I' for Inactive)
REMARK    1  A    between atoms: N_5  and  C_18
REMARK    2  A    between atoms: C_7  and  C_13
REMARK    3  A    between atoms: C_8  and  C_12
REMARK    4  A    between atoms: C_12  and  C_14
REMARK    5  A    between atoms: C_13  and  C_15
REMARK    6  A    between atoms: C_17  and  C_19
REMARK    7  A    between atoms: C_18  and  C_20
REMARK                            x       y       z     vdW  Elec       q    Type
REMARK                         _______ _______ _______ _____ _____    ______ ____
ROOT
ATOM      4  N   UNL     1      -0.638   5.182  24.658  0.00  0.00    -0.316 NA
ATOM      7  C   UNL     1      -2.672   3.157  25.345  0.00  0.00    +0.004 C 
ATOM      8  C   UNL     1      -1.397   2.821  24.535  0.00  0.00    +0.012 C 
ATOM      9  C   UNL     1      -2.407   4.408  26.199  0.00  0.00    +0.019 C 
ATOM     10  C   UNL     1      -0.873   4.046  23.766  0.00  0.00    +0.085 C 
ATOM     11  C   UNL     1      -1.852   5.569  25.375  0.00  0.00    +0.081 C 
ATOM     29  H   UNL     1      -0.301   5.975  24.113  0.00  0.00    +0.122 HD
ENDROOT
BRANCH   8  12
ATOM     12  C   UNL     1      -1.584   1.633  23.589  0.00  0.00    +0.064 C 
BRANCH  12  14
ATOM      2  O   UNL     1       1.064  -0.589  22.585  0.00  0.00    -0.354 OA
ATOM      6  N   UNL     1      -0.268  -0.192  22.603  0.00  0.00    -0.083 NA
ATOM     14  C   UNL     1      -0.288   0.916  23.348  0.00  0.00    +0.085 A 
ATOM     16  C   UNL     1       0.988   1.263  23.824  0.00  0.00    +0.076 A 
ATOM     17  C   UNL     1       1.803   0.285  23.315  0.00  0.00    +0.167 A 
BRANCH  17  19
ATOM     19  C   UNL     1       3.206   0.003  23.388  0.00  0.00    +0.020 A 
ATOM     21  C   UNL     1       4.134   1.008  23.113  0.00  0.00    +0.011 A 
ATOM     22  C   UNL     1       3.644  -1.275  23.735  0.00  0.00    +0.011 A 
ATOM     24  C   UNL     1       5.500   0.734  23.185  0.00  0.00    +0.001 A 
ATOM     25  C   UNL     1       5.010  -1.549  23.806  0.00  0.00    +0.001 A 
ATOM     28  C   UNL     1       5.938  -0.545  23.531  0.00  0.00    +0.000 A 
ENDBRANCH  17  19
ENDBRANCH  12  14
ENDBRANCH   8  12
BRANCH   7  13
ATOM     13  C   UNL     1      -3.928   3.338  24.486  0.00  0.00    +0.099 C 
BRANCH  13  15
ATOM      1  O   UNL     1      -6.104   2.325  24.795  0.00  0.00    -0.276 OA
ATOM      5  N   UNL     1      -4.233   0.964  24.567  0.00  0.00    -0.308 N 
ATOM     15  C   UNL     1      -4.895   2.182  24.635  0.00  0.00    +0.214 C 
ATOM     30  H   UNL     1      -3.225   0.953  24.449  0.00  0.00    +0.149 HD
BRANCH   5  18
ATOM     18  C   UNL     1      -4.909  -0.308  24.680  0.00  0.00    +0.178 C 
BRANCH  18  20
ATOM      3  O   UNL     1      -2.733  -1.323  25.057  0.00  0.00    -0.466 OA
ATOM     20  C   UNL     1      -3.966  -1.463  24.503  0.00  0.00    +0.122 A 
ATOM     23  C   UNL     1      -4.081  -2.684  23.880  0.00  0.00    +0.046 A 
ATOM     26  C   UNL     1      -2.838  -3.336  24.061  0.00  0.00    +0.041 A 
ATOM     27  C   UNL     1      -2.052  -2.467  24.783  0.00  0.00    +0.195 A 
ENDBRANCH  18  20
ENDBRANCH   5  18
ENDBRANCH  13  15
ENDBRANCH   7  13
TORSDOF 7
ENDMDL
MODEL 2
REMARK VINA RESULT:      -2.9      1.656      4.491
REMARK  Name = 40777374
REMARK  7 active torsions:
REMARK  status: ('A' for Active; 'I' for Inactive)
REMARK    1  A    between atoms: N_5  and  C_18
REMARK    2  A    between atoms: C_7  and  C_13
REMARK    3  A    between atoms: C_8  and  C_12
REMARK    4  A    between atoms: C_12  and  C_14
REMARK    5  A    between atoms: C_13  and  C_15
REMARK    6  A    between atoms: C_17  and  C_19
REMARK    7  A    between atoms: C_18  and  C_20
REMARK                            x       y       z     vdW  Elec       q    Type
REMARK                         _______ _______ _______ _____ _____    ______ ____
ROOT
ATOM      4  N   UNL     1      -2.124  -2.764  24.806  0.00  0.00    -0.316 NA
ATOM      7  C   UNL     1      -3.978  -0.713  23.774  0.00  0.00    +0.004 C 
ATOM      8  C   UNL     1      -2.441  -0.583  23.662  0.00  0.00    +0.012 C 
ATOM      9  C   UNL     1      -4.348  -2.201  23.889  0.00  0.00    +0.019 C 
ATOM     10  C   UNL     1      -1.722  -1.357  24.780  0.00  0.00    +0.085 C 
ATOM     11  C   UNL     1      -3.567  -2.912  24.993  0.00  0.00    +0.081 C 
ATOM     29  H   UNL     1      -1.635  -3.241  25.562  0.00  0.00    +0.122 HD
ENDROOT
BRANCH   8  12
ATOM     12  C   UNL     1      -1.964   0.870  23.623  0.00  0.00    +0.064 C 
BRANCH  12  14
ATOM      2  O   UNL     1       1.495   1.847  23.835  0.00  0.00    -0.354 OA
ATOM      6  N   UNL     1       0.134   2.120  23.897  0.00  0.00    -0.083 NA
ATOM     14  C   UNL     1      -0.465   0.954  23.640  0.00  0.00    +0.085 A 
ATOM     16  C   UNL     1       0.458  -0.080  23.408  0.00  0.00    +0.076 A 
ATOM     17  C   UNL     1       1.676   0.533  23.544  0.00  0.00    +0.167 A 
BRANCH  17  19
ATOM     19  C   UNL     1       3.039   0.100  23.446  0.00  0.00    +0.020 A 
ATOM     21  C   UNL     1       4.021   0.986  23.002  0.00  0.00    +0.011 A 
ATOM     22  C   UNL     1       3.383  -1.205  23.796  0.00  0.00    +0.011 A 
ATOM     24  C   UNL     1       5.348   0.564  22.908  0.00  0.00    +0.001 A 
ATOM     25  C   UNL     1       4.709  -1.626  23.701  0.00  0.00    +0.001 A 
ATOM     28  C   UNL     1       5.691  -0.741  23.257  0.00  0.00    +0.000 A 
ENDBRANCH  17  19
ENDBRANCH  12  14
ENDBRANCH   8  12
BRANCH   7  13
ATOM     13  C   UNL     1      -4.591   0.092  24.925  0.00  0.00    +0.099 C 
BRANCH  13  15
ATOM      1  O   UNL     1      -4.745   2.069  23.539  0.00  0.00    -0.276 OA
ATOM      5  N   UNL     1      -4.351   2.301  25.819  0.00  0.00    -0.308 N 
ATOM     15  C   UNL     1      -4.577   1.582  24.653  0.00  0.00    +0.214 C 
ATOM     30  H   UNL     1      -4.208   1.801  26.691  0.00  0.00    +0.149 HD
BRANCH   5  18
ATOM     18  C   UNL     1      -4.287   3.744  25.854  0.00  0.00    +0.178 C 
BRANCH  18  20
ATOM      3  O   UNL     1      -1.875   3.472  25.998  0.00  0.00    -0.466 OA
ATOM     20  C   UNL     1      -2.903   4.251  25.569  0.00  0.00    +0.122 A 
ATOM     23  C   UNL     1      -2.425   5.378  24.942  0.00  0.00    +0.046 A 
ATOM     26  C   UNL     1      -1.014   5.287  24.989  0.00  0.00    +0.041 A 
ATOM     27  C   UNL     1      -0.729   4.109  25.641  0.00  0.00    +0.195 A 
ENDBRANCH  18  20
ENDBRANCH   5  18
ENDBRANCH  13  15
ENDBRANCH   7  13
TORSDOF 7
ENDMDL
MODEL 3
REMARK VINA RESULT:      -2.9      2.019      3.292
REMARK  Name = 40777374
REMARK  7 active torsions:
REMARK  status: ('A' for Active; 'I' for Inactive)
REMARK    1  A    between atoms: N_5  and  C_18
REMARK    2  A    between atoms: C_7  and  C_13
REMARK    3  A    between atoms: C_8  and  C_12
REMARK    4  A    between atoms: C_12  and  C_14
REMARK    5  A    between atoms: C_13  and  C_15
REMARK    6  A    between atoms: C_17  and  C_19
REMARK    7  A    between atoms: C_18  and  C_20
REMARK                            x       y       z     vdW  Elec       q    Type
REMARK                         _______ _______ _______ _____ _____    ______ ____
ROOT
ATOM      4  N   UNL     1      -6.173   4.439  26.044  0.00  0.00    -0.316 NA
ATOM      7  C   UNL     1      -3.987   2.595  25.316  0.00  0.00    +0.004 C 
ATOM      8  C   UNL     1      -3.732   4.008  25.892  0.00  0.00    +0.012 C 
ATOM      9  C   UNL     1      -5.380   2.117  25.758  0.00  0.00    +0.019 C 
ATOM     10  C   UNL     1      -4.891   4.968  25.576  0.00  0.00    +0.085 C 
ATOM     11  C   UNL     1      -6.473   3.138  25.447  0.00  0.00    +0.081 C 
ATOM     29  H   UNL     1      -6.915   5.097  25.809  0.00  0.00    +0.122 HD
ENDROOT
BRANCH   8  12
ATOM     12  C   UNL     1      -2.399   4.607  25.441  0.00  0.00    +0.064 C 
BRANCH  12  14
ATOM      2  O   UNL     1      -0.035   1.900  25.658  0.00  0.00    -0.354 OA
ATOM      6  N   UNL     1      -0.973   2.762  26.215  0.00  0.00    -0.083 NA
ATOM     14  C   UNL     1      -1.371   3.539  25.204  0.00  0.00    +0.085 A 
ATOM     16  C   UNL     1      -0.725   3.220  23.998  0.00  0.00    +0.076 A 
ATOM     17  C   UNL     1       0.104   2.182  24.337  0.00  0.00    +0.167 A 
BRANCH  17  19
ATOM     19  C   UNL     1       1.045   1.369  23.624  0.00  0.00    +0.020 A 
ATOM     21  C   UNL     1       0.621   0.191  23.007  0.00  0.00    +0.011 A 
ATOM     22  C   UNL     1       2.383   1.754  23.548  0.00  0.00    +0.011 A 
ATOM     24  C   UNL     1       1.537  -0.599  22.313  0.00  0.00    +0.001 A 
ATOM     25  C   UNL     1       3.298   0.962  22.854  0.00  0.00    +0.001 A 
ATOM     28  C   UNL     1       2.875  -0.214  22.237  0.00  0.00    +0.000 A 
ENDBRANCH  17  19
ENDBRANCH  12  14
ENDBRANCH   8  12
BRANCH   7  13
ATOM     13  C   UNL     1      -3.838   2.506  23.792  0.00  0.00    +0.099 C 
BRANCH  13  15
ATOM      1  O   UNL     1      -2.642   0.929  22.401  0.00  0.00    -0.276 OA
ATOM      5  N   UNL     1      -3.996   0.138  24.118  0.00  0.00    -0.308 N 
ATOM     15  C   UNL     1      -3.410   1.126  23.339  0.00  0.00    +0.214 C 
ATOM     30  H   UNL     1      -4.632   0.406  24.863  0.00  0.00    +0.149 HD
BRANCH   5  18
ATOM     18  C   UNL     1      -3.765  -1.272  23.908  0.00  0.00    +0.178 C 
BRANCH  18  20
ATOM      3  O   UNL     1      -1.904  -0.940  25.436  0.00  0.00    -0.466 OA
ATOM     20  C   UNL     1      -2.435  -1.710  24.451  0.00  0.00    +0.122 A 
ATOM     23  C   UNL     1      -1.601  -2.764  24.159  0.00  0.00    +0.046 A 
ATOM     26  C   UNL     1      -0.486  -2.634  25.019  0.00  0.00    +0.041 A 
ATOM     27  C   UNL     1      -0.717  -1.508  25.777  0.00  0.00    +0.195 A 
ENDBRANCH  18  20
ENDBRANCH   5  18
ENDBRANCH  13  15
ENDBRANCH   7  13
TORSDOF 7
ENDMDL
MODEL 4
REMARK VINA RESULT:      -0.9      1.664      6.047
REMARK  Name = 40777374
REMARK  7 active torsions:
REMARK  status: ('A' for Active; 'I' for Inactive)
REMARK    1  A    between atoms: N_5  and  C_18
REMARK    2  A    between atoms: C_7  and  C_13
REMARK    3  A    between atoms: C_8  and  C_12
REMARK    4  A    between atoms: C_12  and  C_14
REMARK    5  A    between atoms: C_13  and  C_15
REMARK    6  A    between atoms: C_17  and  C_19
REMARK    7  A    between atoms: C_18  and  C_20
REMARK                            x       y       z     vdW  Elec       q    Type
REMARK                         _______ _______ _______ _____ _____    ______ ____
ROOT
ATOM      4  N   UNL     1      -1.281   6.271  24.831  0.00  0.00    -0.316 NA
ATOM      7  C   UNL     1      -1.826   3.379  24.616  0.00  0.00    +0.004 C 
ATOM      8  C   UNL     1      -2.930   4.417  24.927  0.00  0.00    +0.012 C 
ATOM      9  C   UNL     1      -0.677   4.077  23.870  0.00  0.00    +0.019 C 
ATOM     10  C   UNL     1      -2.358   5.667  25.617  0.00  0.00    +0.085 C 
ATOM     11  C   UNL     1      -0.188   5.330  24.594  0.00  0.00    +0.081 C 
ATOM     29  H   UNL     1      -0.922   7.089  25.323  0.00  0.00    +0.122 HD
ENDROOT
BRANCH   8  12
ATOM     12  C   UNL     1      -4.087   3.837  25.742  0.00  0.00    +0.064 C 
BRANCH  12  14
ATOM      2  O   UNL     1      -5.535   0.744  24.600  0.00  0.00    -0.354 OA
ATOM      6  N   UNL     1      -5.601   2.105  24.879  0.00  0.00    -0.083 NA
ATOM     14  C   UNL     1      -4.387   2.423  25.335  0.00  0.00    +0.085 A 
ATOM     16  C   UNL     1      -3.522   1.316  25.369  0.00  0.00    +0.076 A 
ATOM     17  C   UNL     1      -4.292   0.286  24.896  0.00  0.00    +0.167 A 
BRANCH  17  19
ATOM     19  C   UNL     1      -4.072  -1.111  24.659  0.00  0.00    +0.020 A 
ATOM     21  C   UNL     1      -3.333  -1.865  25.571  0.00  0.00    +0.011 A 
ATOM     22  C   UNL     1      -4.597  -1.715  23.517  0.00  0.00    +0.011 A 
ATOM     24  C   UNL     1      -3.120  -3.224  25.341  0.00  0.00    +0.001 A 
ATOM     25  C   UNL     1      -4.382  -3.074  23.287  0.00  0.00    +0.001 A 
ATOM     28  C   UNL     1      -3.644  -3.828  24.198  0.00  0.00    +0.000 A 
ENDBRANCH  17  19
ENDBRANCH  12  14
ENDBRANCH   8  12
BRANCH   7  13
ATOM     13  C   UNL     1      -1.303   2.636  25.851  0.00  0.00    +0.099 C 
BRANCH  13  15
ATOM      1  O   UNL     1      -0.588   0.375  26.332  0.00  0.00    -0.276 OA
ATOM      5  N   UNL     1      -0.463   1.173  24.152  0.00  0.00    -0.308 N 
ATOM     15  C   UNL     1      -0.752   1.269  25.506  0.00  0.00    +0.214 C 
ATOM     30  H   UNL     1      -0.619   1.978  23.553  0.00  0.00    +0.149 HD
BRANCH   5  18
ATOM     18  C   UNL     1       0.077  -0.021  23.544  0.00  0.00    +0.178 C 
BRANCH  18  20
ATOM      3  O   UNL     1       2.194   1.174  23.576  0.00  0.00    -0.466 OA
ATOM     20  C   UNL     1       1.448   0.209  22.977  0.00  0.00    +0.122 A 
ATOM     23  C   UNL     1       2.147  -0.369  21.942  0.00  0.00    +0.046 A 
ATOM     26  C   UNL     1       3.401   0.284  21.901  0.00  0.00    +0.041 A 
ATOM     27  C   UNL     1       3.381   1.214  22.915  0.00  0.00    +0.195 A 
ENDBRANCH  18  20
ENDBRANCH   5  18
ENDBRANCH  13  15
ENDBRANCH   7  13
TORSDOF 7
ENDMDL
MODEL 5
REMARK VINA RESULT:      -0.8      1.734      2.239
REMARK  Name = 40777374
REMARK  7 active torsions:
REMARK  status: ('A' for Active; 'I' for Inactive)
REMARK    1  A    between atoms: N_5  and  C_18
REMARK    2  A    between atoms: C_7  and  C_13
REMARK    3  A    between atoms: C_8  and  C_12
REMARK    4  A    between atoms: C_12  and  C_14
REMARK    5  A    between atoms: C_13  and  C_15
REMARK    6  A    between atoms: C_17  and  C_19
REMARK    7  A    between atoms: C_18  and  C_20
REMARK                            x       y       z     vdW  Elec       q    Type
REMARK                         _______ _______ _______ _____ _____    ______ ____
ROOT
ATOM      4  N   UNL     1      -4.523   4.878  24.031  0.00  0.00    -0.316 NA
ATOM      7  C   UNL     1      -3.895   2.317  25.356  0.00  0.00    +0.004 C 
ATOM      8  C   UNL     1      -3.107   2.841  24.132  0.00  0.00    +0.012 C 
ATOM      9  C   UNL     1      -4.535   3.509  26.087  0.00  0.00    +0.019 C 
ATOM     10  C   UNL     1      -3.967   3.768  23.256  0.00  0.00    +0.085 C 
ATOM     11  C   UNL     1      -5.340   4.405  25.147  0.00  0.00    +0.081 C 
ATOM     29  H   UNL     1      -5.092   5.463  23.420  0.00  0.00    +0.122 HD
ENDROOT
BRANCH   8  12
ATOM     12  C   UNL     1      -2.495   1.720  23.289  0.00  0.00    +0.064 C 
BRANCH  12  14
ATOM      2  O   UNL     1       0.932   2.075  24.331  0.00  0.00    -0.354 OA
ATOM      6  N   UNL     1      -0.404   2.458  24.347  0.00  0.00    -0.083 NA
ATOM     14  C   UNL     1      -1.017   1.605  23.521  0.00  0.00    +0.085 A 
ATOM     16  C   UNL     1      -0.128   0.673  22.960  0.00  0.00    +0.076 A 
ATOM     17  C   UNL     1       1.085   1.011  23.502  0.00  0.00    +0.167 A 
BRANCH  17  19
ATOM     19  C   UNL     1       2.420   0.502  23.384  0.00  0.00    +0.020 A 
ATOM     21  C   UNL     1       3.446   1.335  22.938  0.00  0.00    +0.011 A 
ATOM     22  C   UNL     1       2.691  -0.825  23.714  0.00  0.00    +0.011 A 
ATOM     24  C   UNL     1       4.745   0.840  22.824  0.00  0.00    +0.001 A 
ATOM     25  C   UNL     1       3.991  -1.320  23.598  0.00  0.00    +0.001 A 
ATOM     28  C   UNL     1       5.017  -0.488  23.153  0.00  0.00    +0.000 A 
ENDBRANCH  17  19
ENDBRANCH  12  14
ENDBRANCH   8  12
BRANCH   7  13
ATOM     13  C   UNL     1      -4.948   1.257  25.013  0.00  0.00    +0.099 C 
BRANCH  13  15
ATOM      1  O   UNL     1      -4.283  -0.635  26.366  0.00  0.00    -0.276 OA
ATOM      5  N   UNL     1      -4.188  -0.799  24.049  0.00  0.00    -0.308 N 
ATOM     15  C   UNL     1      -4.442  -0.150  25.249  0.00  0.00    +0.214 C 
ATOM     30  H   UNL     1      -4.337  -0.302  23.175  0.00  0.00    +0.149 HD
BRANCH   5  18
ATOM     18  C   UNL     1      -3.695  -2.154  23.974  0.00  0.00    +0.178 C 
BRANCH  18  20
ATOM      3  O   UNL     1      -1.836  -1.259  25.260  0.00  0.00    -0.466 OA
ATOM     20  C   UNL     1      -2.278  -2.264  24.459  0.00  0.00    +0.122 A 
ATOM     23  C   UNL     1      -1.288  -3.199  24.265  0.00  0.00    +0.046 A 
ATOM     26  C   UNL     1      -0.164  -2.738  24.992  0.00  0.00    +0.041 A 
ATOM     27  C   UNL     1      -0.549  -1.554  25.580  0.00  0.00    +0.195 A 
ENDBRANCH  18  20
ENDBRANCH   5  18
ENDBRANCH  13  15
ENDBRANCH   7  13
TORSDOF 7
ENDMDL
MODEL 6
REMARK VINA RESULT:      -0.4      2.941      5.039
REMARK  Name = 40777374
REMARK  7 active torsions:
REMARK  status: ('A' for Active; 'I' for Inactive)
REMARK    1  A    between atoms: N_5  and  C_18
REMARK    2  A    between atoms: C_7  and  C_13
REMARK    3  A    between atoms: C_8  and  C_12
REMARK    4  A    between atoms: C_12  and  C_14
REMARK    5  A    between atoms: C_13  and  C_15
REMARK    6  A    between atoms: C_17  and  C_19
REMARK    7  A    between atoms: C_18  and  C_20
REMARK                            x       y       z     vdW  Elec       q    Type
REMARK                         _______ _______ _______ _____ _____    ______ ____
ROOT
ATOM      4  N   UNL     1      -6.281   2.995  24.924  0.00  0.00    -0.316 NA
ATOM      7  C   UNL     1      -4.045   1.094  25.229  0.00  0.00    +0.004 C 
ATOM      8  C   UNL     1      -3.834   2.580  24.851  0.00  0.00    +0.012 C 
ATOM      9  C   UNL     1      -5.379   0.953  25.980  0.00  0.00    +0.019 C 
ATOM     10  C   UNL     1      -5.063   3.163  24.131  0.00  0.00    +0.085 C 
ATOM     11  C   UNL     1      -6.544   1.589  25.224  0.00  0.00    +0.081 C 
ATOM     29  H   UNL     1      -7.072   3.384  24.412  0.00  0.00    +0.122 HD
ENDROOT
BRANCH   8  12
ATOM     12  C   UNL     1      -2.567   2.815  24.026  0.00  0.00    +0.064 C 
BRANCH  12  14
ATOM      2  O   UNL     1       0.762   2.524  25.366  0.00  0.00    -0.354 OA
ATOM      6  N   UNL     1      -0.140   2.561  24.309  0.00  0.00    -0.083 NA
ATOM     14  C   UNL     1      -1.336   2.728  24.880  0.00  0.00    +0.085 A 
ATOM     16  C   UNL     1      -1.253   2.802  26.281  0.00  0.00    +0.076 A 
ATOM     17  C   UNL     1       0.087   2.668  26.536  0.00  0.00    +0.167 A 
BRANCH  17  19
ATOM     19  C   UNL     1       0.891   2.649  27.723  0.00  0.00    +0.020 A 
ATOM     21  C   UNL     1       2.239   3.005  27.658  0.00  0.00    +0.011 A 
ATOM     22  C   UNL     1       0.326   2.277  28.942  0.00  0.00    +0.011 A 
ATOM     24  C   UNL     1       3.020   2.987  28.813  0.00  0.00    +0.001 A 
ATOM     25  C   UNL     1       1.108   2.259  30.097  0.00  0.00    +0.001 A 
ATOM     28  C   UNL     1       2.455   2.614  30.032  0.00  0.00    +0.000 A 
ENDBRANCH  17  19
ENDBRANCH  12  14
ENDBRANCH   8  12
BRANCH   7  13
ATOM     13  C   UNL     1      -3.985   0.132  24.036  0.00  0.00    +0.099 C 
BRANCH  13  15
ATOM      1  O   UNL     1      -3.085  -2.104  24.245  0.00  0.00    -0.276 OA
ATOM      5  N   UNL     1      -1.636  -0.286  24.240  0.00  0.00    -0.308 N 
ATOM     15  C   UNL     1      -2.882  -0.894  24.184  0.00  0.00    +0.214 C 
ATOM     30  H   UNL     1      -1.575   0.727  24.197  0.00  0.00    +0.149 HD
BRANCH   5  18
ATOM     18  C   UNL     1      -0.403  -1.026  24.380  0.00  0.00    +0.178 C 
BRANCH  18  20
ATOM      3  O   UNL     1       1.803  -0.205  23.774  0.00  0.00    -0.466 OA
ATOM     20  C   UNL     1       0.600  -0.651  23.327  0.00  0.00    +0.122 A 
ATOM     23  C   UNL     1       0.568  -0.661  21.952  0.00  0.00    +0.046 A 
ATOM     26  C   UNL     1       1.833  -0.191  21.526  0.00  0.00    +0.041 A 
ATOM     27  C   UNL     1       2.548   0.073  22.672  0.00  0.00    +0.195 A 
ENDBRANCH  18  20
ENDBRANCH   5  18
ENDBRANCH  13  15
ENDBRANCH   7  13
TORSDOF 7
ENDMDL
MODEL 7
REMARK VINA RESULT:       0.1      3.159      4.460
REMARK  Name = 40777374
REMARK  7 active torsions:
REMARK  status: ('A' for Active; 'I' for Inactive)
REMARK    1  A    between atoms: N_5  and  C_18
REMARK    2  A    between atoms: C_7  and  C_13
REMARK    3  A    between atoms: C_8  and  C_12
REMARK    4  A    between atoms: C_12  and  C_14
REMARK    5  A    between atoms: C_13  and  C_15
REMARK    6  A    between atoms: C_17  and  C_19
REMARK    7  A    between atoms: C_18  and  C_20
REMARK                            x       y       z     vdW  Elec       q    Type
REMARK                         _______ _______ _______ _____ _____    ______ ____
ROOT
ATOM      4  N   UNL     1      -6.195   4.333  25.752  0.00  0.00    -0.316 NA
ATOM      7  C   UNL     1      -4.693   1.814  25.425  0.00  0.00    +0.004 C 
ATOM      8  C   UNL     1      -4.030   3.206  25.297  0.00  0.00    +0.012 C 
ATOM      9  C   UNL     1      -5.951   1.937  26.301  0.00  0.00    +0.019 C 
ATOM     10  C   UNL     1      -5.040   4.279  24.855  0.00  0.00    +0.085 C 
ATOM     11  C   UNL     1      -6.886   3.046  25.824  0.00  0.00    +0.081 C 
ATOM     29  H   UNL     1      -6.845   5.046  25.423  0.00  0.00    +0.122 HD
ENDROOT
BRANCH   8  12
ATOM     12  C   UNL     1      -2.809   3.206  24.375  0.00  0.00    +0.064 C 
BRANCH  12  14
ATOM      2  O   UNL     1       0.486   2.279  25.491  0.00  0.00    -0.354 OA
ATOM      6  N   UNL     1      -0.488   2.410  24.509  0.00  0.00    -0.083 NA
ATOM     14  C   UNL     1      -1.547   2.925  25.139  0.00  0.00    +0.085 A 
ATOM     16  C   UNL     1      -1.304   3.137  26.507  0.00  0.00    +0.076 A 
ATOM     17  C   UNL     1      -0.011   2.715  26.677  0.00  0.00    +0.167 A 
BRANCH  17  19
ATOM     19  C   UNL     1       0.886   2.641  27.792  0.00  0.00    +0.020 A 
ATOM     21  C   UNL     1       0.408   2.264  29.048  0.00  0.00    +0.011 A 
ATOM     22  C   UNL     1       2.236   2.944  27.622  0.00  0.00    +0.011 A 
ATOM     24  C   UNL     1       1.282   2.191  30.132  0.00  0.00    +0.001 A 
ATOM     25  C   UNL     1       3.110   2.872  28.708  0.00  0.00    +0.001 A 
ATOM     28  C   UNL     1       2.632   2.495  29.963  0.00  0.00    +0.000 A 
ENDBRANCH  17  19
ENDBRANCH  12  14
ENDBRANCH   8  12
BRANCH   7  13
ATOM     13  C   UNL     1      -5.025   1.155  24.081  0.00  0.00    +0.099 C 
BRANCH  13  15
ATOM      1  O   UNL     1      -3.164   0.135  22.919  0.00  0.00    -0.276 OA
ATOM      5  N   UNL     1      -4.356  -1.109  24.480  0.00  0.00    -0.308 N 
ATOM     15  C   UNL     1      -4.069   0.031  23.742  0.00  0.00    +0.214 C 
ATOM     30  H   UNL     1      -5.140  -1.098  25.126  0.00  0.00    +0.149 HD
BRANCH   5  18
ATOM     18  C   UNL     1      -3.603  -2.336  24.359  0.00  0.00    +0.178 C 
BRANCH  18  20
ATOM      3  O   UNL     1      -1.913  -1.150  25.643  0.00  0.00    -0.466 OA
ATOM     20  C   UNL     1      -2.169  -2.157  24.766  0.00  0.00    +0.122 A 
ATOM     23  C   UNL     1      -1.008  -2.816  24.435  0.00  0.00    +0.046 A 
ATOM     26  C   UNL     1       0.028  -2.173  25.152  0.00  0.00    +0.041 A 
ATOM     27  C   UNL     1      -0.574  -1.167  25.873  0.00  0.00    +0.195 A 
ENDBRANCH  18  20
ENDBRANCH   5  18
ENDBRANCH  13  15
ENDBRANCH   7  13
TORSDOF 7
ENDMDL
