MODEL 1
REMARK VINA RESULT:       0.1      0.000      0.000
REMARK  Name = 51138096
REMARK  8 active torsions:
REMARK  status: ('A' for Active; 'I' for Inactive)
REMARK    1  A    between atoms: N_4  and  C_21
REMARK    2  A    between atoms: N_6  and  C_31
REMARK    3  A    between atoms: C_8  and  C_14
REMARK    4  A    between atoms: C_9  and  C_18
REMARK    5  A    between atoms: C_14  and  C_16
REMARK    6  A    between atoms: C_16  and  C_23
REMARK    7  A    between atoms: C_16  and  C_24
REMARK    8  A    between atoms: C_21  and  C_29
REMARK                            x       y       z     vdW  Elec       q    Type
REMARK                         _______ _______ _______ _____ _____    ______ ____
ROOT
ATOM      3  N   UNL     1      -7.023  -9.443  16.261  0.00  0.00    -0.299 NA
ATOM      4  N   UNL     1      -3.147 -10.565  13.224  0.00  0.00    -0.339 N 
ATOM      8  C   UNL     1      -7.598  -9.582  14.916  0.00  0.00    +0.085 C 
ATOM      9  C   UNL     1      -6.286 -10.607  16.731  0.00  0.00    +0.145 C 
ATOM     10  C   UNL     1      -6.593  -9.744  13.772  0.00  0.00    -0.021 A 
ATOM     11  C   UNL     1      -5.222 -10.103  13.928  0.00  0.00    +0.008 A 
ATOM     12  C   UNL     1      -4.784 -10.452  16.501  0.00  0.00    +0.065 C 
ATOM     13  C   UNL     1      -4.393 -10.416  15.061  0.00  0.00    -0.020 A 
ATOM     15  C   UNL     1      -4.410 -10.232  12.796  0.00  0.00    +0.050 A 
ATOM     17  C   UNL     1      -3.127 -10.684  14.583  0.00  0.00    +0.091 A 
ATOM     19  C   UNL     1      -7.054  -9.607  12.438  0.00  0.00    +0.006 A 
ATOM     20  C   UNL     1      -4.873 -10.046  11.492  0.00  0.00    +0.026 A 
ATOM     22  C   UNL     1      -6.219  -9.743  11.332  0.00  0.00    +0.002 A 
ATOM     33  H   UNL     1      -6.458  -8.597  16.329  0.00  0.00    +0.123 HD
ENDROOT
BRANCH   9  18
ATOM      1  O   UNL     1      -5.604 -10.706  18.990  0.00  0.00    -0.274 OA
ATOM      2  O   UNL     1     -10.471  -9.978  19.472  0.00  0.00    -0.377 OA
ATOM      5  N   UNL     1      -7.891 -10.690  18.593  0.00  0.00    -0.296 N 
ATOM     18  C   UNL     1      -6.553 -10.673  18.204  0.00  0.00    +0.233 C 
ATOM     25  C   UNL     1      -9.040 -10.781  17.686  0.00  0.00    +0.136 C 
ATOM     26  C   UNL     1      -8.240 -10.749  20.011  0.00  0.00    +0.136 C 
ATOM     27  C   UNL     1     -10.119  -9.787  18.100  0.00  0.00    +0.179 C 
ATOM     28  C   UNL     1      -9.347  -9.754  20.327  0.00  0.00    +0.179 C 
ENDBRANCH   9  18
BRANCH   8  14
ATOM     14  C   UNL     1      -8.493  -8.341  14.745  0.00  0.00    +0.026 C 
BRANCH  14  16
ATOM     16  C   UNL     1      -9.978  -8.689  14.604  0.00  0.00    -0.015 C 
ATOM     23  C   UNL     1     -10.675  -7.869  13.517  0.00  0.00    +0.007 C 
ATOM     24  C   UNL     1     -10.119 -10.181  14.297  0.00  0.00    +0.007 C 
ENDBRANCH  14  16
ENDBRANCH   8  14
BRANCH   4  21
ATOM     21  C   UNL     1      -1.997 -10.781  12.372  0.00  0.00    +0.196 C 
BRANCH  21  29
ATOM      6  N   UNL     1      -0.591  -8.944  13.367  0.00  0.00    -0.336 N 
ATOM      7  N   UNL     1      -0.701  -9.004  11.149  0.00  0.00    -0.239 NA
ATOM     29  C   UNL     1      -1.097  -9.576  12.265  0.00  0.00    +0.129 A 
ATOM     30  C   UNL     1       0.177  -7.903  12.926  0.00  0.00    +0.106 A 
ATOM     31  C   UNL     1      -0.816  -9.297  14.748  0.00  0.00    +0.150 C 
ATOM     32  C   UNL     1       0.094  -7.961  11.554  0.00  0.00    +0.130 A 
ENDBRANCH  21  29
ENDBRANCH   4  21
TORSDOF 5
ENDMDL
MODEL 2
REMARK VINA RESULT:       2.7     14.055     15.591
REMARK  Name = 51138096
REMARK  8 active torsions:
REMARK  status: ('A' for Active; 'I' for Inactive)
REMARK    1  A    between atoms: N_4  and  C_21
REMARK    2  A    between atoms: N_6  and  C_31
REMARK    3  A    between atoms: C_8  and  C_14
REMARK    4  A    between atoms: C_9  and  C_18
REMARK    5  A    between atoms: C_14  and  C_16
REMARK    6  A    between atoms: C_16  and  C_23
REMARK    7  A    between atoms: C_16  and  C_24
REMARK    8  A    between atoms: C_21  and  C_29
REMARK                            x       y       z     vdW  Elec       q    Type
REMARK                         _______ _______ _______ _____ _____    ______ ____
ROOT
ATOM      3  N   UNL     1      -2.830   1.698  25.206  0.00  0.00    -0.299 NA
ATOM      4  N   UNL     1       1.481   0.137  23.086  0.00  0.00    -0.339 N 
ATOM      8  C   UNL     1      -2.555   0.376  25.786  0.00  0.00    +0.085 C 
ATOM      9  C   UNL     1      -1.759   2.670  25.375  0.00  0.00    +0.145 C 
ATOM     10  C   UNL     1      -1.388  -0.399  25.168  0.00  0.00    -0.021 A 
ATOM     11  C   UNL     1      -0.370   0.169  24.346  0.00  0.00    +0.008 A 
ATOM     12  C   UNL     1      -0.868   2.746  24.137  0.00  0.00    +0.065 C 
ATOM     13  C   UNL     1      -0.094   1.498  23.871  0.00  0.00    -0.020 A 
ATOM     15  C   UNL     1       0.653  -0.649  23.853  0.00  0.00    +0.050 A 
ATOM     17  C   UNL     1       1.045   1.429  23.095  0.00  0.00    +0.091 A 
ATOM     19  C   UNL     1      -1.241  -1.774  25.483  0.00  0.00    +0.006 A 
ATOM     20  C   UNL     1       0.753  -2.012  24.137  0.00  0.00    +0.026 A 
ATOM     22  C   UNL     1      -0.209  -2.559  24.976  0.00  0.00    +0.002 A 
ATOM     33  H   UNL     1      -3.101   1.615  24.226  0.00  0.00    +0.123 HD
ENDROOT
BRANCH   9  18
ATOM      1  O   UNL     1      -1.812   5.031  25.419  0.00  0.00    -0.274 OA
ATOM      2  O   UNL     1      -6.619   3.939  25.821  0.00  0.00    -0.377 OA
ATOM      5  N   UNL     1      -3.802   3.935  25.898  0.00  0.00    -0.296 N 
ATOM     18  C   UNL     1      -2.450   3.986  25.564  0.00  0.00    +0.233 C 
ATOM     25  C   UNL     1      -4.559   2.716  26.203  0.00  0.00    +0.136 C 
ATOM     26  C   UNL     1      -4.554   5.174  26.096  0.00  0.00    +0.136 C 
ATOM     27  C   UNL     1      -5.908   2.742  25.495  0.00  0.00    +0.179 C 
ATOM     28  C   UNL     1      -5.899   5.097  25.389  0.00  0.00    +0.179 C 
ENDBRANCH   9  18
BRANCH   8  14
ATOM     14  C   UNL     1      -3.891  -0.382  25.676  0.00  0.00    +0.026 C 
BRANCH  14  16
ATOM     16  C   UNL     1      -4.374  -0.536  24.231  0.00  0.00    -0.015 C 
ATOM     23  C   UNL     1      -3.570   0.316  23.247  0.00  0.00    +0.007 C 
ATOM     24  C   UNL     1      -4.293  -2.009  23.825  0.00  0.00    +0.007 C 
ENDBRANCH  14  16
ENDBRANCH   8  14
BRANCH   4  21
ATOM     21  C   UNL     1       2.659  -0.319  22.381  0.00  0.00    +0.196 C 
BRANCH  21  29
ATOM      6  N   UNL     1       4.665  -0.920  23.780  0.00  0.00    -0.336 N 
ATOM      7  N   UNL     1       4.521   1.199  23.130  0.00  0.00    -0.239 NA
ATOM     29  C   UNL     1       3.948   0.017  23.089  0.00  0.00    +0.129 A 
ATOM     30  C   UNL     1       5.766  -0.295  24.295  0.00  0.00    +0.106 A 
ATOM     31  C   UNL     1       4.336  -2.316  23.945  0.00  0.00    +0.150 C 
ATOM     32  C   UNL     1       5.655   1.012  23.881  0.00  0.00    +0.130 A 
ENDBRANCH  21  29
ENDBRANCH   4  21
TORSDOF 5
ENDMDL
