MODEL 1
REMARK VINA RESULT:      -5.6      0.000      0.000
REMARK  Name = 45360667
REMARK  8 active torsions:
REMARK  status: ('A' for Active; 'I' for Inactive)
REMARK    1  A    between atoms: N_5  and  C_9
REMARK    2  A    between atoms: N_5  and  C_17
REMARK    3  A    between atoms: N_6  and  C_21
REMARK    4  A    between atoms: C_10  and  C_15
REMARK    5  A    between atoms: C_15  and  C_16
REMARK    6  A    between atoms: C_16  and  C_18
REMARK    7  A    between atoms: C_17  and  C_19
REMARK    8  A    between atoms: C_21  and  C_24
REMARK                            x       y       z     vdW  Elec       q    Type
REMARK                         _______ _______ _______ _____ _____    ______ ____
ROOT
ATOM      1  O   UNL     1       0.902   2.364  27.142  0.00  0.00    -0.274 OA
ATOM      3  N   UNL     1      -1.697   1.862  24.627  0.00  0.00    -0.286 NA
ATOM      4  N   UNL     1      -0.022   3.849  25.688  0.00  0.00    -0.313 N 
ATOM      8  C   UNL     1      -0.947   1.543  25.849  0.00  0.00    +0.145 C 
ATOM      9  C   UNL     1      -0.629  -0.096  24.087  0.00  0.00    +0.070 C 
ATOM     10  C   UNL     1      -2.095   3.261  24.515  0.00  0.00    +0.075 C 
ATOM     11  C   UNL     1      -0.242   0.215  25.532  0.00  0.00    +0.048 C 
ATOM     12  C   UNL     1      -0.968   1.271  23.507  0.00  0.00    +0.104 C 
ATOM     13  C   UNL     1      -0.883   4.176  24.574  0.00  0.00    +0.123 C 
ATOM     14  C   UNL     1       0.067   2.605  26.264  0.00  0.00    +0.230 C 
ATOM     31  H   UNL     1       0.644   4.553  25.988  0.00  0.00    +0.149 HD
ENDROOT
BRANCH   9   5
ATOM      5  N   UNL     1       0.416  -0.793  23.353  0.00  0.00    -0.307 NA
ATOM     32  H   UNL     1       0.982  -1.330  24.012  0.00  0.00    +0.123 HD
BRANCH   5  17
ATOM     17  C   UNL     1       1.275   0.147  22.646  0.00  0.00    +0.136 C 
BRANCH  17  19
ATOM      7  N   UNL     1       3.077  -1.238  23.502  0.00  0.00    -0.259 NA
ATOM     19  C   UNL     1       2.721  -0.032  23.006  0.00  0.00    +0.055 A 
ATOM     20  C   UNL     1       3.603   1.020  22.817  0.00  0.00    +0.024 A 
ATOM     22  C   UNL     1       4.936   0.821  23.159  0.00  0.00    +0.003 A 
ATOM     23  C   UNL     1       4.381  -1.394  23.824  0.00  0.00    +0.111 A 
ATOM     25  C   UNL     1       5.341  -0.405  23.673  0.00  0.00    +0.020 A 
ENDBRANCH  17  19
ENDBRANCH   5  17
ENDBRANCH   9   5
BRANCH  10  15
ATOM     15  C   UNL     1      -2.934   3.541  23.268  0.00  0.00    +0.029 C 
BRANCH  15  16
ATOM     16  C   UNL     1      -4.353   3.949  23.638  0.00  0.00    +0.097 C 
BRANCH  16  18
ATOM      2  O   UNL     1      -5.637   3.476  25.635  0.00  0.00    -0.276 OA
ATOM      6  N   UNL     1      -4.602   1.724  24.517  0.00  0.00    -0.311 N 
ATOM     18  C   UNL     1      -4.944   3.054  24.713  0.00  0.00    +0.213 C 
ATOM     33  H   UNL     1      -4.000   1.463  23.742  0.00  0.00    +0.149 HD
BRANCH   6  21
ATOM     21  C   UNL     1      -5.042   0.677  25.407  0.00  0.00    +0.139 C 
BRANCH  21  24
ATOM     24  C   UNL     1      -4.347  -0.625  25.131  0.00  0.00    -0.030 A 
ATOM     26  C   UNL     1      -3.528  -1.199  26.103  0.00  0.00    +0.005 A 
ATOM     27  C   UNL     1      -4.521  -1.261  23.901  0.00  0.00    +0.005 A 
ATOM     28  C   UNL     1      -2.883  -2.408  25.846  0.00  0.00    +0.000 A 
ATOM     29  C   UNL     1      -3.875  -2.470  23.644  0.00  0.00    +0.000 A 
ATOM     30  C   UNL     1      -3.056  -3.045  24.617  0.00  0.00    +0.000 A 
ENDBRANCH  21  24
ENDBRANCH   6  21
ENDBRANCH  16  18
ENDBRANCH  15  16
ENDBRANCH  10  15
TORSDOF 8
ENDMDL
MODEL 2
REMARK VINA RESULT:      -3.3      1.438      2.124
REMARK  Name = 45360667
REMARK  8 active torsions:
REMARK  status: ('A' for Active; 'I' for Inactive)
REMARK    1  A    between atoms: N_5  and  C_9
REMARK    2  A    between atoms: N_5  and  C_17
REMARK    3  A    between atoms: N_6  and  C_21
REMARK    4  A    between atoms: C_10  and  C_15
REMARK    5  A    between atoms: C_15  and  C_16
REMARK    6  A    between atoms: C_16  and  C_18
REMARK    7  A    between atoms: C_17  and  C_19
REMARK    8  A    between atoms: C_21  and  C_24
REMARK                            x       y       z     vdW  Elec       q    Type
REMARK                         _______ _______ _______ _____ _____    ______ ____
ROOT
ATOM      1  O   UNL     1      -0.421  -1.728  25.957  0.00  0.00    -0.274 OA
ATOM      3  N   UNL     1      -0.813   1.358  24.046  0.00  0.00    -0.286 NA
ATOM      4  N   UNL     1      -0.323   0.436  26.651  0.00  0.00    -0.313 N 
ATOM      8  C   UNL     1      -0.980  -0.079  24.305  0.00  0.00    +0.145 C 
ATOM      9  C   UNL     1       0.489   0.381  22.428  0.00  0.00    +0.070 C 
ATOM     10  C   UNL     1      -1.148   2.215  25.177  0.00  0.00    +0.075 C 
ATOM     11  C   UNL     1      -0.143  -0.767  23.215  0.00  0.00    +0.048 C 
ATOM     12  C   UNL     1       0.497   1.534  23.423  0.00  0.00    +0.104 C 
ATOM     13  C   UNL     1      -0.311   1.858  26.394  0.00  0.00    +0.123 C 
ATOM     14  C   UNL     1      -0.530  -0.527  25.693  0.00  0.00    +0.230 C 
ATOM     31  H   UNL     1      -0.045   0.124  27.575  0.00  0.00    +0.149 HD
ENDROOT
BRANCH   9   5
ATOM      5  N   UNL     1       1.808   0.057  21.906  0.00  0.00    -0.307 NA
ATOM     32  H   UNL     1       2.042  -0.901  22.167  0.00  0.00    +0.123 HD
BRANCH   5  17
ATOM     17  C   UNL     1       2.819   0.956  22.447  0.00  0.00    +0.136 C 
BRANCH  17  19
ATOM      7  N   UNL     1       3.707  -1.097  23.394  0.00  0.00    -0.259 NA
ATOM     19  C   UNL     1       3.930   0.209  23.126  0.00  0.00    +0.055 A 
ATOM     20  C   UNL     1       5.105   0.875  23.439  0.00  0.00    +0.024 A 
ATOM     22  C   UNL     1       6.114   0.154  24.067  0.00  0.00    +0.003 A 
ATOM     23  C   UNL     1       4.711  -1.765  24.004  0.00  0.00    +0.111 A 
ATOM     25  C   UNL     1       5.922  -1.191  24.358  0.00  0.00    +0.020 A 
ENDBRANCH  17  19
ENDBRANCH   5  17
ENDBRANCH   9   5
BRANCH  10  15
ATOM     15  C   UNL     1      -1.031   3.704  24.848  0.00  0.00    +0.029 C 
BRANCH  15  16
ATOM     16  C   UNL     1      -2.387   4.296  24.489  0.00  0.00    +0.097 C 
BRANCH  16  18
ATOM      2  O   UNL     1      -4.075   3.820  26.158  0.00  0.00    -0.276 OA
ATOM      6  N   UNL     1      -3.884   2.423  24.314  0.00  0.00    -0.311 N 
ATOM     18  C   UNL     1      -3.535   3.512  25.098  0.00  0.00    +0.213 C 
ATOM     33  H   UNL     1      -3.367   2.222  23.463  0.00  0.00    +0.149 HD
BRANCH   6  21
ATOM     21  C   UNL     1      -4.948   1.519  24.680  0.00  0.00    +0.139 C 
BRANCH  21  24
ATOM     24  C   UNL     1      -4.469   0.100  24.790  0.00  0.00    -0.030 A 
ATOM     26  C   UNL     1      -4.515  -0.739  23.677  0.00  0.00    +0.005 A 
ATOM     27  C   UNL     1      -3.976  -0.377  26.004  0.00  0.00    +0.005 A 
ATOM     28  C   UNL     1      -4.069  -2.056  23.778  0.00  0.00    +0.000 A 
ATOM     29  C   UNL     1      -3.530  -1.694  26.106  0.00  0.00    +0.000 A 
ATOM     30  C   UNL     1      -3.576  -2.535  24.993  0.00  0.00    +0.000 A 
ENDBRANCH  21  24
ENDBRANCH   6  21
ENDBRANCH  16  18
ENDBRANCH  15  16
ENDBRANCH  10  15
TORSDOF 8
ENDMDL
