MODEL 1
REMARK VINA RESULT:      -5.0      0.000      0.000
REMARK  Name = 75536066
REMARK  6 active torsions:
REMARK  status: ('A' for Active; 'I' for Inactive)
REMARK    1  A    between atoms: O_1  and  C_9
REMARK    2  A    between atoms: O_2  and  C_11
REMARK    3  A    between atoms: N_4  and  C_8
REMARK    4  A    between atoms: C_7  and  C_12
REMARK    5  A    between atoms: C_15  and  C_17
REMARK    6  A    between atoms: C_23  and  C_24
REMARK                            x       y       z     vdW  Elec       q    Type
REMARK                         _______ _______ _______ _____ _____    ______ ____
ROOT
ATOM      7  C   UNL     1      -6.657 -10.163  10.448  0.00  0.00    +0.046 C 
ATOM      8  C   UNL     1      -5.654  -9.284  11.231  0.00  0.00    +0.112 C 
ATOM      9  C   UNL     1      -4.294  -9.767  10.733  0.00  0.00    +0.164 C 
ATOM     10  C   UNL     1      -5.901 -10.638   9.180  0.00  0.00    +0.044 C 
ATOM     11  C   UNL     1      -4.526  -9.978   9.241  0.00  0.00    +0.145 C 
ENDROOT
BRANCH   7  12
ATOM      5  N   UNL     1      -9.171  -7.743   8.961  0.00  0.00    -0.263 NA
ATOM     12  C   UNL     1      -7.968  -9.459  10.166  0.00  0.00    -0.024 A 
ATOM     13  C   UNL     1      -9.139  -9.840  10.809  0.00  0.00    +0.007 A 
ATOM     14  C   UNL     1      -8.036  -8.414   9.259  0.00  0.00    +0.114 A 
ATOM     16  C   UNL     1     -10.327  -9.173  10.531  0.00  0.00    +0.020 A 
ATOM     18  C   UNL     1     -10.290  -8.141   9.607  0.00  0.00    +0.111 A 
ENDBRANCH   7  12
BRANCH   8   4
ATOM      3  O   UNL     1      -3.924 -10.781  12.967  0.00  0.00    -0.270 OA
ATOM      4  N   UNL     1      -5.794  -9.445  12.657  0.00  0.00    -0.305 N 
ATOM     15  C   UNL     1      -4.904 -10.191  13.416  0.00  0.00    +0.244 C 
ATOM     25  H   UNL     1      -6.597  -9.003  13.091  0.00  0.00    +0.149 HD
BRANCH  15  17
ATOM     17  C   UNL     1      -5.202 -10.281  14.869  0.00  0.00    +0.037 A 
ATOM     19  C   UNL     1      -4.163 -10.446  15.785  0.00  0.00    +0.014 A 
ATOM     20  C   UNL     1      -6.521 -10.198  15.315  0.00  0.00    +0.014 A 
ATOM     21  C   UNL     1      -4.445 -10.530  17.149  0.00  0.00    +0.019 A 
ATOM     22  C   UNL     1      -6.801 -10.282  16.680  0.00  0.00    +0.019 A 
ATOM     23  C   UNL     1      -5.763 -10.447  17.596  0.00  0.00    +0.052 A 
BRANCH  23  24
ATOM      6  N   UNL     1      -6.285 -10.603  20.128  0.00  0.00    -0.191 NA
ATOM     24  C   UNL     1      -6.051 -10.533  18.993  0.00  0.00    +0.099 C 
ENDBRANCH  23  24
ENDBRANCH  15  17
ENDBRANCH   8   4
BRANCH   9   1
ATOM      1  O   UNL     1      -3.271  -8.816  10.963  0.00  0.00    -0.387 OA
ATOM     26  H   UNL     1      -2.420  -9.253  10.780  0.00  0.00    +0.210 HD
ENDBRANCH   9   1
BRANCH  11   2
ATOM      2  O   UNL     1      -4.587  -8.731   8.555  0.00  0.00    -0.389 OA
ATOM     27  H   UNL     1      -3.678  -8.490   8.306  0.00  0.00    +0.210 HD
ENDBRANCH  11   2
TORSDOF 6
ENDMDL
MODEL 2
REMARK VINA RESULT:      -3.7      3.112      6.160
REMARK  Name = 75536066
REMARK  6 active torsions:
REMARK  status: ('A' for Active; 'I' for Inactive)
REMARK    1  A    between atoms: O_1  and  C_9
REMARK    2  A    between atoms: O_2  and  C_11
REMARK    3  A    between atoms: N_4  and  C_8
REMARK    4  A    between atoms: C_7  and  C_12
REMARK    5  A    between atoms: C_15  and  C_17
REMARK    6  A    between atoms: C_23  and  C_24
REMARK                            x       y       z     vdW  Elec       q    Type
REMARK                         _______ _______ _______ _____ _____    ______ ____
ROOT
ATOM      7  C   UNL     1      -8.207 -10.195  13.165  0.00  0.00    +0.046 C 
ATOM      8  C   UNL     1      -7.816  -9.051  12.201  0.00  0.00    +0.112 C 
ATOM      9  C   UNL     1      -8.543  -9.411  10.907  0.00  0.00    +0.164 C 
ATOM     10  C   UNL     1      -9.534 -10.777  12.612  0.00  0.00    +0.044 C 
ATOM     11  C   UNL     1      -9.893  -9.922  11.399  0.00  0.00    +0.145 C 
ENDROOT
BRANCH   7  12
ATOM      5  N   UNL     1      -7.176  -9.526  16.754  0.00  0.00    -0.263 NA
ATOM     12  C   UNL     1      -8.274  -9.754  14.612  0.00  0.00    -0.024 A 
ATOM     13  C   UNL     1      -9.432  -9.193  15.137  0.00  0.00    +0.007 A 
ATOM     14  C   UNL     1      -7.183  -9.897  15.454  0.00  0.00    +0.114 A 
ATOM     16  C   UNL     1      -9.464  -8.799  16.470  0.00  0.00    +0.020 A 
ATOM     18  C   UNL     1      -8.320  -8.985  17.229  0.00  0.00    +0.111 A 
ENDBRANCH   7  12
BRANCH   8   4
ATOM      3  O   UNL     1      -6.196 -10.781  10.580  0.00  0.00    -0.270 OA
ATOM      4  N   UNL     1      -6.390  -8.968  12.012  0.00  0.00    -0.305 N 
ATOM     15  C   UNL     1      -5.690  -9.853  11.205  0.00  0.00    +0.244 C 
ATOM     25  H   UNL     1      -5.902  -8.237  12.520  0.00  0.00    +0.149 HD
BRANCH  15  17
ATOM     17  C   UNL     1      -4.219  -9.649  11.137  0.00  0.00    +0.037 A 
ATOM     19  C   UNL     1      -3.380 -10.316  12.029  0.00  0.00    +0.014 A 
ATOM     20  C   UNL     1      -3.679  -8.791  10.178  0.00  0.00    +0.014 A 
ATOM     21  C   UNL     1      -2.000 -10.125  11.963  0.00  0.00    +0.019 A 
ATOM     22  C   UNL     1      -2.298  -8.601  10.113  0.00  0.00    +0.019 A 
ATOM     23  C   UNL     1      -1.459  -9.268  11.004  0.00  0.00    +0.052 A 
BRANCH  23  24
ATOM      6  N   UNL     1       1.103  -8.912  10.883  0.00  0.00    -0.191 NA
ATOM     24  C   UNL     1      -0.045  -9.072  10.938  0.00  0.00    +0.099 C 
ENDBRANCH  23  24
ENDBRANCH  15  17
ENDBRANCH   8   4
BRANCH   9   1
ATOM      1  O   UNL     1      -8.699  -8.295  10.051  0.00  0.00    -0.387 OA
ATOM     26  H   UNL     1      -9.525  -7.847  10.304  0.00  0.00    +0.210 HD
ENDBRANCH   9   1
BRANCH  11   2
ATOM      2  O   UNL     1     -10.719  -8.844  11.828  0.00  0.00    -0.389 OA
ATOM     27  H   UNL     1     -11.231  -9.156  12.594  0.00  0.00    +0.210 HD
ENDBRANCH  11   2
TORSDOF 6
ENDMDL
MODEL 3
REMARK VINA RESULT:      -3.5     15.198     17.265
REMARK  Name = 75536066
REMARK  6 active torsions:
REMARK  status: ('A' for Active; 'I' for Inactive)
REMARK    1  A    between atoms: O_1  and  C_9
REMARK    2  A    between atoms: O_2  and  C_11
REMARK    3  A    between atoms: N_4  and  C_8
REMARK    4  A    between atoms: C_7  and  C_12
REMARK    5  A    between atoms: C_15  and  C_17
REMARK    6  A    between atoms: C_23  and  C_24
REMARK                            x       y       z     vdW  Elec       q    Type
REMARK                         _______ _______ _______ _____ _____    ______ ____
ROOT
ATOM      7  C   UNL     1      -1.984  -0.188  25.558  0.00  0.00    +0.046 C 
ATOM      8  C   UNL     1      -1.441  -1.006  24.364  0.00  0.00    +0.112 C 
ATOM      9  C   UNL     1      -1.883  -2.433  24.678  0.00  0.00    +0.164 C 
ATOM     10  C   UNL     1      -3.157  -1.020  26.140  0.00  0.00    +0.044 C 
ATOM     11  C   UNL     1      -3.289  -2.244  25.237  0.00  0.00    +0.145 C 
ENDROOT
BRANCH   7  12
ATOM      5  N   UNL     1      -1.724   3.565  25.069  0.00  0.00    -0.263 NA
ATOM     12  C   UNL     1      -2.351   1.233  25.185  0.00  0.00    -0.024 A 
ATOM     13  C   UNL     1      -3.593   1.532  24.637  0.00  0.00    +0.007 A 
ATOM     14  C   UNL     1      -1.460   2.276  25.379  0.00  0.00    +0.114 A 
ATOM     16  C   UNL     1      -3.903   2.846  24.306  0.00  0.00    +0.020 A 
ATOM     18  C   UNL     1      -2.942   3.817  24.539  0.00  0.00    +0.111 A 
ENDBRANCH   7  12
BRANCH   8   4
ATOM      3  O   UNL     1       0.010   0.600  22.475  0.00  0.00    -0.270 OA
ATOM      4  N   UNL     1      -0.008  -0.900  24.244  0.00  0.00    -0.305 N 
ATOM     15  C   UNL     1       0.605  -0.094  23.296  0.00  0.00    +0.244 C 
ATOM     25  H   UNL     1       0.548  -1.466  24.876  0.00  0.00    +0.149 HD
BRANCH  15  17
ATOM     17  C   UNL     1       2.092  -0.116  23.285  0.00  0.00    +0.037 A 
ATOM     19  C   UNL     1       2.803   1.014  22.882  0.00  0.00    +0.014 A 
ATOM     20  C   UNL     1       2.774  -1.267  23.679  0.00  0.00    +0.014 A 
ATOM     21  C   UNL     1       4.197   0.992  22.873  0.00  0.00    +0.019 A 
ATOM     22  C   UNL     1       4.169  -1.287  23.670  0.00  0.00    +0.019 A 
ATOM     23  C   UNL     1       4.881  -0.158  23.268  0.00  0.00    +0.052 A 
BRANCH  23  24
ATOM      6  N   UNL     1       7.470  -0.197  23.249  0.00  0.00    -0.191 NA
ATOM     24  C   UNL     1       6.309  -0.179  23.258  0.00  0.00    +0.099 C 
ENDBRANCH  23  24
ENDBRANCH  15  17
ENDBRANCH   8   4
BRANCH   9   1
ATOM      1  O   UNL     1      -1.896  -3.256  23.527  0.00  0.00    -0.387 OA
ATOM     26  H   UNL     1      -1.634  -2.704  22.771  0.00  0.00    +0.210 HD
ENDBRANCH   9   1
BRANCH  11   2
ATOM      2  O   UNL     1      -4.215  -1.946  24.196  0.00  0.00    -0.389 OA
ATOM     27  H   UNL     1      -4.136  -0.997  23.999  0.00  0.00    +0.210 HD
ENDBRANCH  11   2
TORSDOF 6
ENDMDL
MODEL 4
REMARK VINA RESULT:      -2.1     14.669     17.357
REMARK  Name = 75536066
REMARK  6 active torsions:
REMARK  status: ('A' for Active; 'I' for Inactive)
REMARK    1  A    between atoms: O_1  and  C_9
REMARK    2  A    between atoms: O_2  and  C_11
REMARK    3  A    between atoms: N_4  and  C_8
REMARK    4  A    between atoms: C_7  and  C_12
REMARK    5  A    between atoms: C_15  and  C_17
REMARK    6  A    between atoms: C_23  and  C_24
REMARK                            x       y       z     vdW  Elec       q    Type
REMARK                         _______ _______ _______ _____ _____    ______ ____
ROOT
ATOM      7  C   UNL     1      -2.107   1.000  23.664  0.00  0.00    +0.046 C 
ATOM      8  C   UNL     1      -1.190   1.652  24.725  0.00  0.00    +0.112 C 
ATOM      9  C   UNL     1      -1.469   3.145  24.568  0.00  0.00    +0.164 C 
ATOM     10  C   UNL     1      -3.239   2.027  23.398  0.00  0.00    +0.044 C 
ATOM     11  C   UNL     1      -2.976   3.195  24.345  0.00  0.00    +0.145 C 
ENDROOT
BRANCH   7  12
ATOM      5  N   UNL     1      -2.137  -2.497  25.133  0.00  0.00    -0.263 NA
ATOM     12  C   UNL     1      -2.594  -0.376  24.066  0.00  0.00    -0.024 A 
ATOM     13  C   UNL     1      -3.884  -0.796  23.766  0.00  0.00    +0.007 A 
ATOM     14  C   UNL     1      -1.767  -1.256  24.746  0.00  0.00    +0.114 A 
ATOM     16  C   UNL     1      -4.302  -2.066  24.147  0.00  0.00    +0.020 A 
ATOM     18  C   UNL     1      -3.399  -2.870  24.823  0.00  0.00    +0.111 A 
ENDBRANCH   7  12
BRANCH   8   4
ATOM      3  O   UNL     1      -0.057   0.434  22.384  0.00  0.00    -0.270 OA
ATOM      4  N   UNL     1       0.199   1.337  24.505  0.00  0.00    -0.305 N 
ATOM     15  C   UNL     1       0.655   0.746  23.335  0.00  0.00    +0.244 C 
ATOM     25  H   UNL     1       0.842   1.547  25.261  0.00  0.00    +0.149 HD
BRANCH  15  17
ATOM     17  C   UNL     1       2.113   0.462  23.274  0.00  0.00    +0.037 A 
ATOM     19  C   UNL     1       3.004   1.464  22.888  0.00  0.00    +0.014 A 
ATOM     20  C   UNL     1       2.589  -0.807  23.605  0.00  0.00    +0.014 A 
ATOM     21  C   UNL     1       4.371   1.195  22.832  0.00  0.00    +0.019 A 
ATOM     22  C   UNL     1       3.957  -1.074  23.549  0.00  0.00    +0.019 A 
ATOM     23  C   UNL     1       4.848  -0.073  23.164  0.00  0.00    +0.052 A 
BRANCH  23  24
ATOM      6  N   UNL     1       7.387  -0.569  23.058  0.00  0.00    -0.191 NA
ATOM     24  C   UNL     1       6.249  -0.347  23.106  0.00  0.00    +0.099 C 
ENDBRANCH  23  24
ENDBRANCH  15  17
ENDBRANCH   8   4
BRANCH   9   1
ATOM      1  O   UNL     1      -1.097   3.884  25.716  0.00  0.00    -0.387 OA
ATOM     26  H   UNL     1      -0.809   3.246  26.393  0.00  0.00    +0.210 HD
ENDBRANCH   9   1
BRANCH  11   2
ATOM      2  O   UNL     1      -3.678   2.962  25.562  0.00  0.00    -0.389 OA
ATOM     27  H   UNL     1      -3.201   2.267  26.046  0.00  0.00    +0.210 HD
ENDBRANCH  11   2
TORSDOF 6
ENDMDL
