MODEL 1
REMARK VINA RESULT:       9.5      0.000      0.000
REMARK  Name = 25389662
REMARK  7 active torsions:
REMARK  status: ('A' for Active; 'I' for Inactive)
REMARK    1  A    between atoms: O_2  and  C_19
REMARK    2  A    between atoms: O_2  and  C_31
REMARK    3  A    between atoms: N_6  and  C_10
REMARK    4  A    between atoms: N_6  and  C_20
REMARK    5  A    between atoms: C_8  and  C_16
REMARK    6  A    between atoms: C_12  and  C_19
REMARK    7  A    between atoms: C_20  and  C_26
REMARK                            x       y       z     vdW  Elec       q    Type
REMARK                         _______ _______ _______ _____ _____    ______ ____
ROOT
ATOM      4  N   UNL     1      -0.927   1.581  25.929  0.00  0.00    -0.274 NA
ATOM      5  N   UNL     1      -3.683   0.096  23.855  0.00  0.00    -0.356 N 
ATOM      7  C   UNL     1      -1.945   1.697  24.840  0.00  0.00    +0.106 C 
ATOM      8  C   UNL     1      -0.274   2.883  26.219  0.00  0.00    +0.093 C 
ATOM      9  C   UNL     1      -3.022   2.729  25.211  0.00  0.00    +0.044 C 
ATOM     10  C   UNL     1      -2.386   4.095  25.468  0.00  0.00    +0.058 C 
ATOM     11  C   UNL     1      -1.324   3.968  26.558  0.00  0.00    +0.042 C 
ATOM     12  C   UNL     1       0.012   0.444  25.726  0.00  0.00    +0.172 C 
ATOM     13  C   UNL     1      -2.543   0.349  24.565  0.00  0.00    +0.038 A 
ATOM     14  C   UNL     1      -0.713  -0.926  25.696  0.00  0.00    +0.068 C 
ATOM     15  C   UNL     1      -1.988  -0.857  24.929  0.00  0.00    -0.016 A 
ATOM     17  C   UNL     1      -2.840  -1.890  24.454  0.00  0.00    +0.003 A 
ATOM     18  C   UNL     1      -3.897  -1.265  23.784  0.00  0.00    +0.047 A 
ATOM     23  C   UNL     1      -2.820  -3.297  24.522  0.00  0.00    +0.010 A 
ATOM     24  C   UNL     1      -4.935  -1.982  23.180  0.00  0.00    +0.026 A 
ATOM     25  C   UNL     1      -3.853  -4.026  23.923  0.00  0.00    +0.001 A 
ATOM     29  C   UNL     1      -4.893  -3.376  23.262  0.00  0.00    +0.002 A 
ATOM     37  H   UNL     1      -4.286   0.793  23.442  0.00  0.00    +0.166 HD
ENDROOT
BRANCH   8  16
ATOM      1  F   UNL     1      -1.026   2.607  28.948  0.00  0.00    -0.205 F 
ATOM     16  C   UNL     1       0.730   2.835  27.368  0.00  0.00    +0.005 A 
ATOM     21  C   UNL     1       0.284   2.699  28.682  0.00  0.00    +0.128 A 
ATOM     22  C   UNL     1       2.096   2.929  27.101  0.00  0.00    +0.008 A 
ATOM     27  C   UNL     1       1.204   2.655  29.730  0.00  0.00    +0.038 A 
ATOM     28  C   UNL     1       3.016   2.885  28.149  0.00  0.00    +0.000 A 
ATOM     30  C   UNL     1       2.570   2.749  29.463  0.00  0.00    +0.003 A 
ENDBRANCH   8  16
BRANCH  12  19
ATOM      3  O   UNL     1       1.361   1.706  24.177  0.00  0.00    -0.249 OA
ATOM     19  C   UNL     1       0.825   0.648  24.479  0.00  0.00    +0.325 C 
BRANCH  19   2
ATOM      2  O   UNL     1       0.862  -0.511  23.763  0.00  0.00    -0.467 OA
ATOM     31  C   UNL     1       1.275  -0.379  22.400  0.00  0.00    +0.280 C 
ENDBRANCH  19   2
ENDBRANCH  12  19
BRANCH  10   6
ATOM      6  N   UNL     1      -3.413   5.062  25.852  0.00  0.00    -0.309 NA
ATOM     38  H   UNL     1      -3.651   4.929  26.835  0.00  0.00    +0.123 HD
BRANCH   6  20
ATOM     20  C   UNL     1      -4.617   4.880  25.054  0.00  0.00    +0.116 C 
BRANCH  20  26
ATOM     26  C   UNL     1      -5.314   3.586  25.380  0.00  0.00    -0.034 A 
ATOM     32  C   UNL     1      -5.561   3.243  26.709  0.00  0.00    +0.005 A 
ATOM     33  C   UNL     1      -5.713   2.731  24.353  0.00  0.00    +0.005 A 
ATOM     34  C   UNL     1      -6.206   2.044  27.012  0.00  0.00    +0.000 A 
ATOM     35  C   UNL     1      -6.359   1.532  24.656  0.00  0.00    +0.000 A 
ATOM     36  C   UNL     1      -6.605   1.188  25.985  0.00  0.00    +0.000 A 
ENDBRANCH  20  26
ENDBRANCH   6  20
ENDBRANCH  10   6
TORSDOF 6
ENDMDL
MODEL 2
REMARK VINA RESULT:       9.7      2.692      8.096
REMARK  Name = 25389662
REMARK  7 active torsions:
REMARK  status: ('A' for Active; 'I' for Inactive)
REMARK    1  A    between atoms: O_2  and  C_19
REMARK    2  A    between atoms: O_2  and  C_31
REMARK    3  A    between atoms: N_6  and  C_10
REMARK    4  A    between atoms: N_6  and  C_20
REMARK    5  A    between atoms: C_8  and  C_16
REMARK    6  A    between atoms: C_12  and  C_19
REMARK    7  A    between atoms: C_20  and  C_26
REMARK                            x       y       z     vdW  Elec       q    Type
REMARK                         _______ _______ _______ _____ _____    ______ ____
ROOT
ATOM      4  N   UNL     1      -1.014   0.452  24.934  0.00  0.00    -0.274 NA
ATOM      5  N   UNL     1       1.694   2.648  26.331  0.00  0.00    -0.356 N 
ATOM      7  C   UNL     1       0.063   1.473  24.746  0.00  0.00    +0.106 C 
ATOM      8  C   UNL     1      -1.560  -0.024  23.638  0.00  0.00    +0.093 C 
ATOM      9  C   UNL     1       1.209   0.903  23.896  0.00  0.00    +0.044 C 
ATOM     10  C   UNL     1       0.688   0.448  22.533  0.00  0.00    +0.058 C 
ATOM     11  C   UNL     1      -0.434  -0.571  22.728  0.00  0.00    +0.042 C 
ATOM     12  C   UNL     1      -2.041   0.869  25.928  0.00  0.00    +0.172 C 
ATOM     13  C   UNL     1       0.548   1.944  26.084  0.00  0.00    +0.038 A 
ATOM     14  C   UNL     1      -1.442   1.098  27.339  0.00  0.00    +0.068 C 
ATOM     15  C   UNL     1      -0.132   1.800  27.274  0.00  0.00    -0.016 A 
ATOM     17  C   UNL     1       0.646   2.409  28.295  0.00  0.00    +0.003 A 
ATOM     18  C   UNL     1       1.787   2.932  27.678  0.00  0.00    +0.047 A 
ATOM     23  C   UNL     1       0.495   2.573  29.687  0.00  0.00    +0.010 A 
ATOM     24  C   UNL     1       2.783   3.611  28.387  0.00  0.00    +0.026 A 
ATOM     25  C   UNL     1       1.485   3.248  30.408  0.00  0.00    +0.001 A 
ATOM     29  C   UNL     1       2.611   3.758  29.766  0.00  0.00    +0.002 A 
ATOM     37  H   UNL     1       2.377   2.921  25.639  0.00  0.00    +0.166 HD
ENDROOT
BRANCH   8  16
ATOM      1  F   UNL     1      -1.060  -2.557  24.831  0.00  0.00    -0.205 F 
ATOM     16  C   UNL     1      -2.619  -1.116  23.770  0.00  0.00    +0.005 A 
ATOM     21  C   UNL     1      -2.298  -2.334  24.367  0.00  0.00    +0.128 A 
ATOM     22  C   UNL     1      -3.910  -0.893  23.290  0.00  0.00    +0.008 A 
ATOM     27  C   UNL     1      -3.267  -3.330  24.487  0.00  0.00    +0.038 A 
ATOM     28  C   UNL     1      -4.879  -1.888  23.410  0.00  0.00    +0.000 A 
ATOM     30  C   UNL     1      -4.558  -3.107  24.008  0.00  0.00    +0.003 A 
ENDBRANCH   8  16
BRANCH  12  19
ATOM      3  O   UNL     1      -2.227   3.159  25.196  0.00  0.00    -0.249 OA
ATOM     19  C   UNL     1      -2.771   2.093  25.449  0.00  0.00    +0.325 C 
BRANCH  19   2
ATOM      2  O   UNL     1      -4.102   1.819  25.348  0.00  0.00    -0.467 OA
ATOM     31  C   UNL     1      -4.976   2.936  25.541  0.00  0.00    +0.280 C 
ENDBRANCH  19   2
ENDBRANCH  12  19
BRANCH  10   6
ATOM      6  N   UNL     1       1.779  -0.123  21.744  0.00  0.00    -0.309 NA
ATOM     38  H   UNL     1       2.002  -1.052  22.101  0.00  0.00    +0.123 HD
BRANCH   6  20
ATOM     20  C   UNL     1       2.970   0.709  21.834  0.00  0.00    +0.116 C 
BRANCH  20  26
ATOM     26  C   UNL     1       3.978   0.142  22.798  0.00  0.00    -0.034 A 
ATOM     32  C   UNL     1       3.883  -1.190  23.202  0.00  0.00    +0.005 A 
ATOM     33  C   UNL     1       5.005   0.949  23.286  0.00  0.00    +0.005 A 
ATOM     34  C   UNL     1       4.817  -1.715  24.095  0.00  0.00    +0.000 A 
ATOM     35  C   UNL     1       5.939   0.422  24.180  0.00  0.00    +0.000 A 
ATOM     36  C   UNL     1       5.845  -0.909  24.584  0.00  0.00    +0.000 A 
ENDBRANCH  20  26
ENDBRANCH   6  20
ENDBRANCH  10   6
TORSDOF 6
ENDMDL
MODEL 3
REMARK VINA RESULT:       9.9      2.565      6.123
REMARK  Name = 25389662
REMARK  7 active torsions:
REMARK  status: ('A' for Active; 'I' for Inactive)
REMARK    1  A    between atoms: O_2  and  C_19
REMARK    2  A    between atoms: O_2  and  C_31
REMARK    3  A    between atoms: N_6  and  C_10
REMARK    4  A    between atoms: N_6  and  C_20
REMARK    5  A    between atoms: C_8  and  C_16
REMARK    6  A    between atoms: C_12  and  C_19
REMARK    7  A    between atoms: C_20  and  C_26
REMARK                            x       y       z     vdW  Elec       q    Type
REMARK                         _______ _______ _______ _____ _____    ______ ____
ROOT
ATOM      4  N   UNL     1      -1.090  -0.442  23.839  0.00  0.00    -0.274 NA
ATOM      5  N   UNL     1       2.128   1.420  23.307  0.00  0.00    -0.356 N 
ATOM      7  C   UNL     1      -0.311   0.835  23.821  0.00  0.00    +0.106 C 
ATOM      8  C   UNL     1      -2.541  -0.202  24.045  0.00  0.00    +0.093 C 
ATOM      9  C   UNL     1      -0.828   1.771  22.717  0.00  0.00    +0.044 C 
ATOM     10  C   UNL     1      -2.311   2.077  22.928  0.00  0.00    +0.058 C 
ATOM     11  C   UNL     1      -3.101   0.771  22.980  0.00  0.00    +0.042 C 
ATOM     12  C   UNL     1      -0.495  -1.471  24.735  0.00  0.00    +0.172 C 
ATOM     13  C   UNL     1       1.148   0.531  23.649  0.00  0.00    +0.038 A 
ATOM     14  C   UNL     1       0.940  -1.873  24.304  0.00  0.00    +0.068 C 
ATOM     15  C   UNL     1       1.739  -0.690  23.883  0.00  0.00    -0.016 A 
ATOM     17  C   UNL     1       3.132  -0.553  23.640  0.00  0.00    +0.003 A 
ATOM     18  C   UNL     1       3.350   0.781  23.279  0.00  0.00    +0.047 A 
ATOM     23  C   UNL     1       4.236  -1.427  23.694  0.00  0.00    +0.010 A 
ATOM     24  C   UNL     1       4.619   1.280  22.968  0.00  0.00    +0.026 A 
ATOM     25  C   UNL     1       5.510  -0.941  23.384  0.00  0.00    +0.001 A 
ATOM     29  C   UNL     1       5.697   0.393  23.027  0.00  0.00    +0.002 A 
ATOM     37  H   UNL     1       1.988   2.400  23.101  0.00  0.00    +0.166 HD
ENDROOT
BRANCH   8  16
ATOM      1  F   UNL     1      -5.385  -0.177  23.984  0.00  0.00    -0.205 F 
ATOM     16  C   UNL     1      -3.394  -1.468  24.009  0.00  0.00    +0.005 A 
ATOM     21  C   UNL     1      -4.785  -1.376  23.980  0.00  0.00    +0.128 A 
ATOM     22  C   UNL     1      -2.778  -2.720  24.004  0.00  0.00    +0.008 A 
ATOM     27  C   UNL     1      -5.561  -2.534  23.946  0.00  0.00    +0.038 A 
ATOM     28  C   UNL     1      -3.554  -3.878  23.970  0.00  0.00    +0.000 A 
ATOM     30  C   UNL     1      -4.945  -3.786  23.942  0.00  0.00    +0.003 A 
ENDBRANCH   8  16
BRANCH  12  19
ATOM      3  O   UNL     1       0.016  -1.603  27.087  0.00  0.00    -0.249 OA
ATOM     19  C   UNL     1      -0.516  -1.004  26.163  0.00  0.00    +0.325 C 
BRANCH  19   2
ATOM      2  O   UNL     1      -1.208   0.167  26.249  0.00  0.00    -0.467 OA
ATOM     31  C   UNL     1      -0.444   1.304  26.662  0.00  0.00    +0.280 C 
ENDBRANCH  19   2
ENDBRANCH  12  19
BRANCH  10   6
ATOM      6  N   UNL     1      -2.803   2.941  21.856  0.00  0.00    -0.309 NA
ATOM     38  H   UNL     1      -2.025   3.479  21.474  0.00  0.00    +0.123 HD
BRANCH   6  20
ATOM     20  C   UNL     1      -3.805   3.868  22.361  0.00  0.00    +0.116 C 
BRANCH  20  26
ATOM     26  C   UNL     1      -3.893   3.835  23.864  0.00  0.00    -0.034 A 
ATOM     32  C   UNL     1      -2.866   4.380  24.634  0.00  0.00    +0.005 A 
ATOM     33  C   UNL     1      -5.001   3.258  24.485  0.00  0.00    +0.005 A 
ATOM     34  C   UNL     1      -2.946   4.349  26.026  0.00  0.00    +0.000 A 
ATOM     35  C   UNL     1      -5.081   3.228  25.877  0.00  0.00    +0.000 A 
ATOM     36  C   UNL     1      -4.054   3.772  26.648  0.00  0.00    +0.000 A 
ENDBRANCH  20  26
ENDBRANCH   6  20
ENDBRANCH  10   6
TORSDOF 6
ENDMDL
MODEL 4
REMARK VINA RESULT:      11.0      2.492      7.979
REMARK  Name = 25389662
REMARK  7 active torsions:
REMARK  status: ('A' for Active; 'I' for Inactive)
REMARK    1  A    between atoms: O_2  and  C_19
REMARK    2  A    between atoms: O_2  and  C_31
REMARK    3  A    between atoms: N_6  and  C_10
REMARK    4  A    between atoms: N_6  and  C_20
REMARK    5  A    between atoms: C_8  and  C_16
REMARK    6  A    between atoms: C_12  and  C_19
REMARK    7  A    between atoms: C_20  and  C_26
REMARK                            x       y       z     vdW  Elec       q    Type
REMARK                         _______ _______ _______ _____ _____    ______ ____
ROOT
ATOM      4  N   UNL     1      -1.510   1.897  25.303  0.00  0.00    -0.274 NA
ATOM      5  N   UNL     1       1.897   2.322  26.826  0.00  0.00    -0.356 N 
ATOM      7  C   UNL     1      -0.039   2.129  25.162  0.00  0.00    +0.106 C 
ATOM      8  C   UNL     1      -2.169   1.703  23.987  0.00  0.00    +0.093 C 
ATOM      9  C   UNL     1       0.629   0.953  24.433  0.00  0.00    +0.044 C 
ATOM     10  C   UNL     1       0.005   0.757  23.051  0.00  0.00    +0.058 C 
ATOM     11  C   UNL     1      -1.502   0.552  23.195  0.00  0.00    +0.042 C 
ATOM     12  C   UNL     1      -2.171   2.892  26.191  0.00  0.00    +0.172 C 
ATOM     13  C   UNL     1       0.566   2.357  26.515  0.00  0.00    +0.038 A 
ATOM     14  C   UNL     1      -1.611   2.861  27.637  0.00  0.00    +0.068 C 
ATOM     15  C   UNL     1      -0.130   2.710  27.650  0.00  0.00    -0.016 A 
ATOM     17  C   UNL     1       0.808   2.863  28.706  0.00  0.00    +0.003 A 
ATOM     18  C   UNL     1       2.072   2.613  28.163  0.00  0.00    +0.047 A 
ATOM     23  C   UNL     1       0.712   3.193  30.073  0.00  0.00    +0.010 A 
ATOM     24  C   UNL     1       3.245   2.678  28.923  0.00  0.00    +0.026 A 
ATOM     25  C   UNL     1       1.876   3.259  30.844  0.00  0.00    +0.001 A 
ATOM     29  C   UNL     1       3.123   3.005  30.276  0.00  0.00    +0.002 A 
ATOM     37  H   UNL     1       2.646   2.114  26.181  0.00  0.00    +0.166 HD
ENDROOT
BRANCH   8  16
ATOM      1  F   UNL     1      -4.198   3.624  23.450  0.00  0.00    -0.205 F 
ATOM     16  C   UNL     1      -3.662   1.398  24.076  0.00  0.00    +0.005 A 
ATOM     21  C   UNL     1      -4.599   2.393  23.798  0.00  0.00    +0.128 A 
ATOM     22  C   UNL     1      -4.090   0.120  24.437  0.00  0.00    +0.008 A 
ATOM     27  C   UNL     1      -5.962   2.111  23.881  0.00  0.00    +0.038 A 
ATOM     28  C   UNL     1      -5.453  -0.162  24.519  0.00  0.00    +0.000 A 
ATOM     30  C   UNL     1      -6.389   0.834  24.242  0.00  0.00    +0.003 A 
ENDBRANCH   8  16
BRANCH  12  19
ATOM      3  O   UNL     1      -1.153   4.644  24.884  0.00  0.00    -0.249 OA
ATOM     19  C   UNL     1      -2.069   4.272  25.605  0.00  0.00    +0.325 C 
BRANCH  19   2
ATOM      2  O   UNL     1      -3.139   5.017  26.002  0.00  0.00    -0.467 OA
ATOM     31  C   UNL     1      -4.288   4.270  26.415  0.00  0.00    +0.280 C 
ENDBRANCH  19   2
ENDBRANCH  12  19
BRANCH  10   6
ATOM      6  N   UNL     1       0.623  -0.383  22.378  0.00  0.00    -0.309 NA
ATOM     38  H   UNL     1       0.881  -1.085  23.073  0.00  0.00    +0.123 HD
BRANCH   6  20
ATOM     20  C   UNL     1       1.824   0.028  21.665  0.00  0.00    +0.116 C 
BRANCH  20  26
ATOM     26  C   UNL     1       3.059  -0.123  22.514  0.00  0.00    -0.034 A 
ATOM     32  C   UNL     1       3.307  -1.326  23.174  0.00  0.00    +0.005 A 
ATOM     33  C   UNL     1       3.953   0.940  22.639  0.00  0.00    +0.005 A 
ATOM     34  C   UNL     1       4.450  -1.467  23.961  0.00  0.00    +0.000 A 
ATOM     35  C   UNL     1       5.097   0.798  23.425  0.00  0.00    +0.000 A 
ATOM     36  C   UNL     1       5.345  -0.404  24.087  0.00  0.00    +0.000 A 
ENDBRANCH  20  26
ENDBRANCH   6  20
ENDBRANCH  10   6
TORSDOF 6
ENDMDL
MODEL 5
REMARK VINA RESULT:      11.1      3.000      6.479
REMARK  Name = 25389662
REMARK  7 active torsions:
REMARK  status: ('A' for Active; 'I' for Inactive)
REMARK    1  A    between atoms: O_2  and  C_19
REMARK    2  A    between atoms: O_2  and  C_31
REMARK    3  A    between atoms: N_6  and  C_10
REMARK    4  A    between atoms: N_6  and  C_20
REMARK    5  A    between atoms: C_8  and  C_16
REMARK    6  A    between atoms: C_12  and  C_19
REMARK    7  A    between atoms: C_20  and  C_26
REMARK                            x       y       z     vdW  Elec       q    Type
REMARK                         _______ _______ _______ _____ _____    ______ ____
ROOT
ATOM      4  N   UNL     1      -2.661   0.879  23.893  0.00  0.00    -0.274 NA
ATOM      5  N   UNL     1       0.421  -0.740  22.485  0.00  0.00    -0.356 N 
ATOM      7  C   UNL     1      -2.011  -0.120  22.991  0.00  0.00    +0.106 C 
ATOM      8  C   UNL     1      -4.136   0.713  23.934  0.00  0.00    +0.093 C 
ATOM      9  C   UNL     1      -2.344  -1.553  23.437  0.00  0.00    +0.044 C 
ATOM     10  C   UNL     1      -3.857  -1.772  23.442  0.00  0.00    +0.058 C 
ATOM     11  C   UNL     1      -4.522  -0.730  24.340  0.00  0.00    +0.042 C 
ATOM     12  C   UNL     1      -2.197   2.272  23.646  0.00  0.00    +0.172 C 
ATOM     13  C   UNL     1      -0.530   0.119  22.958  0.00  0.00    +0.038 A 
ATOM     14  C   UNL     1      -0.673   2.440  23.878  0.00  0.00    +0.068 C 
ATOM     15  C   UNL     1       0.096   1.285  23.340  0.00  0.00    -0.016 A 
ATOM     17  C   UNL     1       1.491   1.120  23.125  0.00  0.00    +0.003 A 
ATOM     18  C   UNL     1       1.669  -0.160  22.589  0.00  0.00    +0.047 A 
ATOM     23  C   UNL     1       2.625   1.931  23.328  0.00  0.00    +0.010 A 
ATOM     24  C   UNL     1       2.927  -0.666  22.247  0.00  0.00    +0.026 A 
ATOM     25  C   UNL     1       3.889   1.436  22.992  0.00  0.00    +0.001 A 
ATOM     29  C   UNL     1       4.036   0.157  22.460  0.00  0.00    +0.002 A 
ATOM     37  H   UNL     1       0.247  -1.664  22.114  0.00  0.00    +0.166 HD
ENDROOT
BRANCH   8  16
ATOM      1  F   UNL     1      -6.966   0.919  24.133  0.00  0.00    -0.205 F 
ATOM     16  C   UNL     1      -4.845   1.667  24.892  0.00  0.00    +0.005 A 
ATOM     21  C   UNL     1      -6.238   1.712  24.932  0.00  0.00    +0.128 A 
ATOM     22  C   UNL     1      -4.096   2.496  25.727  0.00  0.00    +0.008 A 
ATOM     27  C   UNL     1      -6.883   2.585  25.808  0.00  0.00    +0.038 A 
ATOM     28  C   UNL     1      -4.742   3.369  26.603  0.00  0.00    +0.000 A 
ATOM     30  C   UNL     1      -6.135   3.414  26.643  0.00  0.00    +0.003 A 
ENDBRANCH   8  16
BRANCH  12  19
ATOM      3  O   UNL     1      -2.014   2.350  21.243  0.00  0.00    -0.249 OA
ATOM     19  C   UNL     1      -2.581   2.717  22.263  0.00  0.00    +0.325 C 
BRANCH  19   2
ATOM      2  O   UNL     1      -3.638   3.575  22.337  0.00  0.00    -0.467 OA
ATOM     31  C   UNL     1      -3.586   4.523  23.408  0.00  0.00    +0.280 C 
ENDBRANCH  19   2
ENDBRANCH  12  19
BRANCH  10   6
ATOM      6  N   UNL     1      -4.165  -3.126  23.899  0.00  0.00    -0.309 NA
ATOM     38  H   UNL     1      -5.166  -3.296  23.798  0.00  0.00    +0.123 HD
BRANCH   6  20
ATOM     20  C   UNL     1      -3.805  -3.292  25.300  0.00  0.00    +0.116 C 
BRANCH  20  26
ATOM     26  C   UNL     1      -2.611  -2.454  25.674  0.00  0.00    -0.034 A 
ATOM     32  C   UNL     1      -2.777  -1.319  26.468  0.00  0.00    +0.005 A 
ATOM     33  C   UNL     1      -1.340  -2.812  25.226  0.00  0.00    +0.005 A 
ATOM     34  C   UNL     1      -1.672  -0.542  26.813  0.00  0.00    +0.000 A 
ATOM     35  C   UNL     1      -0.234  -2.035  25.572  0.00  0.00    +0.000 A 
ATOM     36  C   UNL     1      -0.400  -0.900  26.366  0.00  0.00    +0.000 A 
ENDBRANCH  20  26
ENDBRANCH   6  20
ENDBRANCH  10   6
TORSDOF 6
ENDMDL
MODEL 6
REMARK VINA RESULT:      11.7      2.151      6.934
REMARK  Name = 25389662
REMARK  7 active torsions:
REMARK  status: ('A' for Active; 'I' for Inactive)
REMARK    1  A    between atoms: O_2  and  C_19
REMARK    2  A    between atoms: O_2  and  C_31
REMARK    3  A    between atoms: N_6  and  C_10
REMARK    4  A    between atoms: N_6  and  C_20
REMARK    5  A    between atoms: C_8  and  C_16
REMARK    6  A    between atoms: C_12  and  C_19
REMARK    7  A    between atoms: C_20  and  C_26
REMARK                            x       y       z     vdW  Elec       q    Type
REMARK                         _______ _______ _______ _____ _____    ______ ____
ROOT
ATOM      4  N   UNL     1      -1.957   2.201  25.429  0.00  0.00    -0.274 NA
ATOM      5  N   UNL     1       1.551   2.308  26.768  0.00  0.00    -0.356 N 
ATOM      7  C   UNL     1      -0.482   2.317  25.211  0.00  0.00    +0.106 C 
ATOM      8  C   UNL     1      -2.700   2.096  24.147  0.00  0.00    +0.093 C 
ATOM      9  C   UNL     1       0.048   1.111  24.419  0.00  0.00    +0.044 C 
ATOM     10  C   UNL     1      -0.665   1.003  23.071  0.00  0.00    +0.058 C 
ATOM     11  C   UNL     1      -2.174   0.917  23.294  0.00  0.00    +0.042 C 
ATOM     12  C   UNL     1      -2.485   3.222  26.375  0.00  0.00    +0.172 C 
ATOM     13  C   UNL     1       0.213   2.458  26.533  0.00  0.00    +0.038 A 
ATOM     14  C   UNL     1      -1.852   3.107  27.785  0.00  0.00    +0.068 C 
ATOM     15  C   UNL     1      -0.390   2.836  27.712  0.00  0.00    -0.016 A 
ATOM     17  C   UNL     1       0.613   2.884  28.717  0.00  0.00    +0.003 A 
ATOM     18  C   UNL     1       1.822   2.548  28.099  0.00  0.00    +0.047 A 
ATOM     23  C   UNL     1       0.618   3.184  30.094  0.00  0.00    +0.010 A 
ATOM     24  C   UNL     1       3.035   2.497  28.793  0.00  0.00    +0.026 A 
ATOM     25  C   UNL     1       1.825   3.135  30.800  0.00  0.00    +0.001 A 
ATOM     29  C   UNL     1       3.014   2.797  30.158  0.00  0.00    +0.002 A 
ATOM     37  H   UNL     1       2.245   2.058  26.077  0.00  0.00    +0.166 HD
ENDROOT
BRANCH   8  16
ATOM      1  F   UNL     1      -4.558   4.250  24.130  0.00  0.00    -0.205 F 
ATOM     16  C   UNL     1      -4.206   1.910  24.314  0.00  0.00    +0.005 A 
ATOM     21  C   UNL     1      -5.055   3.016  24.295  0.00  0.00    +0.128 A 
ATOM     22  C   UNL     1      -4.733   0.630  24.485  0.00  0.00    +0.008 A 
ATOM     27  C   UNL     1      -6.430   2.843  24.446  0.00  0.00    +0.038 A 
ATOM     28  C   UNL     1      -6.109   0.457  24.637  0.00  0.00    +0.000 A 
ATOM     30  C   UNL     1      -6.957   1.563  24.618  0.00  0.00    +0.003 A 
ENDBRANCH   8  16
BRANCH  12  19
ATOM      3  O   UNL     1      -2.875   5.597  26.241  0.00  0.00    -0.249 OA
ATOM     19  C   UNL     1      -2.302   4.604  25.814  0.00  0.00    +0.325 C 
BRANCH  19   2
ATOM      2  O   UNL     1      -1.414   4.563  24.781  0.00  0.00    -0.467 OA
ATOM     31  C   UNL     1      -0.603   5.731  24.620  0.00  0.00    +0.280 C 
ENDBRANCH  19   2
ENDBRANCH  12  19
BRANCH  10   6
ATOM      6  N   UNL     1      -0.179  -0.165  22.338  0.00  0.00    -0.309 NA
ATOM     38  H   UNL     1      -0.906  -0.489  21.700  0.00  0.00    +0.123 HD
BRANCH   6  20
ATOM     20  C   UNL     1       0.151  -1.247  23.255  0.00  0.00    +0.116 C 
BRANCH  20  26
ATOM     26  C   UNL     1      -1.017  -1.614  24.132  0.00  0.00    -0.034 A 
ATOM     32  C   UNL     1      -1.067  -1.164  25.451  0.00  0.00    +0.005 A 
ATOM     33  C   UNL     1      -2.049  -2.403  23.624  0.00  0.00    +0.005 A 
ATOM     34  C   UNL     1      -2.148  -1.504  26.264  0.00  0.00    +0.000 A 
ATOM     35  C   UNL     1      -3.131  -2.743  24.437  0.00  0.00    +0.000 A 
ATOM     36  C   UNL     1      -3.181  -2.294  25.757  0.00  0.00    +0.000 A 
ENDBRANCH  20  26
ENDBRANCH   6  20
ENDBRANCH  10   6
TORSDOF 6
ENDMDL
