MODEL 1
REMARK VINA RESULT:      -2.5      0.000      0.000
REMARK  Name = 75536261
REMARK  8 active torsions:
REMARK  status: ('A' for Active; 'I' for Inactive)
REMARK    1  A    between atoms: O_3  and  C_9
REMARK    2  A    between atoms: N_5  and  C_13
REMARK    3  A    between atoms: N_5  and  C_16
REMARK    4  A    between atoms: C_8  and  C_13
REMARK    5  A    between atoms: C_10  and  C_14
REMARK    6  A    between atoms: C_14  and  C_15
REMARK    7  A    between atoms: C_16  and  C_19
REMARK    8  A    between atoms: C_18  and  C_20
REMARK                            x       y       z     vdW  Elec       q    Type
REMARK                         _______ _______ _______ _____ _____    ______ ____
ROOT
ATOM      2  O   UNL     1      -3.673   0.425  23.714  0.00  0.00    -0.369 OA
ATOM      8  C   UNL     1      -4.598  -0.290  24.541  0.00  0.00    +0.161 C 
ATOM      9  C   UNL     1      -3.936  -1.509  25.196  0.00  0.00    +0.145 C 
ATOM     10  C   UNL     1      -2.473   0.848  24.367  0.00  0.00    +0.125 C 
ATOM     11  C   UNL     1      -2.613  -1.159  25.872  0.00  0.00    +0.036 C 
ATOM     12  C   UNL     1      -1.718  -0.354  24.934  0.00  0.00    +0.034 C 
ENDROOT
BRANCH   9   3
ATOM      3  O   UNL     1      -3.664  -2.484  24.184  0.00  0.00    -0.389 OA
ATOM     31  H   UNL     1      -2.762  -2.323  23.857  0.00  0.00    +0.210 HD
ENDBRANCH   9   3
BRANCH   8  13
ATOM     13  C   UNL     1      -5.266   0.640  25.552  0.00  0.00    +0.115 C 
BRANCH  13   5
ATOM      5  N   UNL     1      -5.919   1.752  24.880  0.00  0.00    -0.309 NA
ATOM     30  H   UNL     1      -5.525   1.860  23.946  0.00  0.00    +0.122 HD
BRANCH   5  16
ATOM     16  C   UNL     1      -5.751   2.989  25.633  0.00  0.00    +0.116 C 
BRANCH  16  19
ATOM      7  N   UNL     1      -1.839   4.687  25.072  0.00  0.00    -0.263 NA
ATOM     19  C   UNL     1      -4.381   3.584  25.437  0.00  0.00    -0.031 A 
ATOM     21  C   UNL     1      -3.483   3.631  26.496  0.00  0.00    +0.024 A 
ATOM     22  C   UNL     1      -4.012   4.087  24.195  0.00  0.00    +0.024 A 
ATOM     25  C   UNL     1      -2.236   4.188  26.263  0.00  0.00    +0.111 A 
ATOM     26  C   UNL     1      -2.741   4.624  24.065  0.00  0.00    +0.111 A 
ENDBRANCH  16  19
ENDBRANCH   5  16
ENDBRANCH  13   5
ENDBRANCH   8  13
BRANCH  10  14
ATOM     14  C   UNL     1      -1.625   1.585  23.338  0.00  0.00    +0.090 C 
BRANCH  14  15
ATOM      4  O   UNL     1       1.130  -0.520  22.351  0.00  0.00    -0.354 OA
ATOM      6  N   UNL     1      -0.211  -0.156  22.323  0.00  0.00    -0.083 NA
ATOM     15  C   UNL     1      -0.297   0.910  23.125  0.00  0.00    +0.087 A 
ATOM     17  C   UNL     1       0.945   1.260  23.682  0.00  0.00    +0.076 A 
ATOM     18  C   UNL     1       1.808   0.331  23.164  0.00  0.00    +0.167 A 
BRANCH  18  20
ATOM      1  F   UNL     1       7.263  -0.639  23.666  0.00  0.00    -0.205 F 
ATOM     20  C   UNL     1       3.215   0.080  23.293  0.00  0.00    +0.020 A 
ATOM     23  C   UNL     1       3.665  -1.171  23.712  0.00  0.00    +0.014 A 
ATOM     24  C   UNL     1       4.132   1.088  22.999  0.00  0.00    +0.014 A 
ATOM     27  C   UNL     1       5.032  -1.415  23.839  0.00  0.00    +0.039 A 
ATOM     28  C   UNL     1       5.500   0.845  23.125  0.00  0.00    +0.039 A 
ATOM     29  C   UNL     1       5.950  -0.405  23.545  0.00  0.00    +0.123 A 
ENDBRANCH  18  20
ENDBRANCH  14  15
ENDBRANCH  10  14
TORSDOF 8
ENDMDL
MODEL 2
REMARK VINA RESULT:      -2.3      1.577      2.500
REMARK  Name = 75536261
REMARK  8 active torsions:
REMARK  status: ('A' for Active; 'I' for Inactive)
REMARK    1  A    between atoms: O_3  and  C_9
REMARK    2  A    between atoms: N_5  and  C_13
REMARK    3  A    between atoms: N_5  and  C_16
REMARK    4  A    between atoms: C_8  and  C_13
REMARK    5  A    between atoms: C_10  and  C_14
REMARK    6  A    between atoms: C_14  and  C_15
REMARK    7  A    between atoms: C_16  and  C_19
REMARK    8  A    between atoms: C_18  and  C_20
REMARK                            x       y       z     vdW  Elec       q    Type
REMARK                         _______ _______ _______ _____ _____    ______ ____
ROOT
ATOM      2  O   UNL     1      -3.957   1.149  23.604  0.00  0.00    -0.369 OA
ATOM      8  C   UNL     1      -4.756   2.304  23.886  0.00  0.00    +0.161 C 
ATOM      9  C   UNL     1      -5.865   1.983  24.896  0.00  0.00    +0.145 C 
ATOM     10  C   UNL     1      -3.372   0.519  24.747  0.00  0.00    +0.125 C 
ATOM     11  C   UNL     1      -5.336   1.256  26.129  0.00  0.00    +0.036 C 
ATOM     12  C   UNL     1      -4.455   0.075  25.729  0.00  0.00    +0.034 C 
ENDROOT
BRANCH   9   3
ATOM      3  O   UNL     1      -6.828   1.133  24.267  0.00  0.00    -0.389 OA
ATOM     31  H   UNL     1      -6.510   0.947  23.366  0.00  0.00    +0.210 HD
ENDBRANCH   9   3
BRANCH   8  13
ATOM     13  C   UNL     1      -3.885   3.485  24.312  0.00  0.00    +0.115 C 
BRANCH  13   5
ATOM      5  N   UNL     1      -4.413   4.112  25.513  0.00  0.00    -0.309 NA
ATOM     30  H   UNL     1      -4.795   5.028  25.276  0.00  0.00    +0.122 HD
BRANCH   5  16
ATOM     16  C   UNL     1      -3.377   4.255  26.528  0.00  0.00    +0.116 C 
BRANCH  16  19
ATOM      7  N   UNL     1       0.507   3.199  25.010  0.00  0.00    -0.263 NA
ATOM     19  C   UNL     1      -2.017   3.886  25.996  0.00  0.00    -0.031 A 
ATOM     21  C   UNL     1      -1.410   4.672  25.023  0.00  0.00    +0.024 A 
ATOM     22  C   UNL     1      -1.364   2.756  26.477  0.00  0.00    +0.024 A 
ATOM     25  C   UNL     1      -0.159   4.288  24.568  0.00  0.00    +0.111 A 
ATOM     26  C   UNL     1      -0.115   2.458  25.956  0.00  0.00    +0.111 A 
ENDBRANCH  16  19
ENDBRANCH   5  16
ENDBRANCH  13   5
ENDBRANCH   8  13
BRANCH  10  14
ATOM     14  C   UNL     1      -2.567  -0.675  24.251  0.00  0.00    +0.090 C 
BRANCH  14  15
ATOM      4  O   UNL     1       0.343   0.863  22.783  0.00  0.00    -0.354 OA
ATOM      6  N   UNL     1      -1.029   0.768  22.983  0.00  0.00    -0.083 NA
ATOM     15  C   UNL     1      -1.186  -0.271  23.808  0.00  0.00    +0.087 A 
ATOM     17  C   UNL     1       0.038  -0.865  24.158  0.00  0.00    +0.076 A 
ATOM     18  C   UNL     1       0.968  -0.115  23.488  0.00  0.00    +0.167 A 
BRANCH  18  20
ATOM      1  F   UNL     1       6.514  -0.222  23.076  0.00  0.00    -0.205 F 
ATOM     20  C   UNL     1       2.398  -0.143  23.381  0.00  0.00    +0.020 A 
ATOM     23  C   UNL     1       3.105  -1.278  23.778  0.00  0.00    +0.014 A 
ATOM     24  C   UNL     1       3.082   0.964  22.880  0.00  0.00    +0.014 A 
ATOM     27  C   UNL     1       4.496  -1.305  23.676  0.00  0.00    +0.039 A 
ATOM     28  C   UNL     1       4.472   0.937  22.776  0.00  0.00    +0.039 A 
ATOM     29  C   UNL     1       5.179  -0.197  23.174  0.00  0.00    +0.123 A 
ENDBRANCH  18  20
ENDBRANCH  14  15
ENDBRANCH  10  14
TORSDOF 8
ENDMDL
MODEL 3
REMARK VINA RESULT:      -1.8      2.315      4.555
REMARK  Name = 75536261
REMARK  8 active torsions:
REMARK  status: ('A' for Active; 'I' for Inactive)
REMARK    1  A    between atoms: O_3  and  C_9
REMARK    2  A    between atoms: N_5  and  C_13
REMARK    3  A    between atoms: N_5  and  C_16
REMARK    4  A    between atoms: C_8  and  C_13
REMARK    5  A    between atoms: C_10  and  C_14
REMARK    6  A    between atoms: C_14  and  C_15
REMARK    7  A    between atoms: C_16  and  C_19
REMARK    8  A    between atoms: C_18  and  C_20
REMARK                            x       y       z     vdW  Elec       q    Type
REMARK                         _______ _______ _______ _____ _____    ______ ____
ROOT
ATOM      2  O   UNL     1      -3.864   2.393  25.749  0.00  0.00    -0.369 OA
ATOM      8  C   UNL     1      -5.046   1.713  25.310  0.00  0.00    +0.161 C 
ATOM      9  C   UNL     1      -6.314   2.455  25.752  0.00  0.00    +0.145 C 
ATOM     10  C   UNL     1      -3.763   3.761  25.346  0.00  0.00    +0.125 C 
ATOM     11  C   UNL     1      -6.267   3.941  25.411  0.00  0.00    +0.036 C 
ATOM     12  C   UNL     1      -4.952   4.565  25.870  0.00  0.00    +0.034 C 
ENDROOT
BRANCH   9   3
ATOM      3  O   UNL     1      -6.444   2.336  27.172  0.00  0.00    -0.389 OA
ATOM     31  H   UNL     1      -5.890   3.027  27.576  0.00  0.00    +0.210 HD
ENDBRANCH   9   3
BRANCH   8  13
ATOM     13  C   UNL     1      -5.003   1.451  23.805  0.00  0.00    +0.115 C 
BRANCH  13   5
ATOM      5  N   UNL     1      -3.899   0.569  23.464  0.00  0.00    -0.309 NA
ATOM     30  H   UNL     1      -3.892   0.412  22.456  0.00  0.00    +0.122 HD
BRANCH   5  16
ATOM     16  C   UNL     1      -4.013  -0.705  24.162  0.00  0.00    +0.116 C 
BRANCH  16  19
ATOM      7  N   UNL     1      -0.231  -2.008  25.744  0.00  0.00    -0.263 NA
ATOM     19  C   UNL     1      -2.688  -1.162  24.716  0.00  0.00    -0.031 A 
ATOM     21  C   UNL     1      -2.102  -2.332  24.248  0.00  0.00    +0.024 A 
ATOM     22  C   UNL     1      -2.048  -0.414  25.698  0.00  0.00    +0.024 A 
ATOM     25  C   UNL     1      -0.884  -2.708  24.789  0.00  0.00    +0.111 A 
ATOM     26  C   UNL     1      -0.832  -0.876  26.175  0.00  0.00    +0.111 A 
ENDBRANCH  16  19
ENDBRANCH   5  16
ENDBRANCH  13   5
ENDBRANCH   8  13
BRANCH  10  14
ATOM     14  C   UNL     1      -2.453   4.307  25.901  0.00  0.00    +0.090 C 
BRANCH  14  15
ATOM      4  O   UNL     1       0.473   2.202  25.856  0.00  0.00    -0.354 OA
ATOM      6  N   UNL     1      -0.474   2.977  26.514  0.00  0.00    -0.083 NA
ATOM     15  C   UNL     1      -1.288   3.421  25.551  0.00  0.00    +0.087 A 
ATOM     17  C   UNL     1      -0.907   2.964  24.278  0.00  0.00    +0.076 A 
ATOM     18  C   UNL     1       0.205   2.202  24.525  0.00  0.00    +0.167 A 
BRANCH  18  20
ATOM      1  F   UNL     1       3.687  -0.764  21.358  0.00  0.00    -0.205 F 
ATOM     20  C   UNL     1       1.104   1.437  23.709  0.00  0.00    +0.020 A 
ATOM     23  C   UNL     1       2.431   1.840  23.566  0.00  0.00    +0.014 A 
ATOM     24  C   UNL     1       0.649   0.290  23.059  0.00  0.00    +0.014 A 
ATOM     27  C   UNL     1       3.304   1.098  22.771  0.00  0.00    +0.039 A 
ATOM     28  C   UNL     1       1.522  -0.453  22.265  0.00  0.00    +0.039 A 
ATOM     29  C   UNL     1       2.849  -0.050  22.121  0.00  0.00    +0.123 A 
ENDBRANCH  18  20
ENDBRANCH  14  15
ENDBRANCH  10  14
TORSDOF 8
ENDMDL
MODEL 4
REMARK VINA RESULT:      -1.2      1.889      4.020
REMARK  Name = 75536261
REMARK  8 active torsions:
REMARK  status: ('A' for Active; 'I' for Inactive)
REMARK    1  A    between atoms: O_3  and  C_9
REMARK    2  A    between atoms: N_5  and  C_13
REMARK    3  A    between atoms: N_5  and  C_16
REMARK    4  A    between atoms: C_8  and  C_13
REMARK    5  A    between atoms: C_10  and  C_14
REMARK    6  A    between atoms: C_14  and  C_15
REMARK    7  A    between atoms: C_16  and  C_19
REMARK    8  A    between atoms: C_18  and  C_20
REMARK                            x       y       z     vdW  Elec       q    Type
REMARK                         _______ _______ _______ _____ _____    ______ ____
ROOT
ATOM      2  O   UNL     1      -3.838   1.787  25.596  0.00  0.00    -0.369 OA
ATOM      8  C   UNL     1      -5.149   1.238  25.414  0.00  0.00    +0.161 C 
ATOM      9  C   UNL     1      -6.236   2.234  25.838  0.00  0.00    +0.145 C 
ATOM     10  C   UNL     1      -3.604   3.034  24.937  0.00  0.00    +0.125 C 
ATOM     11  C   UNL     1      -6.030   3.616  25.223  0.00  0.00    +0.036 C 
ATOM     12  C   UNL     1      -4.594   4.092  25.421  0.00  0.00    +0.034 C 
ENDROOT
BRANCH   9   3
ATOM      3  O   UNL     1      -6.197   2.379  27.261  0.00  0.00    -0.389 OA
ATOM     31  H   UNL     1      -5.985   1.508  27.638  0.00  0.00    +0.210 HD
ENDBRANCH   9   3
BRANCH   8  13
ATOM     13  C   UNL     1      -5.337   0.723  23.987  0.00  0.00    +0.115 C 
BRANCH  13   5
ATOM      5  N   UNL     1      -4.180  -0.047  23.558  0.00  0.00    -0.309 NA
ATOM     30  H   UNL     1      -4.261  -0.248  22.561  0.00  0.00    +0.122 HD
BRANCH   5  16
ATOM     16  C   UNL     1      -4.073  -1.292  24.308  0.00  0.00    +0.116 C 
BRANCH  16  19
ATOM      7  N   UNL     1      -0.067  -1.975  25.717  0.00  0.00    -0.263 NA
ATOM     19  C   UNL     1      -2.670  -1.532  24.801  0.00  0.00    -0.031 A 
ATOM     21  C   UNL     1      -1.914  -2.572  24.275  0.00  0.00    +0.024 A 
ATOM     22  C   UNL     1      -2.128  -0.712  25.785  0.00  0.00    +0.024 A 
ATOM     25  C   UNL     1      -0.629  -2.749  24.762  0.00  0.00    +0.111 A 
ATOM     26  C   UNL     1      -0.834  -0.973  26.204  0.00  0.00    +0.111 A 
ENDBRANCH  16  19
ENDBRANCH   5  16
ENDBRANCH  13   5
ENDBRANCH   8  13
BRANCH  10  14
ATOM     14  C   UNL     1      -2.171   3.452  25.244  0.00  0.00    +0.090 C 
BRANCH  14  15
ATOM      4  O   UNL     1      -0.427   1.101  23.140  0.00  0.00    -0.354 OA
ATOM      6  N   UNL     1      -1.581   1.739  23.577  0.00  0.00    -0.083 NA
ATOM     15  C   UNL     1      -1.172   2.579  24.533  0.00  0.00    +0.087 A 
ATOM     17  C   UNL     1       0.216   2.515  24.740  0.00  0.00    +0.076 A 
ATOM     18  C   UNL     1       0.637   1.572  23.841  0.00  0.00    +0.167 A 
BRANCH  18  20
ATOM      1  F   UNL     1       5.571  -0.629  22.511  0.00  0.00    -0.205 F 
ATOM     20  C   UNL     1       1.909   1.004  23.497  0.00  0.00    +0.020 A 
ATOM     23  C   UNL     1       2.097  -0.376  23.562  0.00  0.00    +0.014 A 
ATOM     24  C   UNL     1       2.958   1.832  23.099  0.00  0.00    +0.014 A 
ATOM     27  C   UNL     1       3.334  -0.929  23.230  0.00  0.00    +0.039 A 
ATOM     28  C   UNL     1       4.194   1.281  22.765  0.00  0.00    +0.039 A 
ATOM     29  C   UNL     1       4.383  -0.099  22.831  0.00  0.00    +0.123 A 
ENDBRANCH  18  20
ENDBRANCH  14  15
ENDBRANCH  10  14
TORSDOF 8
ENDMDL
MODEL 5
REMARK VINA RESULT:      -1.0      1.655      3.927
REMARK  Name = 75536261
REMARK  8 active torsions:
REMARK  status: ('A' for Active; 'I' for Inactive)
REMARK    1  A    between atoms: O_3  and  C_9
REMARK    2  A    between atoms: N_5  and  C_13
REMARK    3  A    between atoms: N_5  and  C_16
REMARK    4  A    between atoms: C_8  and  C_13
REMARK    5  A    between atoms: C_10  and  C_14
REMARK    6  A    between atoms: C_14  and  C_15
REMARK    7  A    between atoms: C_16  and  C_19
REMARK    8  A    between atoms: C_18  and  C_20
REMARK                            x       y       z     vdW  Elec       q    Type
REMARK                         _______ _______ _______ _____ _____    ______ ____
ROOT
ATOM      2  O   UNL     1      -2.784   1.798  24.655  0.00  0.00    -0.369 OA
ATOM      8  C   UNL     1      -3.503   2.713  25.490  0.00  0.00    +0.161 C 
ATOM      9  C   UNL     1      -3.456   4.139  24.926  0.00  0.00    +0.145 C 
ATOM     10  C   UNL     1      -3.198   1.767  23.287  0.00  0.00    +0.125 C 
ATOM     11  C   UNL     1      -3.831   4.193  23.448  0.00  0.00    +0.036 C 
ATOM     12  C   UNL     1      -3.054   3.149  22.651  0.00  0.00    +0.034 C 
ENDROOT
BRANCH   9   3
ATOM      3  O   UNL     1      -2.122   4.641  25.057  0.00  0.00    -0.389 OA
ATOM     31  H   UNL     1      -2.098   5.521  24.643  0.00  0.00    +0.210 HD
ENDBRANCH   9   3
BRANCH   8  13
ATOM     13  C   UNL     1      -4.926   2.221  25.748  0.00  0.00    +0.115 C 
BRANCH  13   5
ATOM      5  N   UNL     1      -5.108   0.871  25.240  0.00  0.00    -0.309 NA
ATOM     30  H   UNL     1      -6.102   0.701  25.083  0.00  0.00    +0.122 HD
BRANCH   5  16
ATOM     16  C   UNL     1      -4.579  -0.114  26.175  0.00  0.00    +0.116 C 
BRANCH  16  19
ATOM      7  N   UNL     1      -1.686  -2.696  24.312  0.00  0.00    -0.263 NA
ATOM     19  C   UNL     1      -3.565  -1.018  25.523  0.00  0.00    -0.031 A 
ATOM     21  C   UNL     1      -2.230  -0.961  25.905  0.00  0.00    +0.024 A 
ATOM     22  C   UNL     1      -3.963  -1.913  24.535  0.00  0.00    +0.024 A 
ATOM     25  C   UNL     1      -1.339  -1.814  25.275  0.00  0.00    +0.111 A 
ATOM     26  C   UNL     1      -2.994  -2.723  23.966  0.00  0.00    +0.111 A 
ENDBRANCH  16  19
ENDBRANCH   5  16
ENDBRANCH  13   5
ENDBRANCH   8  13
BRANCH  10  14
ATOM     14  C   UNL     1      -2.328   0.744  22.567  0.00  0.00    +0.090 C 
BRANCH  14  15
ATOM      4  O   UNL     1       0.870   1.652  23.961  0.00  0.00    -0.354 OA
ATOM      6  N   UNL     1      -0.499   1.832  23.805  0.00  0.00    -0.083 NA
ATOM     15  C   UNL     1      -0.882   0.862  22.969  0.00  0.00    +0.087 A 
ATOM     17  C   UNL     1       0.191   0.048  22.569  0.00  0.00    +0.076 A 
ATOM     18  C   UNL     1       1.269   0.587  23.219  0.00  0.00    +0.167 A 
BRANCH  18  20
ATOM      1  F   UNL     1       6.693  -0.626  23.456  0.00  0.00    -0.205 F 
ATOM     20  C   UNL     1       2.668   0.275  23.281  0.00  0.00    +0.020 A 
ATOM     23  C   UNL     1       3.614   1.245  22.955  0.00  0.00    +0.014 A 
ATOM     24  C   UNL     1       3.081  -1.000  23.667  0.00  0.00    +0.014 A 
ATOM     27  C   UNL     1       4.974   0.941  23.013  0.00  0.00    +0.039 A 
ATOM     28  C   UNL     1       4.441  -1.304  23.727  0.00  0.00    +0.039 A 
ATOM     29  C   UNL     1       5.387  -0.334  23.400  0.00  0.00    +0.123 A 
ENDBRANCH  18  20
ENDBRANCH  14  15
ENDBRANCH  10  14
TORSDOF 8
ENDMDL
MODEL 6
REMARK VINA RESULT:      -0.7      2.011      4.149
REMARK  Name = 75536261
REMARK  8 active torsions:
REMARK  status: ('A' for Active; 'I' for Inactive)
REMARK    1  A    between atoms: O_3  and  C_9
REMARK    2  A    between atoms: N_5  and  C_13
REMARK    3  A    between atoms: N_5  and  C_16
REMARK    4  A    between atoms: C_8  and  C_13
REMARK    5  A    between atoms: C_10  and  C_14
REMARK    6  A    between atoms: C_14  and  C_15
REMARK    7  A    between atoms: C_16  and  C_19
REMARK    8  A    between atoms: C_18  and  C_20
REMARK                            x       y       z     vdW  Elec       q    Type
REMARK                         _______ _______ _______ _____ _____    ______ ____
ROOT
ATOM      2  O   UNL     1      -1.030   2.753  24.210  0.00  0.00    -0.369 OA
ATOM      8  C   UNL     1      -1.129   3.429  25.469  0.00  0.00    +0.161 C 
ATOM      9  C   UNL     1      -2.484   4.133  25.620  0.00  0.00    +0.145 C 
ATOM     10  C   UNL     1      -2.071   1.810  23.942  0.00  0.00    +0.125 C 
ATOM     11  C   UNL     1      -3.657   3.211  25.296  0.00  0.00    +0.036 C 
ATOM     12  C   UNL     1      -3.437   2.497  23.966  0.00  0.00    +0.034 C 
ENDROOT
BRANCH   9   3
ATOM      3  O   UNL     1      -2.532   5.237  24.713  0.00  0.00    -0.389 OA
ATOM     31  H   UNL     1      -1.954   5.024  23.960  0.00  0.00    +0.210 HD
ENDBRANCH   9   3
BRANCH   8  13
ATOM     13  C   UNL     1      -0.815   2.485  26.628  0.00  0.00    +0.115 C 
BRANCH  13   5
ATOM      5  N   UNL     1      -0.332   1.204  26.137  0.00  0.00    -0.309 NA
ATOM     30  H   UNL     1      -0.533   1.129  25.139  0.00  0.00    +0.122 HD
BRANCH   5  16
ATOM     16  C   UNL     1      -0.957   0.100  26.853  0.00  0.00    +0.116 C 
BRANCH  16  19
ATOM      7  N   UNL     1      -3.057  -2.551  24.194  0.00  0.00    -0.263 NA
ATOM     19  C   UNL     1      -1.692  -0.829  25.922  0.00  0.00    -0.031 A 
ATOM     21  C   UNL     1      -0.983  -1.680  25.082  0.00  0.00    +0.024 A 
ATOM     22  C   UNL     1      -3.082  -0.836  25.899  0.00  0.00    +0.024 A 
ATOM     25  C   UNL     1      -1.707  -2.514  24.245  0.00  0.00    +0.111 A 
ATOM     26  C   UNL     1      -3.711  -1.708  25.026  0.00  0.00    +0.111 A 
ENDBRANCH  16  19
ENDBRANCH   5  16
ENDBRANCH  13   5
ENDBRANCH   8  13
BRANCH  10  14
ATOM     14  C   UNL     1      -1.796   1.199  22.574  0.00  0.00    +0.090 C 
BRANCH  14  15
ATOM      4  O   UNL     1       1.240  -0.558  21.744  0.00  0.00    -0.354 OA
ATOM      6  N   UNL     1      -0.104  -0.265  21.548  0.00  0.00    -0.083 NA
ATOM     15  C   UNL     1      -0.401   0.641  22.484  0.00  0.00    +0.087 A 
ATOM     17  C   UNL     1       0.704   0.954  23.293  0.00  0.00    +0.076 A 
ATOM     18  C   UNL     1       1.710   0.174  22.787  0.00  0.00    +0.167 A 
BRANCH  18  20
ATOM      1  F   UNL     1       7.076  -0.581  24.046  0.00  0.00    -0.205 F 
ATOM     20  C   UNL     1       3.094  -0.022  23.111  0.00  0.00    +0.020 A 
ATOM     23  C   UNL     1       3.530  -1.254  23.595  0.00  0.00    +0.014 A 
ATOM     24  C   UNL     1       4.004   1.022  22.942  0.00  0.00    +0.014 A 
ATOM     27  C   UNL     1       4.875  -1.444  23.912  0.00  0.00    +0.039 A 
ATOM     28  C   UNL     1       5.349   0.833  23.258  0.00  0.00    +0.039 A 
ATOM     29  C   UNL     1       5.784  -0.399  23.743  0.00  0.00    +0.123 A 
ENDBRANCH  18  20
ENDBRANCH  14  15
ENDBRANCH  10  14
TORSDOF 8
ENDMDL
MODEL 7
REMARK VINA RESULT:       0.1      3.081      7.237
REMARK  Name = 75536261
REMARK  8 active torsions:
REMARK  status: ('A' for Active; 'I' for Inactive)
REMARK    1  A    between atoms: O_3  and  C_9
REMARK    2  A    between atoms: N_5  and  C_13
REMARK    3  A    between atoms: N_5  and  C_16
REMARK    4  A    between atoms: C_8  and  C_13
REMARK    5  A    between atoms: C_10  and  C_14
REMARK    6  A    between atoms: C_14  and  C_15
REMARK    7  A    between atoms: C_16  and  C_19
REMARK    8  A    between atoms: C_18  and  C_20
REMARK                            x       y       z     vdW  Elec       q    Type
REMARK                         _______ _______ _______ _____ _____    ______ ____
ROOT
ATOM      2  O   UNL     1      -1.917   3.540  24.649  0.00  0.00    -0.369 OA
ATOM      8  C   UNL     1      -0.486   3.587  24.628  0.00  0.00    +0.161 C 
ATOM      9  C   UNL     1       0.022   4.976  24.217  0.00  0.00    +0.145 C 
ATOM     10  C   UNL     1      -2.547   4.524  25.473  0.00  0.00    +0.125 C 
ATOM     11  C   UNL     1      -0.643   6.096  25.011  0.00  0.00    +0.036 C 
ATOM     12  C   UNL     1      -2.160   5.932  25.021  0.00  0.00    +0.034 C 
ENDROOT
BRANCH   9   3
ATOM      3  O   UNL     1      -0.278   5.184  22.834  0.00  0.00    -0.389 OA
ATOM     31  H   UNL     1      -1.180   5.546  22.780  0.00  0.00    +0.210 HD
ENDBRANCH   9   3
BRANCH   8  13
ATOM     13  C   UNL     1       0.101   3.108  25.955  0.00  0.00    +0.115 C 
BRANCH  13   5
ATOM      5  N   UNL     1       0.535   1.723  25.858  0.00  0.00    -0.309 NA
ATOM     30  H   UNL     1       1.547   1.696  25.732  0.00  0.00    +0.122 HD
BRANCH   5  16
ATOM     16  C   UNL     1      -0.121   1.045  24.747  0.00  0.00    +0.116 C 
BRANCH  16  19
ATOM      7  N   UNL     1       2.680  -0.081  21.683  0.00  0.00    -0.263 NA
ATOM     19  C   UNL     1       0.859   0.651  23.674  0.00  0.00    -0.031 A 
ATOM     21  C   UNL     1       0.480  -0.236  22.673  0.00  0.00    +0.024 A 
ATOM     22  C   UNL     1       2.148   1.173  23.681  0.00  0.00    +0.024 A 
ATOM     25  C   UNL     1       1.419  -0.566  21.710  0.00  0.00    +0.111 A 
ATOM     26  C   UNL     1       3.013   0.780  22.673  0.00  0.00    +0.111 A 
ENDBRANCH  16  19
ENDBRANCH   5  16
ENDBRANCH  13   5
ENDBRANCH   8  13
BRANCH  10  14
ATOM     14  C   UNL     1      -4.053   4.315  25.368  0.00  0.00    +0.090 C 
BRANCH  14  15
ATOM      4  O   UNL     1      -5.645   1.105  24.977  0.00  0.00    -0.354 OA
ATOM      6  N   UNL     1      -5.682   2.481  25.164  0.00  0.00    -0.083 NA
ATOM     15  C   UNL     1      -4.401   2.863  25.182  0.00  0.00    +0.087 A 
ATOM     17  C   UNL     1      -3.520   1.781  25.013  0.00  0.00    +0.076 A 
ATOM     18  C   UNL     1      -4.352   0.700  24.889  0.00  0.00    +0.167 A 
BRANCH  18  20
ATOM      1  F   UNL     1      -3.576  -4.755  24.121  0.00  0.00    -0.205 F 
ATOM     20  C   UNL     1      -4.153  -0.707  24.692  0.00  0.00    +0.020 A 
ATOM     23  C   UNL     1      -3.459  -1.454  25.643  0.00  0.00    +0.014 A 
ATOM     24  C   UNL     1      -4.652  -1.328  23.547  0.00  0.00    +0.014 A 
ATOM     27  C   UNL     1      -3.263  -2.821  25.451  0.00  0.00    +0.039 A 
ATOM     28  C   UNL     1      -4.458  -2.696  23.355  0.00  0.00    +0.039 A 
ATOM     29  C   UNL     1      -3.764  -3.442  24.306  0.00  0.00    +0.123 A 
ENDBRANCH  18  20
ENDBRANCH  14  15
ENDBRANCH  10  14
TORSDOF 8
ENDMDL
MODEL 8
REMARK VINA RESULT:       0.1      3.604      7.534
REMARK  Name = 75536261
REMARK  8 active torsions:
REMARK  status: ('A' for Active; 'I' for Inactive)
REMARK    1  A    between atoms: O_3  and  C_9
REMARK    2  A    between atoms: N_5  and  C_13
REMARK    3  A    between atoms: N_5  and  C_16
REMARK    4  A    between atoms: C_8  and  C_13
REMARK    5  A    between atoms: C_10  and  C_14
REMARK    6  A    between atoms: C_14  and  C_15
REMARK    7  A    between atoms: C_16  and  C_19
REMARK    8  A    between atoms: C_18  and  C_20
REMARK                            x       y       z     vdW  Elec       q    Type
REMARK                         _______ _______ _______ _____ _____    ______ ____
ROOT
ATOM      2  O   UNL     1       0.267   1.074  23.142  0.00  0.00    -0.369 OA
ATOM      8  C   UNL     1       0.449  -0.341  23.012  0.00  0.00    +0.161 C 
ATOM      9  C   UNL     1       1.755  -0.671  22.278  0.00  0.00    +0.145 C 
ATOM     10  C   UNL     1       1.341   1.770  23.778  0.00  0.00    +0.125 C 
ATOM     11  C   UNL     1       2.953   0.077  22.858  0.00  0.00    +0.036 C 
ATOM     12  C   UNL     1       2.646   1.564  23.008  0.00  0.00    +0.034 C 
ENDROOT
BRANCH   9   3
ATOM      3  O   UNL     1       1.622  -0.286  20.907  0.00  0.00    -0.389 OA
ATOM     31  H   UNL     1       0.703   0.002  20.772  0.00  0.00    +0.210 HD
ENDBRANCH   9   3
BRANCH   8  13
ATOM     13  C   UNL     1       0.334  -1.038  24.367  0.00  0.00    +0.115 C 
BRANCH  13   5
ATOM      5  N   UNL     1      -0.345  -0.188  25.331  0.00  0.00    -0.309 NA
ATOM     30  H   UNL     1       0.343   0.218  25.966  0.00  0.00    +0.122 HD
BRANCH   5  16
ATOM     16  C   UNL     1      -1.333  -0.943  26.091  0.00  0.00    +0.116 C 
BRANCH  16  19
ATOM      7  N   UNL     1      -4.442  -2.509  23.563  0.00  0.00    -0.263 NA
ATOM     19  C   UNL     1      -2.422  -1.491  25.205  0.00  0.00    -0.031 A 
ATOM     21  C   UNL     1      -3.045  -0.668  24.275  0.00  0.00    +0.024 A 
ATOM     22  C   UNL     1      -2.806  -2.823  25.317  0.00  0.00    +0.024 A 
ATOM     25  C   UNL     1      -4.040  -1.221  23.485  0.00  0.00    +0.111 A 
ATOM     26  C   UNL     1      -3.812  -3.279  24.481  0.00  0.00    +0.111 A 
ENDBRANCH  16  19
ENDBRANCH   5  16
ENDBRANCH  13   5
ENDBRANCH   8  13
BRANCH  10  14
ATOM     14  C   UNL     1       0.967   3.246  23.826  0.00  0.00    +0.090 C 
BRANCH  14  15
ATOM      4  O   UNL     1      -2.118   4.487  25.216  0.00  0.00    -0.354 OA
ATOM      6  N   UNL     1      -0.796   4.647  24.820  0.00  0.00    -0.083 NA
ATOM     15  C   UNL     1      -0.428   3.450  24.352  0.00  0.00    +0.087 A 
ATOM     17  C   UNL     1      -1.465   2.506  24.428  0.00  0.00    +0.076 A 
ATOM     18  C   UNL     1      -2.506   3.208  24.978  0.00  0.00    +0.167 A 
BRANCH  18  20
ATOM      1  F   UNL     1      -7.747   1.972  26.373  0.00  0.00    -0.205 F 
ATOM     20  C   UNL     1      -3.858   2.889  25.337  0.00  0.00    +0.020 A 
ATOM     23  C   UNL     1      -4.779   3.912  25.562  0.00  0.00    +0.014 A 
ATOM     24  C   UNL     1      -4.250   1.557  25.461  0.00  0.00    +0.014 A 
ATOM     27  C   UNL     1      -6.093   3.602  25.912  0.00  0.00    +0.039 A 
ATOM     28  C   UNL     1      -5.565   1.247  25.811  0.00  0.00    +0.039 A 
ATOM     29  C   UNL     1      -6.485   2.269  26.037  0.00  0.00    +0.123 A 
ENDBRANCH  18  20
ENDBRANCH  14  15
ENDBRANCH  10  14
TORSDOF 8
ENDMDL
MODEL 9
REMARK VINA RESULT:       0.3      2.729      4.147
REMARK  Name = 75536261
REMARK  8 active torsions:
REMARK  status: ('A' for Active; 'I' for Inactive)
REMARK    1  A    between atoms: O_3  and  C_9
REMARK    2  A    between atoms: N_5  and  C_13
REMARK    3  A    between atoms: N_5  and  C_16
REMARK    4  A    between atoms: C_8  and  C_13
REMARK    5  A    between atoms: C_10  and  C_14
REMARK    6  A    between atoms: C_14  and  C_15
REMARK    7  A    between atoms: C_16  and  C_19
REMARK    8  A    between atoms: C_18  and  C_20
REMARK                            x       y       z     vdW  Elec       q    Type
REMARK                         _______ _______ _______ _____ _____    ______ ____
ROOT
ATOM      2  O   UNL     1      -2.680   2.560  24.201  0.00  0.00    -0.369 OA
ATOM      8  C   UNL     1      -2.869   3.740  24.992  0.00  0.00    +0.161 C 
ATOM      9  C   UNL     1      -4.353   3.971  25.305  0.00  0.00    +0.145 C 
ATOM     10  C   UNL     1      -3.226   1.361  24.756  0.00  0.00    +0.125 C 
ATOM     11  C   UNL     1      -5.034   2.719  25.852  0.00  0.00    +0.036 C 
ATOM     12  C   UNL     1      -4.732   1.508  24.974  0.00  0.00    +0.034 C 
ENDROOT
BRANCH   9   3
ATOM      3  O   UNL     1      -5.025   4.342  24.098  0.00  0.00    -0.389 OA
ATOM     31  H   UNL     1      -4.608   3.851  23.368  0.00  0.00    +0.210 HD
ENDBRANCH   9   3
BRANCH   8  13
ATOM     13  C   UNL     1      -1.994   3.710  26.244  0.00  0.00    +0.115 C 
BRANCH  13   5
ATOM      5  N   UNL     1      -0.589   3.583  25.892  0.00  0.00    -0.309 NA
ATOM     30  H   UNL     1      -0.489   3.643  24.878  0.00  0.00    +0.122 HD
BRANCH   5  16
ATOM     16  C   UNL     1      -0.041   2.320  26.369  0.00  0.00    +0.116 C 
BRANCH  16  19
ATOM      7  N   UNL     1       2.335   2.840  29.916  0.00  0.00    -0.263 NA
ATOM     19  C   UNL     1       0.791   2.502  27.611  0.00  0.00    -0.031 A 
ATOM     21  C   UNL     1       2.094   2.978  27.514  0.00  0.00    +0.024 A 
ATOM     22  C   UNL     1       0.258   2.195  28.858  0.00  0.00    +0.024 A 
ATOM     25  C   UNL     1       2.817   3.128  28.687  0.00  0.00    +0.111 A 
ATOM     26  C   UNL     1       1.064   2.380  29.970  0.00  0.00    +0.111 A 
ENDBRANCH  16  19
ENDBRANCH   5  16
ENDBRANCH  13   5
ENDBRANCH   8  13
BRANCH  10  14
ATOM     14  C   UNL     1      -2.927   0.227  23.784  0.00  0.00    +0.090 C 
BRANCH  14  15
ATOM      4  O   UNL     1       0.246  -1.413  24.267  0.00  0.00    -0.354 OA
ATOM      6  N   UNL     1      -1.137  -1.353  24.384  0.00  0.00    -0.083 NA
ATOM     15  C   UNL     1      -1.480  -0.183  23.836  0.00  0.00    +0.087 A 
ATOM     17  C   UNL     1      -0.366   0.530  23.361  0.00  0.00    +0.076 A 
ATOM     18  C   UNL     1       0.694  -0.286  23.656  0.00  0.00    +0.167 A 
BRANCH  18  20
ATOM      1  F   UNL     1       6.197   0.030  22.907  0.00  0.00    -0.205 F 
ATOM     20  C   UNL     1       2.113  -0.205  23.462  0.00  0.00    +0.020 A 
ATOM     23  C   UNL     1       2.925  -1.289  23.795  0.00  0.00    +0.014 A 
ATOM     24  C   UNL     1       2.680   0.957  22.942  0.00  0.00    +0.014 A 
ATOM     27  C   UNL     1       4.305  -1.209  23.609  0.00  0.00    +0.039 A 
ATOM     28  C   UNL     1       4.060   1.037  22.753  0.00  0.00    +0.039 A 
ATOM     29  C   UNL     1       4.872  -0.046  23.087  0.00  0.00    +0.123 A 
ENDBRANCH  18  20
ENDBRANCH  14  15
ENDBRANCH  10  14
TORSDOF 8
ENDMDL
MODEL 10
REMARK VINA RESULT:       1.2      3.608      5.351
REMARK  Name = 75536261
REMARK  8 active torsions:
REMARK  status: ('A' for Active; 'I' for Inactive)
REMARK    1  A    between atoms: O_3  and  C_9
REMARK    2  A    between atoms: N_5  and  C_13
REMARK    3  A    between atoms: N_5  and  C_16
REMARK    4  A    between atoms: C_8  and  C_13
REMARK    5  A    between atoms: C_10  and  C_14
REMARK    6  A    between atoms: C_14  and  C_15
REMARK    7  A    between atoms: C_16  and  C_19
REMARK    8  A    between atoms: C_18  and  C_20
REMARK                            x       y       z     vdW  Elec       q    Type
REMARK                         _______ _______ _______ _____ _____    ______ ____
ROOT
ATOM      2  O   UNL     1      -3.360   2.197  24.900  0.00  0.00    -0.369 OA
ATOM      8  C   UNL     1      -4.623   2.020  25.554  0.00  0.00    +0.161 C 
ATOM      9  C   UNL     1      -5.235   3.367  25.961  0.00  0.00    +0.145 C 
ATOM     10  C   UNL     1      -3.382   3.058  23.759  0.00  0.00    +0.125 C 
ATOM     11  C   UNL     1      -5.247   4.371  24.812  0.00  0.00    +0.036 C 
ATOM     12  C   UNL     1      -3.876   4.451  24.145  0.00  0.00    +0.034 C 
ENDROOT
BRANCH   9   3
ATOM      3  O   UNL     1      -4.455   3.925  27.022  0.00  0.00    -0.389 OA
ATOM     31  H   UNL     1      -3.661   3.373  27.123  0.00  0.00    +0.210 HD
ENDBRANCH   9   3
BRANCH   8  13
ATOM     13  C   UNL     1      -5.567   1.167  24.708  0.00  0.00    +0.115 C 
BRANCH  13   5
ATOM      5  N   UNL     1      -5.024  -0.168  24.513  0.00  0.00    -0.309 NA
ATOM     30  H   UNL     1      -5.787  -0.817  24.320  0.00  0.00    +0.122 HD
BRANCH   5  16
ATOM     16  C   UNL     1      -4.284  -0.609  25.689  0.00  0.00    +0.116 C 
BRANCH  16  19
ATOM      7  N   UNL     1      -0.438  -2.229  24.647  0.00  0.00    -0.263 NA
ATOM     19  C   UNL     1      -2.937  -1.175  25.324  0.00  0.00    -0.031 A 
ATOM     21  C   UNL     1      -1.778  -0.599  25.828  0.00  0.00    +0.024 A 
ATOM     22  C   UNL     1      -2.851  -2.278  24.481  0.00  0.00    +0.024 A 
ATOM     25  C   UNL     1      -0.564  -1.158  25.463  0.00  0.00    +0.111 A 
ATOM     26  C   UNL     1      -1.589  -2.762  24.176  0.00  0.00    +0.111 A 
ENDBRANCH  16  19
ENDBRANCH   5  16
ENDBRANCH  13   5
ENDBRANCH   8  13
BRANCH  10  14
ATOM     14  C   UNL     1      -1.964   3.120  23.204  0.00  0.00    +0.090 C 
BRANCH  14  15
ATOM      4  O   UNL     1       0.879   1.994  25.112  0.00  0.00    -0.354 OA
ATOM      6  N   UNL     1       0.167   2.121  23.926  0.00  0.00    -0.083 NA
ATOM     15  C   UNL     1      -0.940   2.794  24.257  0.00  0.00    +0.087 A 
ATOM     17  C   UNL     1      -0.980   3.114  25.625  0.00  0.00    +0.076 A 
ATOM     18  C   UNL     1       0.186   2.589  26.117  0.00  0.00    +0.167 A 
BRANCH  18  20
ATOM      1  F   UNL     1       2.575   2.405  31.138  0.00  0.00    -0.205 F 
ATOM     20  C   UNL     1       0.802   2.541  27.411  0.00  0.00    +0.020 A 
ATOM     23  C   UNL     1       0.041   2.216  28.534  0.00  0.00    +0.014 A 
ATOM     24  C   UNL     1       2.162   2.820  27.548  0.00  0.00    +0.014 A 
ATOM     27  C   UNL     1       0.639   2.171  29.793  0.00  0.00    +0.039 A 
ATOM     28  C   UNL     1       2.761   2.773  28.806  0.00  0.00    +0.039 A 
ATOM     29  C   UNL     1       2.000   2.449  29.929  0.00  0.00    +0.123 A 
ENDBRANCH  18  20
ENDBRANCH  14  15
ENDBRANCH  10  14
TORSDOF 8
ENDMDL
