MODEL 1
REMARK VINA RESULT:      17.6      0.000      0.000
REMARK  Name = 71694358
REMARK  5 active torsions:
REMARK  status: ('A' for Active; 'I' for Inactive)
REMARK    1  A    between atoms: N_5  and  C_27
REMARK    2  A    between atoms: N_7  and  C_26
REMARK    3  A    between atoms: C_10  and  C_15
REMARK    4  A    between atoms: C_15  and  C_18
REMARK    5  A    between atoms: C_27  and  C_34
REMARK                            x       y       z     vdW  Elec       q    Type
REMARK                         _______ _______ _______ _____ _____    ______ ____
ROOT
ATOM      1  O   UNL     1      -0.233   5.959  25.399  0.00  0.00    -0.274 OA
ATOM      3  O   UNL     1      -0.852   1.065  23.445  0.00  0.00    -0.488 OA
ATOM      4  N   UNL     1      -2.220   5.010  24.684  0.00  0.00    -0.300 N 
ATOM      6  N   UNL     1       0.140   3.757  22.963  0.00  0.00    -0.304 NA
ATOM     10  C   UNL     1      -3.876   2.884  25.794  0.00  0.00    +0.008 C 
ATOM     11  C   UNL     1      -3.139   2.772  24.426  0.00  0.00    +0.032 C 
ATOM     12  C   UNL     1      -3.136   3.910  26.684  0.00  0.00    +0.023 C 
ATOM     13  C   UNL     1      -2.988   4.158  23.771  0.00  0.00    +0.115 C 
ATOM     14  C   UNL     1      -2.885   5.240  25.969  0.00  0.00    +0.108 C 
ATOM     16  C   UNL     1      -3.757   1.782  23.474  0.00  0.00    -0.023 C 
ATOM     17  C   UNL     1      -0.891   5.398  24.515  0.00  0.00    +0.229 C 
ATOM     19  C   UNL     1      -3.204   0.689  22.919  0.00  0.00    +0.010 C 
ATOM     20  C   UNL     1      -0.227   5.155  23.173  0.00  0.00    +0.178 C 
ATOM     21  C   UNL     1      -1.813   0.114  23.004  0.00  0.00    +0.256 C 
ATOM     22  C   UNL     1       0.954   3.164  24.022  0.00  0.00    +0.120 C 
ATOM     23  C   UNL     1       1.400   1.755  23.670  0.00  0.00    +0.010 A 
ATOM     26  C   UNL     1       3.228   0.185  23.344  0.00  0.00    +0.030 A 
ATOM     28  C   UNL     1       0.476   0.720  23.398  0.00  0.00    +0.125 A 
ATOM     31  C   UNL     1       2.774   1.469  23.639  0.00  0.00    +0.031 A 
ATOM     32  C   UNL     1       2.315  -0.831  23.080  0.00  0.00    +0.027 A 
ATOM     33  C   UNL     1       0.944  -0.568  23.109  0.00  0.00    +0.048 A 
ATOM     40  H   UNL     1       0.634   3.684  22.074  0.00  0.00    +0.123 HD
ENDROOT
BRANCH  26   7
ATOM      7  N   UNL     1       4.601  -0.084  23.315  0.00  0.00    -0.327 N 
ATOM      8  N   UNL     1       7.438  -0.387  23.205  0.00  0.00    -0.313 NA
ATOM     24  C   UNL     1       5.310   0.073  22.037  0.00  0.00    +0.120 C 
ATOM     25  C   UNL     1       5.410   0.128  24.520  0.00  0.00    +0.120 C 
ATOM     29  C   UNL     1       6.612  -0.726  22.046  0.00  0.00    +0.100 C 
ATOM     30  C   UNL     1       6.711  -0.672  24.440  0.00  0.00    +0.100 C 
ATOM     41  H   UNL     1       8.292  -0.943  23.182  0.00  0.00    +0.122 HD
ENDBRANCH  26   7
BRANCH  10  15
ATOM     15  C   UNL     1      -5.365   3.235  25.691  0.00  0.00    +0.100 C 
BRANCH  15  18
ATOM      2  O   UNL     1      -7.384   2.144  24.922  0.00  0.00    -0.276 OA
ATOM      5  N   UNL     1      -5.420   0.916  25.112  0.00  0.00    -0.311 N 
ATOM     18  C   UNL     1      -6.190   2.067  25.200  0.00  0.00    +0.214 C 
ATOM     39  H   UNL     1      -4.439   0.949  25.371  0.00  0.00    +0.149 HD
BRANCH   5  27
ATOM     27  C   UNL     1      -5.948  -0.355  24.672  0.00  0.00    +0.141 C 
BRANCH  27  34
ATOM      9  N   UNL     1      -2.853  -2.376  25.472  0.00  0.00    -0.263 NA
ATOM     34  C   UNL     1      -4.880  -1.406  24.578  0.00  0.00    -0.012 A 
ATOM     35  C   UNL     1      -4.895  -2.355  23.563  0.00  0.00    +0.008 A 
ATOM     36  C   UNL     1      -3.846  -1.458  25.500  0.00  0.00    +0.115 A 
ATOM     37  C   UNL     1      -3.891  -3.315  23.501  0.00  0.00    +0.020 A 
ATOM     38  C   UNL     1      -2.902  -3.283  24.471  0.00  0.00    +0.111 A 
ENDBRANCH  27  34
ENDBRANCH   5  27
ENDBRANCH  15  18
ENDBRANCH  10  15
TORSDOF 5
ENDMDL
