MODEL 1
REMARK VINA RESULT:      -4.0      0.000      0.000
REMARK  Name = 38026726
REMARK  13 active torsions:
REMARK  status: ('A' for Active; 'I' for Inactive)
REMARK    1  A    between atoms: S_1  and  N_9
REMARK    2  A    between atoms: S_1  and  C_19
REMARK    3  A    between atoms: O_3  and  C_12
REMARK    4  A    between atoms: O_4  and  C_15
REMARK    5  A    between atoms: O_7  and  C_29
REMARK    6  A    between atoms: O_7  and  C_30
REMARK    7  A    between atoms: N_8  and  C_10
REMARK    8  A    between atoms: N_8  and  C_16
REMARK    9  A    between atoms: N_8  and  C_17
REMARK   10  A    between atoms: N_9  and  C_14
REMARK   11  A    between atoms: C_11  and  C_14
REMARK   12  A    between atoms: C_13  and  C_15
REMARK   13  A    between atoms: C_16  and  C_18
REMARK                            x       y       z     vdW  Elec       q    Type
REMARK                         _______ _______ _______ _____ _____    ______ ____
ROOT
ATOM      2  O   UNL     1      -7.355  -9.115  10.104  0.00  0.00    -0.366 OA
ATOM     10  C   UNL     1      -5.034  -9.512  10.464  0.00  0.00    +0.118 C 
ATOM     11  C   UNL     1      -6.439  -9.716  11.047  0.00  0.00    +0.154 C 
ATOM     12  C   UNL     1      -5.200  -8.274   9.597  0.00  0.00    +0.165 C 
ATOM     13  C   UNL     1      -6.600  -8.507   9.038  0.00  0.00    +0.174 C 
ENDROOT
BRANCH  12   3
ATOM      3  O   UNL     1      -5.170  -7.084  10.375  0.00  0.00    -0.388 OA
ATOM     31  H   UNL     1      -5.408  -7.324  11.287  0.00  0.00    +0.210 HD
ENDBRANCH  12   3
BRANCH  10   8
ATOM      8  N   UNL     1      -3.944  -9.457  11.421  0.00  0.00    -0.293 NA
ATOM     17  C   UNL     1      -2.705  -9.011  10.776  0.00  0.00    +0.105 C 
BRANCH   8  16
ATOM     16  C   UNL     1      -3.738 -10.763  12.055  0.00  0.00    +0.119 C 
BRANCH  16  18
ATOM     18  C   UNL     1      -3.219 -10.628  13.462  0.00  0.00    -0.033 A 
ATOM     20  C   UNL     1      -4.102 -10.694  14.540  0.00  0.00    +0.005 A 
ATOM     21  C   UNL     1      -1.856 -10.436  13.687  0.00  0.00    +0.005 A 
ATOM     22  C   UNL     1      -3.621 -10.570  15.843  0.00  0.00    +0.000 A 
ATOM     23  C   UNL     1      -1.376 -10.313  14.991  0.00  0.00    +0.000 A 
ATOM     26  C   UNL     1      -2.258 -10.379  16.070  0.00  0.00    +0.000 A 
ENDBRANCH  16  18
ENDBRANCH   8  16
ENDBRANCH  10   8
BRANCH  11  14
ATOM     14  C   UNL     1      -6.712  -9.085  12.407  0.00  0.00    +0.139 C 
BRANCH  14   9
ATOM      9  N   UNL     1      -7.324 -10.087  13.298  0.00  0.00    -0.187 NA
ATOM     32  H   UNL     1      -6.667 -10.703  13.794  0.00  0.00    +0.148 HD
BRANCH   9   1
ATOM      1  S   UNL     1      -8.833  -9.778  14.024  0.00  0.00    +0.058 S 
ATOM      5  O   UNL     1      -9.788 -10.781  13.590  0.00  0.00    -0.153 OA
ATOM      6  O   UNL     1      -9.144  -8.368  13.887  0.00  0.00    -0.153 OA
BRANCH   1  19
ATOM     19  C   UNL     1      -8.478 -10.067  15.731  0.00  0.00    +0.105 A 
ATOM     24  C   UNL     1      -9.500  -9.998  16.677  0.00  0.00    +0.032 A 
ATOM     25  C   UNL     1      -7.176 -10.365  16.132  0.00  0.00    +0.032 A 
ATOM     27  C   UNL     1      -9.220 -10.226  18.024  0.00  0.00    +0.047 A 
ATOM     28  C   UNL     1      -6.895 -10.593  17.479  0.00  0.00    +0.047 A 
ATOM     29  C   UNL     1      -7.917 -10.523  18.425  0.00  0.00    +0.120 A 
BRANCH  29   7
ATOM      7  O   UNL     1      -7.644 -10.745  19.740  0.00  0.00    -0.495 OA
ATOM     30  C   UNL     1      -6.281 -10.632  20.148  0.00  0.00    +0.277 C 
ENDBRANCH  29   7
ENDBRANCH   1  19
ENDBRANCH   9   1
ENDBRANCH  14   9
ENDBRANCH  11  14
BRANCH  13  15
ATOM     15  C   UNL     1      -7.326  -7.264   8.556  0.00  0.00    +0.190 C 
BRANCH  15   4
ATOM      4  O   UNL     1      -8.724  -7.494   8.626  0.00  0.00    -0.392 OA
ATOM     33  H   UNL     1      -9.118  -6.723   9.068  0.00  0.00    +0.210 HD
ENDBRANCH  15   4
ENDBRANCH  13  15
TORSDOF 11
ENDMDL
MODEL 2
REMARK VINA RESULT:      -2.1     14.343     17.275
REMARK  Name = 38026726
REMARK  13 active torsions:
REMARK  status: ('A' for Active; 'I' for Inactive)
REMARK    1  A    between atoms: S_1  and  N_9
REMARK    2  A    between atoms: S_1  and  C_19
REMARK    3  A    between atoms: O_3  and  C_12
REMARK    4  A    between atoms: O_4  and  C_15
REMARK    5  A    between atoms: O_7  and  C_29
REMARK    6  A    between atoms: O_7  and  C_30
REMARK    7  A    between atoms: N_8  and  C_10
REMARK    8  A    between atoms: N_8  and  C_16
REMARK    9  A    between atoms: N_8  and  C_17
REMARK   10  A    between atoms: N_9  and  C_14
REMARK   11  A    between atoms: C_11  and  C_14
REMARK   12  A    between atoms: C_13  and  C_15
REMARK   13  A    between atoms: C_16  and  C_18
REMARK                            x       y       z     vdW  Elec       q    Type
REMARK                         _______ _______ _______ _____ _____    ______ ____
ROOT
ATOM      2  O   UNL     1      -0.803   3.132  25.291  0.00  0.00    -0.366 OA
ATOM     10  C   UNL     1      -3.085   2.466  25.431  0.00  0.00    +0.118 C 
ATOM     11  C   UNL     1      -1.661   1.981  25.130  0.00  0.00    +0.154 C 
ATOM     12  C   UNL     1      -3.017   3.950  25.105  0.00  0.00    +0.165 C 
ATOM     13  C   UNL     1      -1.613   4.283  25.599  0.00  0.00    +0.174 C 
ENDROOT
BRANCH  12   3
ATOM      3  O   UNL     1      -3.117   4.181  23.705  0.00  0.00    -0.388 OA
ATOM     31  H   UNL     1      -4.026   3.967  23.437  0.00  0.00    +0.210 HD
ENDBRANCH  12   3
BRANCH  10   8
ATOM      8  N   UNL     1      -4.162   1.738  24.785  0.00  0.00    -0.293 NA
ATOM     17  C   UNL     1      -5.273   2.636  24.454  0.00  0.00    +0.105 C 
BRANCH   8  16
ATOM     16  C   UNL     1      -4.638   0.644  25.638  0.00  0.00    +0.119 C 
BRANCH  16  18
ATOM     18  C   UNL     1      -4.112  -0.691  25.181  0.00  0.00    -0.033 A 
ATOM     20  C   UNL     1      -4.572  -1.251  23.989  0.00  0.00    +0.005 A 
ATOM     21  C   UNL     1      -3.165  -1.368  25.950  0.00  0.00    +0.005 A 
ATOM     22  C   UNL     1      -4.085  -2.487  23.566  0.00  0.00    +0.000 A 
ATOM     23  C   UNL     1      -2.678  -2.604  25.525  0.00  0.00    +0.000 A 
ATOM     26  C   UNL     1      -3.137  -3.164  24.334  0.00  0.00    +0.000 A 
ENDBRANCH  16  18
ENDBRANCH   8  16
ENDBRANCH  10   8
BRANCH  11  14
ATOM     14  C   UNL     1      -1.411   1.424  23.732  0.00  0.00    +0.139 C 
BRANCH  14   9
ATOM      9  N   UNL     1       0.030   1.174  23.556  0.00  0.00    -0.187 NA
ATOM     32  H   UNL     1       0.656   1.741  24.141  0.00  0.00    +0.148 HD
BRANCH   9   1
ATOM      1  S   UNL     1       0.577  -0.359  23.054  0.00  0.00    +0.058 S 
ATOM      5  O   UNL     1       0.247  -0.551  21.655  0.00  0.00    -0.153 OA
ATOM      6  O   UNL     1       0.181  -1.348  24.039  0.00  0.00    -0.153 OA
BRANCH   1  19
ATOM     19  C   UNL     1       2.330  -0.176  23.181  0.00  0.00    +0.105 A 
ATOM     24  C   UNL     1       3.106  -1.219  23.684  0.00  0.00    +0.032 A 
ATOM     25  C   UNL     1       2.938   1.013  22.777  0.00  0.00    +0.032 A 
ATOM     27  C   UNL     1       4.490  -1.074  23.783  0.00  0.00    +0.047 A 
ATOM     28  C   UNL     1       4.322   1.158  22.876  0.00  0.00    +0.047 A 
ATOM     29  C   UNL     1       5.098   0.114  23.379  0.00  0.00    +0.120 A 
BRANCH  29   7
ATOM      7  O   UNL     1       6.448   0.256  23.478  0.00  0.00    -0.495 OA
ATOM     30  C   UNL     1       7.252  -0.709  22.802  0.00  0.00    +0.277 C 
ENDBRANCH  29   7
ENDBRANCH   1  19
ENDBRANCH   9   1
ENDBRANCH  14   9
ENDBRANCH  11  14
BRANCH  13  15
ATOM     15  C   UNL     1      -0.981   5.519  24.985  0.00  0.00    +0.190 C 
BRANCH  15   4
ATOM      4  O   UNL     1      -0.227   5.131  23.847  0.00  0.00    -0.392 OA
ATOM     33  H   UNL     1      -0.439   4.199  23.669  0.00  0.00    +0.210 HD
ENDBRANCH  15   4
ENDBRANCH  13  15
TORSDOF 11
ENDMDL
MODEL 3
REMARK VINA RESULT:      -1.5     14.215     16.786
REMARK  Name = 38026726
REMARK  13 active torsions:
REMARK  status: ('A' for Active; 'I' for Inactive)
REMARK    1  A    between atoms: S_1  and  N_9
REMARK    2  A    between atoms: S_1  and  C_19
REMARK    3  A    between atoms: O_3  and  C_12
REMARK    4  A    between atoms: O_4  and  C_15
REMARK    5  A    between atoms: O_7  and  C_29
REMARK    6  A    between atoms: O_7  and  C_30
REMARK    7  A    between atoms: N_8  and  C_10
REMARK    8  A    between atoms: N_8  and  C_16
REMARK    9  A    between atoms: N_8  and  C_17
REMARK   10  A    between atoms: N_9  and  C_14
REMARK   11  A    between atoms: C_11  and  C_14
REMARK   12  A    between atoms: C_13  and  C_15
REMARK   13  A    between atoms: C_16  and  C_18
REMARK                            x       y       z     vdW  Elec       q    Type
REMARK                         _______ _______ _______ _____ _____    ______ ____
ROOT
ATOM      2  O   UNL     1       0.605   1.393  23.168  0.00  0.00    -0.366 OA
ATOM     10  C   UNL     1      -1.093   0.378  24.495  0.00  0.00    +0.118 C 
ATOM     11  C   UNL     1      -0.325   1.681  24.236  0.00  0.00    +0.154 C 
ATOM     12  C   UNL     1      -0.118  -0.691  24.028  0.00  0.00    +0.165 C 
ATOM     13  C   UNL     1       0.500  -0.000  22.817  0.00  0.00    +0.174 C 
ENDROOT
BRANCH  12   3
ATOM      3  O   UNL     1       0.877  -0.953  25.010  0.00  0.00    -0.388 OA
ATOM     31  H   UNL     1       0.489  -1.553  25.669  0.00  0.00    +0.210 HD
ENDBRANCH  12   3
BRANCH  10   8
ATOM      8  N   UNL     1      -1.616   0.197  25.837  0.00  0.00    -0.293 NA
ATOM     17  C   UNL     1      -1.006  -0.969  26.482  0.00  0.00    +0.105 C 
BRANCH   8  16
ATOM     16  C   UNL     1      -3.075   0.051  25.813  0.00  0.00    +0.119 C 
BRANCH  16  18
ATOM     18  C   UNL     1      -3.504  -1.175  25.050  0.00  0.00    -0.033 A 
ATOM     20  C   UNL     1      -4.305  -1.045  23.916  0.00  0.00    +0.005 A 
ATOM     21  C   UNL     1      -3.099  -2.439  25.478  0.00  0.00    +0.005 A 
ATOM     22  C   UNL     1      -4.702  -2.180  23.209  0.00  0.00    +0.000 A 
ATOM     23  C   UNL     1      -3.496  -3.574  24.771  0.00  0.00    +0.000 A 
ATOM     26  C   UNL     1      -4.298  -3.445  23.636  0.00  0.00    +0.000 A 
ENDBRANCH  16  18
ENDBRANCH   8  16
ENDBRANCH  10   8
BRANCH  11  14
ATOM     14  C   UNL     1       0.484   2.240  25.401  0.00  0.00    +0.139 C 
BRANCH  14   9
ATOM      9  N   UNL     1      -0.097   3.526  25.828  0.00  0.00    -0.187 NA
ATOM     32  H   UNL     1       0.392   4.003  26.596  0.00  0.00    +0.148 HD
BRANCH   9   1
ATOM      1  S   UNL     1      -0.967   4.482  24.718  0.00  0.00    +0.058 S 
ATOM      5  O   UNL     1      -0.484   4.217  23.376  0.00  0.00    -0.153 OA
ATOM      6  O   UNL     1      -1.030   5.843  25.215  0.00  0.00    -0.153 OA
BRANCH   1  19
ATOM     19  C   UNL     1      -2.593   3.804  24.856  0.00  0.00    +0.105 A 
ATOM     24  C   UNL     1      -3.290   3.901  26.060  0.00  0.00    +0.032 A 
ATOM     25  C   UNL     1      -3.180   3.171  23.760  0.00  0.00    +0.032 A 
ATOM     27  C   UNL     1      -4.573   3.366  26.168  0.00  0.00    +0.047 A 
ATOM     28  C   UNL     1      -4.464   2.636  23.868  0.00  0.00    +0.047 A 
ATOM     29  C   UNL     1      -5.160   2.734  25.072  0.00  0.00    +0.120 A 
BRANCH  29   7
ATOM      7  O   UNL     1      -6.412   2.211  25.179  0.00  0.00    -0.495 OA
ATOM     30  C   UNL     1      -6.735   1.543  26.398  0.00  0.00    +0.277 C 
ENDBRANCH  29   7
ENDBRANCH   1  19
ENDBRANCH   9   1
ENDBRANCH  14   9
ENDBRANCH  11  14
BRANCH  13  15
ATOM     15  C   UNL     1       1.865  -0.515  22.398  0.00  0.00    +0.190 C 
BRANCH  15   4
ATOM      4  O   UNL     1       2.864   0.228  23.078  0.00  0.00    -0.392 OA
ATOM     33  H   UNL     1       2.407   0.801  23.717  0.00  0.00    +0.210 HD
ENDBRANCH  15   4
ENDBRANCH  13  15
TORSDOF 11
ENDMDL
MODEL 4
REMARK VINA RESULT:      -1.5     14.729     16.955
REMARK  Name = 38026726
REMARK  13 active torsions:
REMARK  status: ('A' for Active; 'I' for Inactive)
REMARK    1  A    between atoms: S_1  and  N_9
REMARK    2  A    between atoms: S_1  and  C_19
REMARK    3  A    between atoms: O_3  and  C_12
REMARK    4  A    between atoms: O_4  and  C_15
REMARK    5  A    between atoms: O_7  and  C_29
REMARK    6  A    between atoms: O_7  and  C_30
REMARK    7  A    between atoms: N_8  and  C_10
REMARK    8  A    between atoms: N_8  and  C_16
REMARK    9  A    between atoms: N_8  and  C_17
REMARK   10  A    between atoms: N_9  and  C_14
REMARK   11  A    between atoms: C_11  and  C_14
REMARK   12  A    between atoms: C_13  and  C_15
REMARK   13  A    between atoms: C_16  and  C_18
REMARK                            x       y       z     vdW  Elec       q    Type
REMARK                         _______ _______ _______ _____ _____    ______ ____
ROOT
ATOM      2  O   UNL     1       3.371   1.506  22.966  0.00  0.00    -0.366 OA
ATOM     10  C   UNL     1       1.708  -0.086  22.360  0.00  0.00    +0.118 C 
ATOM     11  C   UNL     1       1.939   1.335  22.889  0.00  0.00    +0.154 C 
ATOM     12  C   UNL     1       2.969  -0.820  22.789  0.00  0.00    +0.165 C 
ATOM     13  C   UNL     1       4.013   0.272  22.589  0.00  0.00    +0.174 C 
ENDROOT
BRANCH  12   3
ATOM      3  O   UNL     1       2.908  -1.203  24.158  0.00  0.00    -0.388 OA
ATOM     31  H   UNL     1       2.985  -0.394  24.692  0.00  0.00    +0.210 HD
ENDBRANCH  12   3
BRANCH  10   8
ATOM      8  N   UNL     1       0.460  -0.721  22.744  0.00  0.00    -0.293 NA
ATOM     17  C   UNL     1      -0.687   0.092  22.329  0.00  0.00    +0.105 C 
BRANCH   8  16
ATOM     16  C   UNL     1       0.415  -0.952  24.191  0.00  0.00    +0.119 C 
BRANCH  16  18
ATOM     18  C   UNL     1      -0.971  -1.308  24.659  0.00  0.00    -0.033 A 
ATOM     20  C   UNL     1      -1.575  -0.568  25.675  0.00  0.00    +0.005 A 
ATOM     21  C   UNL     1      -1.650  -2.378  24.077  0.00  0.00    +0.005 A 
ATOM     22  C   UNL     1      -2.859  -0.897  26.109  0.00  0.00    +0.000 A 
ATOM     23  C   UNL     1      -2.934  -2.707  24.511  0.00  0.00    +0.000 A 
ATOM     26  C   UNL     1      -3.540  -1.967  25.527  0.00  0.00    +0.000 A 
ENDBRANCH  16  18
ENDBRANCH   8  16
ENDBRANCH  10   8
BRANCH  11  14
ATOM     14  C   UNL     1       1.371   1.649  24.269  0.00  0.00    +0.139 C 
BRANCH  14   9
ATOM      9  N   UNL     1       0.127   2.425  24.122  0.00  0.00    -0.187 NA
ATOM     32  H   UNL     1      -0.583   2.016  23.501  0.00  0.00    +0.148 HD
BRANCH   9   1
ATOM      1  S   UNL     1      -0.403   3.440  25.382  0.00  0.00    +0.058 S 
ATOM      5  O   UNL     1      -0.114   4.820  25.041  0.00  0.00    -0.153 OA
ATOM      6  O   UNL     1       0.044   2.892  26.649  0.00  0.00    -0.153 OA
BRANCH   1  19
ATOM     19  C   UNL     1      -2.155   3.217  25.312  0.00  0.00    +0.105 A 
ATOM     24  C   UNL     1      -2.707   2.312  24.406  0.00  0.00    +0.032 A 
ATOM     25  C   UNL     1      -2.986   3.947  26.162  0.00  0.00    +0.032 A 
ATOM     27  C   UNL     1      -4.090   2.137  24.351  0.00  0.00    +0.047 A 
ATOM     28  C   UNL     1      -4.368   3.772  26.107  0.00  0.00    +0.047 A 
ATOM     29  C   UNL     1      -4.920   2.866  25.201  0.00  0.00    +0.120 A 
BRANCH  29   7
ATOM      7  O   UNL     1      -6.270   2.696  25.145  0.00  0.00    -0.495 OA
ATOM     30  C   UNL     1      -6.745   1.416  24.733  0.00  0.00    +0.277 C 
ENDBRANCH  29   7
ENDBRANCH   1  19
ENDBRANCH   9   1
ENDBRANCH  14   9
ENDBRANCH  11  14
BRANCH  13  15
ATOM     15  C   UNL     1       5.292   0.108  23.390  0.00  0.00    +0.190 C 
BRANCH  15   4
ATOM      4  O   UNL     1       5.075   0.593  24.705  0.00  0.00    -0.392 OA
ATOM     33  H   UNL     1       4.258   1.121  24.683  0.00  0.00    +0.210 HD
ENDBRANCH  15   4
ENDBRANCH  13  15
TORSDOF 11
ENDMDL
MODEL 5
REMARK VINA RESULT:      -1.1     14.276     16.694
REMARK  Name = 38026726
REMARK  13 active torsions:
REMARK  status: ('A' for Active; 'I' for Inactive)
REMARK    1  A    between atoms: S_1  and  N_9
REMARK    2  A    between atoms: S_1  and  C_19
REMARK    3  A    between atoms: O_3  and  C_12
REMARK    4  A    between atoms: O_4  and  C_15
REMARK    5  A    between atoms: O_7  and  C_29
REMARK    6  A    between atoms: O_7  and  C_30
REMARK    7  A    between atoms: N_8  and  C_10
REMARK    8  A    between atoms: N_8  and  C_16
REMARK    9  A    between atoms: N_8  and  C_17
REMARK   10  A    between atoms: N_9  and  C_14
REMARK   11  A    between atoms: C_11  and  C_14
REMARK   12  A    between atoms: C_13  and  C_15
REMARK   13  A    between atoms: C_16  and  C_18
REMARK                            x       y       z     vdW  Elec       q    Type
REMARK                         _______ _______ _______ _____ _____    ______ ____
ROOT
ATOM      2  O   UNL     1      -1.419  -1.407  26.184  0.00  0.00    -0.366 OA
ATOM     10  C   UNL     1      -0.168  -0.966  24.206  0.00  0.00    +0.118 C 
ATOM     11  C   UNL     1      -0.381  -0.545  25.666  0.00  0.00    +0.154 C 
ATOM     12  C   UNL     1      -1.511  -1.566  23.823  0.00  0.00    +0.165 C 
ATOM     13  C   UNL     1      -1.890  -2.264  25.126  0.00  0.00    +0.174 C 
ENDROOT
BRANCH  12   3
ATOM      3  O   UNL     1      -2.463  -0.557  23.508  0.00  0.00    -0.388 OA
ATOM     31  H   UNL     1      -3.238  -0.696  24.078  0.00  0.00    +0.210 HD
ENDBRANCH  12   3
BRANCH  10   8
ATOM      8  N   UNL     1       0.331   0.060  23.308  0.00  0.00    -0.293 NA
ATOM     17  C   UNL     1      -0.770   0.688  22.571  0.00  0.00    +0.105 C 
BRANCH   8  16
ATOM     16  C   UNL     1       1.309  -0.498  22.370  0.00  0.00    +0.119 C 
BRANCH  16  18
ATOM     18  C   UNL     1       2.723  -0.295  22.847  0.00  0.00    -0.033 A 
ATOM     20  C   UNL     1       3.397  -1.333  23.491  0.00  0.00    +0.005 A 
ATOM     21  C   UNL     1       3.358   0.930  22.647  0.00  0.00    +0.005 A 
ATOM     22  C   UNL     1       4.707  -1.146  23.932  0.00  0.00    +0.000 A 
ATOM     23  C   UNL     1       4.668   1.117  23.088  0.00  0.00    +0.000 A 
ATOM     26  C   UNL     1       5.343   0.079  23.732  0.00  0.00    +0.000 A 
ENDBRANCH  16  18
ENDBRANCH   8  16
ENDBRANCH  10   8
BRANCH  11  14
ATOM     14  C   UNL     1      -0.829   0.893  25.903  0.00  0.00    +0.139 C 
BRANCH  14   9
ATOM      9  N   UNL     1       0.204   1.817  25.399  0.00  0.00    -0.187 NA
ATOM     32  H   UNL     1       1.026   1.374  24.970  0.00  0.00    +0.148 HD
BRANCH   9   1
ATOM      1  S   UNL     1      -0.227   3.379  24.876  0.00  0.00    +0.058 S 
ATOM      5  O   UNL     1       0.116   3.527  23.474  0.00  0.00    -0.153 OA
ATOM      6  O   UNL     1       0.240   4.348  25.848  0.00  0.00    -0.153 OA
BRANCH   1  19
ATOM     19  C   UNL     1      -1.990   3.328  25.003  0.00  0.00    +0.105 A 
ATOM     24  C   UNL     1      -2.626   3.884  26.112  0.00  0.00    +0.032 A 
ATOM     25  C   UNL     1      -2.744   2.731  23.993  0.00  0.00    +0.032 A 
ATOM     27  C   UNL     1      -4.016   3.843  26.212  0.00  0.00    +0.047 A 
ATOM     28  C   UNL     1      -4.135   2.690  24.092  0.00  0.00    +0.047 A 
ATOM     29  C   UNL     1      -4.771   3.247  25.202  0.00  0.00    +0.120 A 
BRANCH  29   7
ATOM      7  O   UNL     1      -6.128   3.206  25.301  0.00  0.00    -0.495 OA
ATOM     30  C   UNL     1      -6.760   1.953  25.049  0.00  0.00    +0.277 C 
ENDBRANCH  29   7
ENDBRANCH   1  19
ENDBRANCH   9   1
ENDBRANCH  14   9
ENDBRANCH  11  14
BRANCH  13  15
ATOM     15  C   UNL     1      -3.372  -2.529  25.318  0.00  0.00    +0.190 C 
BRANCH  15   4
ATOM      4  O   UNL     1      -3.948  -2.843  24.061  0.00  0.00    -0.392 OA
ATOM     33  H   UNL     1      -4.122  -3.800  24.058  0.00  0.00    +0.210 HD
ENDBRANCH  15   4
ENDBRANCH  13  15
TORSDOF 11
ENDMDL
MODEL 6
REMARK VINA RESULT:      -1.1     14.394     16.853
REMARK  Name = 38026726
REMARK  13 active torsions:
REMARK  status: ('A' for Active; 'I' for Inactive)
REMARK    1  A    between atoms: S_1  and  N_9
REMARK    2  A    between atoms: S_1  and  C_19
REMARK    3  A    between atoms: O_3  and  C_12
REMARK    4  A    between atoms: O_4  and  C_15
REMARK    5  A    between atoms: O_7  and  C_29
REMARK    6  A    between atoms: O_7  and  C_30
REMARK    7  A    between atoms: N_8  and  C_10
REMARK    8  A    between atoms: N_8  and  C_16
REMARK    9  A    between atoms: N_8  and  C_17
REMARK   10  A    between atoms: N_9  and  C_14
REMARK   11  A    between atoms: C_11  and  C_14
REMARK   12  A    between atoms: C_13  and  C_15
REMARK   13  A    between atoms: C_16  and  C_18
REMARK                            x       y       z     vdW  Elec       q    Type
REMARK                         _______ _______ _______ _____ _____    ______ ____
ROOT
ATOM      2  O   UNL     1       0.216   3.370  25.484  0.00  0.00    -0.366 OA
ATOM     10  C   UNL     1       0.674   1.319  24.364  0.00  0.00    +0.118 C 
ATOM     11  C   UNL     1       0.184   2.760  24.175  0.00  0.00    +0.154 C 
ATOM     12  C   UNL     1       0.330   1.028  25.816  0.00  0.00    +0.165 C 
ATOM     13  C   UNL     1       0.622   2.383  26.452  0.00  0.00    +0.174 C 
ENDROOT
BRANCH  12   3
ATOM      3  O   UNL     1      -1.045   0.697  25.969  0.00  0.00    -0.388 OA
ATOM     31  H   UNL     1      -1.284   0.854  26.898  0.00  0.00    +0.210 HD
ENDBRANCH  12   3
BRANCH  10   8
ATOM      8  N   UNL     1       0.189   0.344  23.405  0.00  0.00    -0.293 NA
ATOM     17  C   UNL     1      -0.064  -0.946  24.054  0.00  0.00    +0.105 C 
BRANCH   8  16
ATOM     16  C   UNL     1       1.143   0.173  22.305  0.00  0.00    +0.119 C 
BRANCH  16  18
ATOM     18  C   UNL     1       2.553   0.005  22.807  0.00  0.00    -0.033 A 
ATOM     20  C   UNL     1       3.462   1.057  22.698  0.00  0.00    +0.005 A 
ATOM     21  C   UNL     1       2.950  -1.202  23.382  0.00  0.00    +0.005 A 
ATOM     22  C   UNL     1       4.768   0.902  23.163  0.00  0.00    +0.000 A 
ATOM     23  C   UNL     1       4.255  -1.356  23.848  0.00  0.00    +0.000 A 
ATOM     26  C   UNL     1       5.165  -0.305  23.739  0.00  0.00    +0.000 A 
ENDBRANCH  16  18
ENDBRANCH   8  16
ENDBRANCH  10   8
BRANCH  11  14
ATOM     14  C   UNL     1      -1.230   2.934  23.631  0.00  0.00    +0.139 C 
BRANCH  14   9
ATOM      9  N   UNL     1      -2.028   3.723  24.586  0.00  0.00    -0.187 NA
ATOM     32  H   UNL     1      -1.644   4.643  24.835  0.00  0.00    +0.148 HD
BRANCH   9   1
ATOM      1  S   UNL     1      -3.716   3.513  24.669  0.00  0.00    +0.058 S 
ATOM      5  O   UNL     1      -4.336   4.161  23.528  0.00  0.00    -0.153 OA
ATOM      6  O   UNL     1      -4.165   3.817  26.014  0.00  0.00    -0.153 OA
BRANCH   1  19
ATOM     19  C   UNL     1      -3.873   1.766  24.453  0.00  0.00    +0.105 A 
ATOM     24  C   UNL     1      -3.336   1.151  23.322  0.00  0.00    +0.032 A 
ATOM     25  C   UNL     1      -4.534   1.001  25.414  0.00  0.00    +0.032 A 
ATOM     27  C   UNL     1      -3.460  -0.228  23.153  0.00  0.00    +0.047 A 
ATOM     28  C   UNL     1      -4.658  -0.378  25.245  0.00  0.00    +0.047 A 
ATOM     29  C   UNL     1      -4.121  -0.992  24.114  0.00  0.00    +0.120 A 
BRANCH  29   7
ATOM      7  O   UNL     1      -4.243  -2.338  23.947  0.00  0.00    -0.495 OA
ATOM     30  C   UNL     1      -3.284  -3.163  24.607  0.00  0.00    +0.277 C 
ENDBRANCH  29   7
ENDBRANCH   1  19
ENDBRANCH   9   1
ENDBRANCH  14   9
ENDBRANCH  11  14
BRANCH  13  15
ATOM     15  C   UNL     1      -0.083   2.652  27.769  0.00  0.00    +0.190 C 
BRANCH  15   4
ATOM      4  O   UNL     1       0.795   2.327  28.835  0.00  0.00    -0.392 OA
ATOM     33  H   UNL     1       1.010   1.382  28.748  0.00  0.00    +0.210 HD
ENDBRANCH  15   4
ENDBRANCH  13  15
TORSDOF 11
ENDMDL
MODEL 7
REMARK VINA RESULT:      -0.7     23.780     27.157
REMARK  Name = 38026726
REMARK  13 active torsions:
REMARK  status: ('A' for Active; 'I' for Inactive)
REMARK    1  A    between atoms: S_1  and  N_9
REMARK    2  A    between atoms: S_1  and  C_19
REMARK    3  A    between atoms: O_3  and  C_12
REMARK    4  A    between atoms: O_4  and  C_15
REMARK    5  A    between atoms: O_7  and  C_29
REMARK    6  A    between atoms: O_7  and  C_30
REMARK    7  A    between atoms: N_8  and  C_10
REMARK    8  A    between atoms: N_8  and  C_16
REMARK    9  A    between atoms: N_8  and  C_17
REMARK   10  A    between atoms: N_9  and  C_14
REMARK   11  A    between atoms: C_11  and  C_14
REMARK   12  A    between atoms: C_13  and  C_15
REMARK   13  A    between atoms: C_16  and  C_18
REMARK                            x       y       z     vdW  Elec       q    Type
REMARK                         _______ _______ _______ _____ _____    ______ ____
ROOT
ATOM      2  O   UNL     1      13.529  -6.972  32.855  0.00  0.00    -0.366 OA
ATOM     10  C   UNL     1      11.631  -8.410  32.873  0.00  0.00    +0.118 C 
ATOM     11  C   UNL     1      13.164  -8.369  32.830  0.00  0.00    +0.154 C 
ATOM     12  C   UNL     1      11.237  -7.070  32.271  0.00  0.00    +0.165 C 
ATOM     13  C   UNL     1      12.330  -6.172  32.839  0.00  0.00    +0.174 C 
ENDROOT
BRANCH  12   3
ATOM      3  O   UNL     1      11.307  -7.097  30.851  0.00  0.00    -0.388 OA
ATOM     31  H   UNL     1      10.783  -6.350  30.517  0.00  0.00    +0.210 HD
ENDBRANCH  12   3
BRANCH  10   8
ATOM      8  N   UNL     1      11.002  -9.570  32.270  0.00  0.00    -0.293 NA
ATOM     17  C   UNL     1      11.999 -10.427  31.621  0.00  0.00    +0.105 C 
BRANCH   8  16
ATOM     16  C   UNL     1       9.980  -9.165  31.299  0.00  0.00    +0.119 C 
BRANCH  16  18
ATOM     18  C   UNL     1       8.587  -9.352  31.841  0.00  0.00    -0.033 A 
ATOM     20  C   UNL     1       7.696  -8.279  31.857  0.00  0.00    +0.005 A 
ATOM     21  C   UNL     1       8.188 -10.598  32.324  0.00  0.00    +0.005 A 
ATOM     22  C   UNL     1       6.406  -8.452  32.357  0.00  0.00    +0.000 A 
ATOM     23  C   UNL     1       6.897 -10.770  32.824  0.00  0.00    +0.000 A 
ATOM     26  C   UNL     1       6.006  -9.698  32.841  0.00  0.00    +0.000 A 
ENDBRANCH  16  18
ENDBRANCH   8  16
ENDBRANCH  10   8
BRANCH  11  14
ATOM     14  C   UNL     1      13.829  -8.988  31.605  0.00  0.00    +0.139 C 
BRANCH  14   9
ATOM      9  N   UNL     1      15.218  -8.506  31.507  0.00  0.00    -0.187 NA
ATOM     32  H   UNL     1      15.856  -8.831  32.244  0.00  0.00    +0.148 HD
BRANCH   9   1
ATOM      1  S   UNL     1      15.883  -8.118  29.988  0.00  0.00    +0.058 S 
ATOM      5  O   UNL     1      14.840  -8.170  28.981  0.00  0.00    -0.153 OA
ATOM      6  O   UNL     1      17.112  -8.866  29.805  0.00  0.00    -0.153 OA
BRANCH   1  19
ATOM     19  C   UNL     1      16.337  -6.425  30.215  0.00  0.00    +0.105 A 
ATOM     24  C   UNL     1      16.408  -5.888  31.500  0.00  0.00    +0.032 A 
ATOM     25  C   UNL     1      16.625  -5.626  29.108  0.00  0.00    +0.032 A 
ATOM     27  C   UNL     1      16.766  -4.552  31.678  0.00  0.00    +0.047 A 
ATOM     28  C   UNL     1      16.983  -4.290  29.287  0.00  0.00    +0.047 A 
ATOM     29  C   UNL     1      17.053  -3.753  30.571  0.00  0.00    +0.120 A 
BRANCH  29   7
ATOM      7  O   UNL     1      17.402  -2.448  30.746  0.00  0.00    -0.495 OA
ATOM     30  C   UNL     1      16.723  -1.727  31.773  0.00  0.00    +0.277 C 
ENDBRANCH  29   7
ENDBRANCH   1  19
ENDBRANCH   9   1
ENDBRANCH  14   9
ENDBRANCH  11  14
BRANCH  13  15
ATOM     15  C   UNL     1      12.591  -4.892  32.067  0.00  0.00    +0.190 C 
BRANCH  15   4
ATOM      4  O   UNL     1      13.299  -5.210  30.879  0.00  0.00    -0.392 OA
ATOM     33  H   UNL     1      12.761  -4.893  30.133  0.00  0.00    +0.210 HD
ENDBRANCH  15   4
ENDBRANCH  13  15
TORSDOF 11
ENDMDL
