MODEL 1
REMARK VINA RESULT:       3.8      0.000      0.000
REMARK  Name = 23843914
REMARK  11 active torsions:
REMARK  status: ('A' for Active; 'I' for Inactive)
REMARK    1  A    between atoms: O_4  and  C_17
REMARK    2  A    between atoms: O_4  and  C_26
REMARK    3  A    between atoms: O_5  and  C_18
REMARK    4  A    between atoms: O_6  and  C_22
REMARK    5  A    between atoms: N_10  and  C_31
REMARK    6  A    between atoms: C_11  and  C_21
REMARK    7  A    between atoms: C_13  and  C_22
REMARK    8  A    between atoms: C_13  and  C_24
REMARK    9  A    between atoms: C_14  and  C_23
REMARK   10  A    between atoms: C_23  and  C_25
REMARK   11  A    between atoms: C_34  and  C_37
REMARK                            x       y       z     vdW  Elec       q    Type
REMARK                         _______ _______ _______ _____ _____    ______ ____
ROOT
ATOM     11  C   UNL     1      -3.688   1.182  24.201  0.00  0.00    -0.023 C 
ATOM     12  C   UNL     1      -3.419   0.519  25.612  0.00  0.00    +0.007 C 
ATOM     13  C   UNL     1      -2.264  -0.576  25.616  0.00  0.00    +0.031 C 
ATOM     14  C   UNL     1      -4.969   2.114  24.240  0.00  0.00    +0.032 C 
ATOM     15  C   UNL     1      -3.893   0.056  23.147  0.00  0.00    +0.011 C 
ATOM     16  C   UNL     1      -4.730  -0.075  26.213  0.00  0.00    +0.007 C 
ATOM     17  C   UNL     1      -2.504  -1.611  24.479  0.00  0.00    +0.186 C 
ATOM     18  C   UNL     1      -6.202   1.389  24.807  0.00  0.00    +0.119 C 
ATOM     19  C   UNL     1      -2.768  -0.976  23.114  0.00  0.00    +0.046 C 
ATOM     20  C   UNL     1      -5.928   0.861  26.202  0.00  0.00    +0.032 C 
ATOM     21  C   UNL     1      -2.509   2.071  23.724  0.00  0.00    +0.012 C 
ATOM     24  C   UNL     1      -2.228  -1.332  26.976  0.00  0.00    +0.017 C 
ENDROOT
BRANCH  18   5
ATOM      5  O   UNL     1      -7.333   2.256  24.866  0.00  0.00    -0.391 OA
ATOM     38  H   UNL     1      -7.045   3.136  24.573  0.00  0.00    +0.210 HD
ENDBRANCH  18   5
BRANCH  17   4
ATOM      4  O   UNL     1      -1.391  -2.493  24.331  0.00  0.00    -0.446 OA
BRANCH   4  26
ATOM      8  O   UNL     1       0.481  -2.182  25.608  0.00  0.00    -0.226 OA
ATOM     10  N   UNL     1       0.212  -1.154  23.522  0.00  0.00    -0.251 N 
ATOM     26  C   UNL     1      -0.155  -1.956  24.585  0.00  0.00    +0.405 C 
ATOM     40  H   UNL     1      -0.455  -1.090  22.757  0.00  0.00    +0.158 HD
BRANCH  10  31
ATOM     31  C   UNL     1       1.403  -0.409  23.363  0.00  0.00    +0.037 A 
ATOM     32  C   UNL     1       2.638  -1.009  23.607  0.00  0.00    +0.035 A 
ATOM     33  C   UNL     1       1.341   0.926  22.963  0.00  0.00    +0.023 A 
ATOM     34  C   UNL     1       3.813  -0.272  23.451  0.00  0.00    +0.057 A 
ATOM     35  C   UNL     1       2.516   1.662  22.806  0.00  0.00    +0.002 A 
ATOM     36  C   UNL     1       3.752   1.063  23.051  0.00  0.00    +0.012 A 
BRANCH  34  37
ATOM      1  F   UNL     1       6.088  -0.593  22.786  0.00  0.00    -0.166 F 
ATOM      2  F   UNL     1       5.680  -0.574  24.916  0.00  0.00    -0.166 F 
ATOM      3  F   UNL     1       5.067  -2.277  23.709  0.00  0.00    -0.166 F 
ATOM     37  C   UNL     1       5.134  -0.913  23.711  0.00  0.00    +0.417 C 
ENDBRANCH  34  37
ENDBRANCH  10  31
ENDBRANCH   4  26
ENDBRANCH  17   4
BRANCH  13  22
ATOM     22  C   UNL     1      -0.860   0.066  25.498  0.00  0.00    +0.166 C 
BRANCH  22   6
ATOM      6  O   UNL     1      -0.604   0.757  26.698  0.00  0.00    -0.394 OA
ATOM     39  H   UNL     1      -1.290   0.496  27.335  0.00  0.00    +0.209 HD
ENDBRANCH  22   6
ENDBRANCH  13  22
BRANCH  14  23
ATOM     23  C   UNL     1      -4.730   3.447  24.989  0.00  0.00    +0.102 C 
BRANCH  23  25
ATOM      7  O   UNL     1      -4.209   4.870  23.152  0.00  0.00    -0.276 OA
ATOM      9  N   UNL     1      -2.516   4.433  24.662  0.00  0.00    -0.301 N 
ATOM     25  C   UNL     1      -3.806   4.318  24.177  0.00  0.00    +0.216 C 
ATOM     27  C   UNL     1      -1.501   5.232  23.989  0.00  0.00    +0.108 C 
ATOM     28  C   UNL     1      -1.978   3.811  25.867  0.00  0.00    +0.108 C 
ATOM     29  C   UNL     1      -0.373   5.346  25.002  0.00  0.00    +0.020 C 
ATOM     30  C   UNL     1      -0.475   4.035  25.771  0.00  0.00    +0.020 C 
ENDBRANCH  23  25
ENDBRANCH  14  23
TORSDOF 9
ENDMDL
MODEL 2
REMARK VINA RESULT:       5.4      2.893      6.634
REMARK  Name = 23843914
REMARK  11 active torsions:
REMARK  status: ('A' for Active; 'I' for Inactive)
REMARK    1  A    between atoms: O_4  and  C_17
REMARK    2  A    between atoms: O_4  and  C_26
REMARK    3  A    between atoms: O_5  and  C_18
REMARK    4  A    between atoms: O_6  and  C_22
REMARK    5  A    between atoms: N_10  and  C_31
REMARK    6  A    between atoms: C_11  and  C_21
REMARK    7  A    between atoms: C_13  and  C_22
REMARK    8  A    between atoms: C_13  and  C_24
REMARK    9  A    between atoms: C_14  and  C_23
REMARK   10  A    between atoms: C_23  and  C_25
REMARK   11  A    between atoms: C_34  and  C_37
REMARK                            x       y       z     vdW  Elec       q    Type
REMARK                         _______ _______ _______ _____ _____    ______ ____
ROOT
ATOM     11  C   UNL     1      -1.150  -0.438  24.604  0.00  0.00    -0.023 C 
ATOM     12  C   UNL     1      -2.166  -1.493  24.007  0.00  0.00    +0.007 C 
ATOM     13  C   UNL     1      -3.693  -1.050  24.075  0.00  0.00    +0.031 C 
ATOM     14  C   UNL     1       0.318  -1.030  24.672  0.00  0.00    +0.032 C 
ATOM     15  C   UNL     1      -1.620  -0.039  26.032  0.00  0.00    +0.011 C 
ATOM     16  C   UNL     1      -1.978  -2.892  24.672  0.00  0.00    +0.007 C 
ATOM     17  C   UNL     1      -4.052  -0.589  25.517  0.00  0.00    +0.186 C 
ATOM     18  C   UNL     1       0.367  -2.387  25.397  0.00  0.00    +0.119 C 
ATOM     19  C   UNL     1      -3.072   0.429  26.100  0.00  0.00    +0.046 C 
ATOM     20  C   UNL     1      -0.545  -3.395  24.726  0.00  0.00    +0.032 C 
ATOM     21  C   UNL     1      -1.064   0.857  23.753  0.00  0.00    +0.012 C 
ATOM     24  C   UNL     1      -4.627  -2.232  23.685  0.00  0.00    +0.017 C 
ENDROOT
BRANCH  18   5
ATOM      5  O   UNL     1       1.691  -2.917  25.417  0.00  0.00    -0.391 OA
ATOM     38  H   UNL     1       2.205  -2.453  24.735  0.00  0.00    +0.210 HD
ENDBRANCH  18   5
BRANCH  17   4
ATOM      4  O   UNL     1      -5.354  -0.005  25.571  0.00  0.00    -0.446 OA
BRANCH   4  26
ATOM      8  O   UNL     1      -6.476   1.973  25.316  0.00  0.00    -0.226 OA
ATOM     10  N   UNL     1      -4.147   1.828  25.124  0.00  0.00    -0.251 N 
ATOM     26  C   UNL     1      -5.424   1.344  25.332  0.00  0.00    +0.405 C 
ATOM     40  H   UNL     1      -3.394   1.146  25.178  0.00  0.00    +0.158 HD
BRANCH  10  31
ATOM     31  C   UNL     1      -3.754   3.156  24.846  0.00  0.00    +0.037 A 
ATOM     32  C   UNL     1      -2.404   3.507  24.883  0.00  0.00    +0.035 A 
ATOM     33  C   UNL     1      -4.716   4.117  24.535  0.00  0.00    +0.023 A 
ATOM     34  C   UNL     1      -2.017   4.819  24.609  0.00  0.00    +0.057 A 
ATOM     35  C   UNL     1      -4.329   5.429  24.260  0.00  0.00    +0.002 A 
ATOM     36  C   UNL     1      -2.979   5.780  24.298  0.00  0.00    +0.012 A 
BRANCH  34  37
ATOM      1  F   UNL     1       0.047   5.101  23.434  0.00  0.00    -0.166 F 
ATOM      2  F   UNL     1      -0.352   6.476  25.064  0.00  0.00    -0.166 F 
ATOM      3  F   UNL     1       0.152   4.404  25.491  0.00  0.00    -0.166 F 
ATOM     37  C   UNL     1      -0.574   5.194  24.647  0.00  0.00    +0.417 C 
ENDBRANCH  34  37
ENDBRANCH  10  31
ENDBRANCH   4  26
ENDBRANCH  17   4
BRANCH  13  22
ATOM     22  C   UNL     1      -4.020   0.054  23.039  0.00  0.00    +0.166 C 
BRANCH  22   6
ATOM      6  O   UNL     1      -2.799   0.586  22.583  0.00  0.00    -0.394 OA
ATOM     39  H   UNL     1      -2.904   0.782  21.637  0.00  0.00    +0.209 HD
ENDBRANCH  22   6
ENDBRANCH  13  22
BRANCH  14  23
ATOM     23  C   UNL     1       1.001  -1.129  23.287  0.00  0.00    +0.102 C 
BRANCH  23  25
ATOM      7  O   UNL     1       1.454   1.144  22.741  0.00  0.00    -0.276 OA
ATOM      9  N   UNL     1       3.254  -0.178  23.328  0.00  0.00    -0.301 N 
ATOM     25  C   UNL     1       1.912   0.056  23.093  0.00  0.00    +0.216 C 
ATOM     27  C   UNL     1       4.263   0.860  23.177  0.00  0.00    +0.108 C 
ATOM     28  C   UNL     1       3.860  -1.439  23.748  0.00  0.00    +0.108 C 
ATOM     29  C   UNL     1       5.507   0.281  23.833  0.00  0.00    +0.020 C 
ATOM     30  C   UNL     1       5.357  -1.214  23.584  0.00  0.00    +0.020 C 
ENDBRANCH  23  25
ENDBRANCH  14  23
TORSDOF 9
ENDMDL
MODEL 3
REMARK VINA RESULT:       5.7      1.905      4.029
REMARK  Name = 23843914
REMARK  11 active torsions:
REMARK  status: ('A' for Active; 'I' for Inactive)
REMARK    1  A    between atoms: O_4  and  C_17
REMARK    2  A    between atoms: O_4  and  C_26
REMARK    3  A    between atoms: O_5  and  C_18
REMARK    4  A    between atoms: O_6  and  C_22
REMARK    5  A    between atoms: N_10  and  C_31
REMARK    6  A    between atoms: C_11  and  C_21
REMARK    7  A    between atoms: C_13  and  C_22
REMARK    8  A    between atoms: C_13  and  C_24
REMARK    9  A    between atoms: C_14  and  C_23
REMARK   10  A    between atoms: C_23  and  C_25
REMARK   11  A    between atoms: C_34  and  C_37
REMARK                            x       y       z     vdW  Elec       q    Type
REMARK                         _______ _______ _______ _____ _____    ______ ____
ROOT
ATOM     11  C   UNL     1      -3.145   3.088  25.739  0.00  0.00    -0.023 C 
ATOM     12  C   UNL     1      -3.210   2.526  24.262  0.00  0.00    +0.007 C 
ATOM     13  C   UNL     1      -1.792   2.325  23.569  0.00  0.00    +0.031 C 
ATOM     14  C   UNL     1      -4.591   3.437  26.285  0.00  0.00    +0.032 C 
ATOM     15  C   UNL     1      -2.259   4.367  25.752  0.00  0.00    +0.011 C 
ATOM     16  C   UNL     1      -4.131   3.409  23.364  0.00  0.00    +0.007 C 
ATOM     17  C   UNL     1      -0.943   3.623  23.703  0.00  0.00    +0.186 C 
ATOM     18  C   UNL     1      -5.371   4.356  25.326  0.00  0.00    +0.119 C 
ATOM     19  C   UNL     1      -0.879   4.173  25.128  0.00  0.00    +0.046 C 
ATOM     20  C   UNL     1      -5.495   3.727  23.953  0.00  0.00    +0.032 C 
ATOM     21  C   UNL     1      -2.529   2.073  26.739  0.00  0.00    +0.012 C 
ATOM     24  C   UNL     1      -1.959   1.995  22.058  0.00  0.00    +0.017 C 
ENDROOT
BRANCH  18   5
ATOM      5  O   UNL     1      -6.681   4.628  25.820  0.00  0.00    -0.391 OA
ATOM     38  H   UNL     1      -6.600   4.862  26.760  0.00  0.00    +0.210 HD
ENDBRANCH  18   5
BRANCH  17   4
ATOM      4  O   UNL     1       0.401   3.417  23.266  0.00  0.00    -0.446 OA
BRANCH   4  26
ATOM      8  O   UNL     1       1.080   2.280  25.131  0.00  0.00    -0.226 OA
ATOM     10  N   UNL     1       1.813   1.701  22.984  0.00  0.00    -0.251 N 
ATOM     26  C   UNL     1       1.106   2.436  23.915  0.00  0.00    +0.405 C 
ATOM     40  H   UNL     1       1.706   1.986  22.013  0.00  0.00    +0.158 HD
BRANCH  10  31
ATOM     31  C   UNL     1       2.668   0.600  23.211  0.00  0.00    +0.037 A 
ATOM     32  C   UNL     1       4.047   0.794  23.300  0.00  0.00    +0.035 A 
ATOM     33  C   UNL     1       2.134  -0.681  23.346  0.00  0.00    +0.023 A 
ATOM     34  C   UNL     1       4.891  -0.295  23.523  0.00  0.00    +0.057 A 
ATOM     35  C   UNL     1       2.978  -1.770  23.570  0.00  0.00    +0.002 A 
ATOM     36  C   UNL     1       4.356  -1.576  23.658  0.00  0.00    +0.012 A 
BRANCH  34  37
ATOM      1  F   UNL     1       7.041  -0.441  22.486  0.00  0.00    -0.166 F 
ATOM      2  F   UNL     1       6.721   1.209  23.856  0.00  0.00    -0.166 F 
ATOM      3  F   UNL     1       6.933  -0.814  24.626  0.00  0.00    -0.166 F 
ATOM     37  C   UNL     1       6.365  -0.088  23.619  0.00  0.00    +0.417 C 
ENDBRANCH  34  37
ENDBRANCH  10  31
ENDBRANCH   4  26
ENDBRANCH  17   4
BRANCH  13  22
ATOM     22  C   UNL     1      -1.035   1.103  24.147  0.00  0.00    +0.166 C 
BRANCH  22   6
ATOM      6  O   UNL     1      -1.022   0.102  23.156  0.00  0.00    -0.394 OA
ATOM     39  H   UNL     1      -1.752  -0.509  23.352  0.00  0.00    +0.209 HD
ENDBRANCH  22   6
ENDBRANCH  13  22
BRANCH  14  23
ATOM     23  C   UNL     1      -5.429   2.185  26.638  0.00  0.00    +0.102 C 
BRANCH  23  25
ATOM      7  O   UNL     1      -6.585   1.754  24.600  0.00  0.00    -0.276 OA
ATOM      9  N   UNL     1      -4.913   0.277  25.197  0.00  0.00    -0.301 N 
ATOM     25  C   UNL     1      -5.703   1.397  25.382  0.00  0.00    +0.216 C 
ATOM     27  C   UNL     1      -5.058  -0.594  24.039  0.00  0.00    +0.108 C 
ATOM     28  C   UNL     1      -3.852  -0.199  26.080  0.00  0.00    +0.108 C 
ATOM     29  C   UNL     1      -3.818  -1.474  24.066  0.00  0.00    +0.020 C 
ATOM     30  C   UNL     1      -3.517  -1.589  25.555  0.00  0.00    +0.020 C 
ENDBRANCH  23  25
ENDBRANCH  14  23
TORSDOF 9
ENDMDL
MODEL 4
REMARK VINA RESULT:       6.8      2.623      4.246
REMARK  Name = 23843914
REMARK  11 active torsions:
REMARK  status: ('A' for Active; 'I' for Inactive)
REMARK    1  A    between atoms: O_4  and  C_17
REMARK    2  A    between atoms: O_4  and  C_26
REMARK    3  A    between atoms: O_5  and  C_18
REMARK    4  A    between atoms: O_6  and  C_22
REMARK    5  A    between atoms: N_10  and  C_31
REMARK    6  A    between atoms: C_11  and  C_21
REMARK    7  A    between atoms: C_13  and  C_22
REMARK    8  A    between atoms: C_13  and  C_24
REMARK    9  A    between atoms: C_14  and  C_23
REMARK   10  A    between atoms: C_23  and  C_25
REMARK   11  A    between atoms: C_34  and  C_37
REMARK                            x       y       z     vdW  Elec       q    Type
REMARK                         _______ _______ _______ _____ _____    ______ ____
ROOT
ATOM     11  C   UNL     1      -1.757   0.110  23.439  0.00  0.00    -0.023 C 
ATOM     12  C   UNL     1      -1.372   0.923  24.740  0.00  0.00    +0.007 C 
ATOM     13  C   UNL     1      -0.035   1.777  24.612  0.00  0.00    +0.031 C 
ATOM     14  C   UNL     1      -2.984  -0.856  23.708  0.00  0.00    +0.032 C 
ATOM     15  C   UNL     1      -0.525  -0.725  22.984  0.00  0.00    +0.011 C 
ATOM     16  C   UNL     1      -1.299  -0.012  25.987  0.00  0.00    +0.007 C 
ATOM     17  C   UNL     1       1.120   0.885  24.072  0.00  0.00    +0.186 C 
ATOM     18  C   UNL     1      -2.760  -1.758  24.935  0.00  0.00    +0.119 C 
ATOM     19  C   UNL     1       0.753   0.094  22.817  0.00  0.00    +0.046 C 
ATOM     20  C   UNL     1      -2.496  -0.929  26.177  0.00  0.00    +0.032 C 
ATOM     21  C   UNL     1      -2.170   1.030  22.259  0.00  0.00    +0.012 C 
ATOM     24  C   UNL     1       0.385   2.351  25.996  0.00  0.00    +0.017 C 
ENDROOT
BRANCH  18   5
ATOM      5  O   UNL     1      -3.890  -2.593  25.179  0.00  0.00    -0.391 OA
ATOM     38  H   UNL     1      -4.191  -2.940  24.323  0.00  0.00    +0.210 HD
ENDBRANCH  18   5
BRANCH  17   4
ATOM      4  O   UNL     1       2.279   1.660  23.763  0.00  0.00    -0.446 OA
BRANCH   4  26
ATOM      8  O   UNL     1       3.119   0.805  21.815  0.00  0.00    -0.226 OA
ATOM     10  N   UNL     1       4.318   0.736  23.825  0.00  0.00    -0.251 N 
ATOM     26  C   UNL     1       3.242   1.037  23.012  0.00  0.00    +0.405 C 
ATOM     40  H   UNL     1       4.234   1.010  24.800  0.00  0.00    +0.158 HD
BRANCH  10  31
ATOM     31  C   UNL     1       5.526   0.095  23.468  0.00  0.00    +0.037 A 
ATOM     32  C   UNL     1       6.748   0.718  23.721  0.00  0.00    +0.035 A 
ATOM     33  C   UNL     1       5.496  -1.161  22.863  0.00  0.00    +0.023 A 
ATOM     34  C   UNL     1       7.940   0.085  23.367  0.00  0.00    +0.057 A 
ATOM     35  C   UNL     1       6.688  -1.796  22.511  0.00  0.00    +0.002 A 
ATOM     36  C   UNL     1       7.910  -1.172  22.763  0.00  0.00    +0.012 A 
BRANCH  34  37
ATOM      1  F   UNL     1       9.129   2.069  23.975  0.00  0.00    -0.166 F 
ATOM      2  F   UNL     1       9.949   0.183  24.662  0.00  0.00    -0.166 F 
ATOM      3  F   UNL     1      10.084   0.723  22.559  0.00  0.00    -0.166 F 
ATOM     37  C   UNL     1       9.247   0.751  23.638  0.00  0.00    +0.417 C 
ENDBRANCH  34  37
ENDBRANCH  10  31
ENDBRANCH   4  26
ENDBRANCH  17   4
BRANCH  13  22
ATOM     22  C   UNL     1      -0.234   3.030  23.723  0.00  0.00    +0.166 C 
BRANCH  22   6
ATOM      6  O   UNL     1      -0.537   4.112  24.571  0.00  0.00    -0.394 OA
ATOM     39  H   UNL     1      -0.688   3.750  25.460  0.00  0.00    +0.209 HD
ENDBRANCH  22   6
ENDBRANCH  13  22
BRANCH  14  23
ATOM     23  C   UNL     1      -4.334  -0.108  23.823  0.00  0.00    +0.102 C 
BRANCH  23  25
ATOM      7  O   UNL     1      -4.566   0.053  26.188  0.00  0.00    -0.276 OA
ATOM      9  N   UNL     1      -4.201   2.016  25.027  0.00  0.00    -0.301 N 
ATOM     25  C   UNL     1      -4.377   0.649  25.126  0.00  0.00    +0.216 C 
ATOM     27  C   UNL     1      -4.223   2.890  26.192  0.00  0.00    +0.108 C 
ATOM     28  C   UNL     1      -3.972   2.781  23.805  0.00  0.00    +0.108 C 
ATOM     29  C   UNL     1      -3.676   4.215  25.685  0.00  0.00    +0.020 C 
ATOM     30  C   UNL     1      -4.129   4.234  24.231  0.00  0.00    +0.020 C 
ENDBRANCH  23  25
ENDBRANCH  14  23
TORSDOF 9
ENDMDL
