MODEL 1
REMARK VINA RESULT:      -4.9      0.000      0.000
REMARK  Name = 56775500
REMARK  9 active torsions:
REMARK  status: ('A' for Active; 'I' for Inactive)
REMARK    1  A    between atoms: O_4  and  C_21
REMARK    2  A    between atoms: N_5  and  C_8
REMARK    3  A    between atoms: N_5  and  C_9
REMARK    4  A    between atoms: C_8  and  C_12
REMARK    5  A    between atoms: C_12  and  C_17
REMARK    6  A    between atoms: C_18  and  C_22
REMARK    7  A    between atoms: C_20  and  C_21
REMARK    8  A    between atoms: C_21  and  C_23
REMARK    9  A    between atoms: C_21  and  C_24
REMARK                            x       y       z     vdW  Elec       q    Type
REMARK                         _______ _______ _______ _____ _____    ______ ____
ROOT
ATOM      1  O   UNL     1      -2.855  -3.263  24.968  0.00  0.00    -0.376 OA
ATOM      8  C   UNL     1      -2.691  -1.163  24.622  0.00  0.00    +0.072 C 
ATOM     10  C   UNL     1      -1.895  -2.421  24.291  0.00  0.00    +0.184 C 
ATOM     11  C   UNL     1      -3.607  -2.105  25.396  0.00  0.00    +0.184 C 
ENDROOT
BRANCH   8   5
ATOM      5  N   UNL     1      -3.388  -0.715  23.413  0.00  0.00    -0.304 NA
ATOM     25  H   UNL     1      -4.152  -1.315  23.105  0.00  0.00    +0.123 HD
BRANCH   5   9
ATOM      3  O   UNL     1      -2.112   5.083  25.018  0.00  0.00    -0.276 OA
ATOM      6  N   UNL     1      -3.555   3.275  24.797  0.00  0.00    -0.302 N 
ATOM      9  C   UNL     1      -3.865   0.652  23.611  0.00  0.00    +0.057 C 
ATOM     13  C   UNL     1      -4.151   0.901  25.098  0.00  0.00    +0.037 C 
ATOM     14  C   UNL     1      -2.825   1.653  23.091  0.00  0.00    +0.037 C 
ATOM     15  C   UNL     1      -4.559   2.353  25.343  0.00  0.00    +0.109 C 
ATOM     16  C   UNL     1      -3.260   3.089  23.375  0.00  0.00    +0.109 C 
ATOM     18  C   UNL     1      -2.926   4.296  25.509  0.00  0.00    +0.212 C 
ATOM     22  C   UNL     1      -3.282   4.420  26.969  0.00  0.00    +0.109 C 
ENDBRANCH   5   9
ENDBRANCH   8   5
BRANCH   8  12
ATOM     12  C   UNL     1      -2.011  -0.046  25.352  0.00  0.00    +0.085 C 
BRANCH  12  17
ATOM      2  O   UNL     1       1.022   1.491  24.130  0.00  0.00    -0.356 OA
ATOM      7  N   UNL     1      -0.179   1.523  24.829  0.00  0.00    -0.083 NA
ATOM     17  C   UNL     1      -0.685   0.293  24.704  0.00  0.00    +0.086 A 
ATOM     19  C   UNL     1       0.144  -0.549  23.943  0.00  0.00    +0.074 A 
ATOM     20  C   UNL     1       1.202   0.252  23.607  0.00  0.00    +0.168 A 
BRANCH  20  21
ATOM     21  C   UNL     1       2.431   0.042  22.831  0.00  0.00    +0.120 C 
ATOM     23  C   UNL     1       3.363   1.287  22.819  0.00  0.00    +0.049 C 
ATOM     24  C   UNL     1       2.155  -0.378  21.357  0.00  0.00    +0.049 C 
BRANCH  21   4
ATOM      4  O   UNL     1       3.254  -1.030  23.370  0.00  0.00    -0.381 OA
ATOM     26  H   UNL     1       2.764  -1.453  24.096  0.00  0.00    +0.211 HD
ENDBRANCH  21   4
ENDBRANCH  20  21
ENDBRANCH  12  17
ENDBRANCH   8  12
TORSDOF 6
ENDMDL
MODEL 2
REMARK VINA RESULT:      -4.6      2.354      5.077
REMARK  Name = 56775500
REMARK  9 active torsions:
REMARK  status: ('A' for Active; 'I' for Inactive)
REMARK    1  A    between atoms: O_4  and  C_21
REMARK    2  A    between atoms: N_5  and  C_8
REMARK    3  A    between atoms: N_5  and  C_9
REMARK    4  A    between atoms: C_8  and  C_12
REMARK    5  A    between atoms: C_12  and  C_17
REMARK    6  A    between atoms: C_18  and  C_22
REMARK    7  A    between atoms: C_20  and  C_21
REMARK    8  A    between atoms: C_21  and  C_23
REMARK    9  A    between atoms: C_21  and  C_24
REMARK                            x       y       z     vdW  Elec       q    Type
REMARK                         _______ _______ _______ _____ _____    ______ ____
ROOT
ATOM      1  O   UNL     1      -3.578  -2.867  25.847  0.00  0.00    -0.376 OA
ATOM      8  C   UNL     1      -2.705  -1.743  24.256  0.00  0.00    +0.072 C 
ATOM     10  C   UNL     1      -2.967  -1.561  25.748  0.00  0.00    +0.184 C 
ATOM     11  C   UNL     1      -3.447  -3.065  24.421  0.00  0.00    +0.184 C 
ENDROOT
BRANCH   8   5
ATOM      5  N   UNL     1      -1.281  -2.023  24.058  0.00  0.00    -0.304 NA
ATOM     25  H   UNL     1      -1.013  -2.252  23.102  0.00  0.00    +0.123 HD
BRANCH   5   9
ATOM      3  O   UNL     1      -1.185   3.762  26.142  0.00  0.00    -0.276 OA
ATOM      6  N   UNL     1      -0.222   1.943  25.064  0.00  0.00    -0.302 N 
ATOM      9  C   UNL     1      -0.495  -0.892  24.548  0.00  0.00    +0.057 C 
ATOM     13  C   UNL     1      -0.251   0.111  23.413  0.00  0.00    +0.037 C 
ATOM     14  C   UNL     1      -1.222  -0.213  25.716  0.00  0.00    +0.037 C 
ATOM     15  C   UNL     1       0.487   1.348  23.924  0.00  0.00    +0.109 C 
ATOM     16  C   UNL     1      -0.464   1.028  26.182  0.00  0.00    +0.109 C 
ATOM     18  C   UNL     1      -0.623   3.276  25.158  0.00  0.00    +0.212 C 
ATOM     22  C   UNL     1      -0.339   4.152  23.963  0.00  0.00    +0.109 C 
ENDBRANCH   5   9
ENDBRANCH   8   5
BRANCH   8  12
ATOM     12  C   UNL     1      -3.240  -0.725  23.298  0.00  0.00    +0.085 C 
BRANCH  12  17
ATOM      2  O   UNL     1      -5.195   1.498  25.371  0.00  0.00    -0.356 OA
ATOM      7  N   UNL     1      -4.884   0.241  24.866  0.00  0.00    -0.083 NA
ATOM     17  C   UNL     1      -3.854   0.444  24.039  0.00  0.00    +0.086 A 
ATOM     19  C   UNL     1      -3.476   1.797  23.983  0.00  0.00    +0.074 A 
ATOM     20  C   UNL     1      -4.349   2.416  24.837  0.00  0.00    +0.168 A 
BRANCH  20  21
ATOM     21  C   UNL     1      -4.538   3.807  25.266  0.00  0.00    +0.120 C 
ATOM     23  C   UNL     1      -6.026   4.156  25.559  0.00  0.00    +0.049 C 
ATOM     24  C   UNL     1      -3.985   4.839  24.241  0.00  0.00    +0.049 C 
BRANCH  21   4
ATOM      4  O   UNL     1      -3.838   4.107  26.506  0.00  0.00    -0.381 OA
ATOM     26  H   UNL     1      -3.087   3.495  26.587  0.00  0.00    +0.211 HD
ENDBRANCH  21   4
ENDBRANCH  20  21
ENDBRANCH  12  17
ENDBRANCH   8  12
TORSDOF 6
ENDMDL
MODEL 3
REMARK VINA RESULT:      -4.6      2.215      6.553
REMARK  Name = 56775500
REMARK  9 active torsions:
REMARK  status: ('A' for Active; 'I' for Inactive)
REMARK    1  A    between atoms: O_4  and  C_21
REMARK    2  A    between atoms: N_5  and  C_8
REMARK    3  A    between atoms: N_5  and  C_9
REMARK    4  A    between atoms: C_8  and  C_12
REMARK    5  A    between atoms: C_12  and  C_17
REMARK    6  A    between atoms: C_18  and  C_22
REMARK    7  A    between atoms: C_20  and  C_21
REMARK    8  A    between atoms: C_21  and  C_23
REMARK    9  A    between atoms: C_21  and  C_24
REMARK                            x       y       z     vdW  Elec       q    Type
REMARK                         _______ _______ _______ _____ _____    ______ ____
ROOT
ATOM      1  O   UNL     1      -0.963   4.825  25.240  0.00  0.00    -0.376 OA
ATOM      8  C   UNL     1      -0.693   3.059  24.073  0.00  0.00    +0.072 C 
ATOM     10  C   UNL     1      -0.497   4.561  23.898  0.00  0.00    +0.184 C 
ATOM     11  C   UNL     1      -1.262   3.425  25.440  0.00  0.00    +0.184 C 
ENDROOT
BRANCH   8   5
ATOM      5  N   UNL     1       0.617   2.431  24.260  0.00  0.00    -0.304 NA
ATOM     25  H   UNL     1       1.259   2.937  24.870  0.00  0.00    +0.123 HD
BRANCH   5   9
ATOM      3  O   UNL     1      -2.395  -2.909  23.792  0.00  0.00    -0.276 OA
ATOM      6  N   UNL     1      -1.200  -1.315  24.986  0.00  0.00    -0.302 N 
ATOM      9  C   UNL     1       0.432   1.063  24.741  0.00  0.00    +0.057 C 
ATOM     13  C   UNL     1      -0.758   1.002  25.708  0.00  0.00    +0.037 C 
ATOM     14  C   UNL     1       0.209   0.114  23.557  0.00  0.00    +0.037 C 
ATOM     15  C   UNL     1      -1.032  -0.435  26.150  0.00  0.00    +0.109 C 
ATOM     16  C   UNL     1      -0.082  -1.304  24.041  0.00  0.00    +0.109 C 
ATOM     18  C   UNL     1      -2.293  -2.151  24.759  0.00  0.00    +0.212 C 
ATOM     22  C   UNL     1      -3.404  -2.102  25.778  0.00  0.00    +0.109 C 
ENDBRANCH   5   9
ENDBRANCH   8   5
BRANCH   8  12
ATOM     12  C   UNL     1      -1.560   2.323  23.099  0.00  0.00    +0.085 C 
BRANCH  12  17
ATOM      2  O   UNL     1      -4.636   0.846  24.288  0.00  0.00    -0.356 OA
ATOM      7  N   UNL     1      -3.403   0.776  23.650  0.00  0.00    -0.083 NA
ATOM     17  C   UNL     1      -2.914   2.018  23.705  0.00  0.00    +0.086 A 
ATOM     19  C   UNL     1      -3.786   2.905  24.359  0.00  0.00    +0.074 A 
ATOM     20  C   UNL     1      -4.852   2.120  24.706  0.00  0.00    +0.168 A 
BRANCH  20  21
ATOM     21  C   UNL     1      -6.118   2.373  25.405  0.00  0.00    +0.120 C 
ATOM     23  C   UNL     1      -6.357   3.882  25.702  0.00  0.00    +0.049 C 
ATOM     24  C   UNL     1      -6.242   1.585  26.741  0.00  0.00    +0.049 C 
BRANCH  21   4
ATOM      4  O   UNL     1      -7.276   1.962  24.625  0.00  0.00    -0.381 OA
ATOM     26  H   UNL     1      -7.980   2.620  24.758  0.00  0.00    +0.211 HD
ENDBRANCH  21   4
ENDBRANCH  20  21
ENDBRANCH  12  17
ENDBRANCH   8  12
TORSDOF 6
ENDMDL
MODEL 4
REMARK VINA RESULT:      -4.5      1.561      5.736
REMARK  Name = 56775500
REMARK  9 active torsions:
REMARK  status: ('A' for Active; 'I' for Inactive)
REMARK    1  A    between atoms: O_4  and  C_21
REMARK    2  A    between atoms: N_5  and  C_8
REMARK    3  A    between atoms: N_5  and  C_9
REMARK    4  A    between atoms: C_8  and  C_12
REMARK    5  A    between atoms: C_12  and  C_17
REMARK    6  A    between atoms: C_18  and  C_22
REMARK    7  A    between atoms: C_20  and  C_21
REMARK    8  A    between atoms: C_21  and  C_23
REMARK    9  A    between atoms: C_21  and  C_24
REMARK                            x       y       z     vdW  Elec       q    Type
REMARK                         _______ _______ _______ _____ _____    ______ ____
ROOT
ATOM      1  O   UNL     1      -2.636   4.989  25.990  0.00  0.00    -0.376 OA
ATOM      8  C   UNL     1      -3.451   3.231  25.097  0.00  0.00    +0.072 C 
ATOM     10  C   UNL     1      -3.689   4.736  25.033  0.00  0.00    +0.184 C 
ATOM     11  C   UNL     1      -2.422   3.571  26.169  0.00  0.00    +0.184 C 
ENDROOT
BRANCH   8   5
ATOM      5  N   UNL     1      -2.746   2.813  23.882  0.00  0.00    -0.304 NA
ATOM     25  H   UNL     1      -2.471   3.569  23.257  0.00  0.00    +0.123 HD
BRANCH   5   9
ATOM      3  O   UNL     1       3.230   1.606  23.088  0.00  0.00    -0.276 OA
ATOM      6  N   UNL     1       1.062   0.994  23.654  0.00  0.00    -0.302 N 
ATOM      9  C   UNL     1      -1.581   2.012  24.253  0.00  0.00    +0.057 C 
ATOM     13  C   UNL     1      -1.365   0.891  23.227  0.00  0.00    +0.037 C 
ATOM     14  C   UNL     1      -0.337   2.904  24.342  0.00  0.00    +0.037 C 
ATOM     15  C   UNL     1      -0.096   0.099  23.540  0.00  0.00    +0.109 C 
ATOM     16  C   UNL     1       0.911   2.072  24.634  0.00  0.00    +0.109 C 
ATOM     18  C   UNL     1       2.257   0.861  22.947  0.00  0.00    +0.212 C 
ATOM     22  C   UNL     1       2.332  -0.272  21.956  0.00  0.00    +0.109 C 
ENDBRANCH   5   9
ENDBRANCH   8   5
BRANCH   8  12
ATOM     12  C   UNL     1      -4.595   2.331  25.447  0.00  0.00    +0.085 C 
BRANCH  12  17
ATOM      2  O   UNL     1      -4.380  -0.781  23.622  0.00  0.00    -0.356 OA
ATOM      7  N   UNL     1      -4.775   0.545  23.751  0.00  0.00    -0.083 NA
ATOM     17  C   UNL     1      -4.341   0.920  24.958  0.00  0.00    +0.086 A 
ATOM     19  C   UNL     1      -3.672  -0.118  25.629  0.00  0.00    +0.074 A 
ATOM     20  C   UNL     1      -3.724  -1.164  24.748  0.00  0.00    +0.168 A 
BRANCH  20  21
ATOM     21  C   UNL     1      -3.235  -2.548  24.780  0.00  0.00    +0.120 C 
ATOM     23  C   UNL     1      -1.721  -2.666  24.439  0.00  0.00    +0.049 C 
ATOM     24  C   UNL     1      -4.026  -3.495  23.832  0.00  0.00    +0.049 C 
BRANCH  21   4
ATOM      4  O   UNL     1      -3.364  -3.153  26.097  0.00  0.00    -0.381 OA
ATOM     26  H   UNL     1      -3.040  -2.517  26.757  0.00  0.00    +0.211 HD
ENDBRANCH  21   4
ENDBRANCH  20  21
ENDBRANCH  12  17
ENDBRANCH   8  12
TORSDOF 6
ENDMDL
MODEL 5
REMARK VINA RESULT:      -4.5      2.395      4.777
REMARK  Name = 56775500
REMARK  9 active torsions:
REMARK  status: ('A' for Active; 'I' for Inactive)
REMARK    1  A    between atoms: O_4  and  C_21
REMARK    2  A    between atoms: N_5  and  C_8
REMARK    3  A    between atoms: N_5  and  C_9
REMARK    4  A    between atoms: C_8  and  C_12
REMARK    5  A    between atoms: C_12  and  C_17
REMARK    6  A    between atoms: C_18  and  C_22
REMARK    7  A    between atoms: C_20  and  C_21
REMARK    8  A    between atoms: C_21  and  C_23
REMARK    9  A    between atoms: C_21  and  C_24
REMARK                            x       y       z     vdW  Elec       q    Type
REMARK                         _______ _______ _______ _____ _____    ______ ____
ROOT
ATOM      1  O   UNL     1       0.071   2.371  27.084  0.00  0.00    -0.376 OA
ATOM      8  C   UNL     1      -0.430   2.960  25.094  0.00  0.00    +0.072 C 
ATOM     10  C   UNL     1      -1.142   2.356  26.299  0.00  0.00    +0.184 C 
ATOM     11  C   UNL     1       0.828   2.855  25.951  0.00  0.00    +0.184 C 
ENDROOT
BRANCH   8   5
ATOM      5  N   UNL     1      -0.807   4.371  24.981  0.00  0.00    -0.304 NA
ATOM     25  H   UNL     1      -0.403   4.866  24.187  0.00  0.00    +0.123 HD
BRANCH   5   9
ATOM      3  O   UNL     1      -6.238   2.218  26.900  0.00  0.00    -0.276 OA
ATOM      6  N   UNL     1      -4.878   3.303  25.360  0.00  0.00    -0.302 N 
ATOM      9  C   UNL     1      -2.264   4.479  24.958  0.00  0.00    +0.057 C 
ATOM     13  C   UNL     1      -2.852   3.469  23.964  0.00  0.00    +0.037 C 
ATOM     14  C   UNL     1      -2.832   4.241  26.362  0.00  0.00    +0.037 C 
ATOM     15  C   UNL     1      -4.380   3.497  23.992  0.00  0.00    +0.109 C 
ATOM     16  C   UNL     1      -4.359   4.255  26.343  0.00  0.00    +0.109 C 
ATOM     18  C   UNL     1      -5.806   2.337  25.751  0.00  0.00    +0.212 C 
ATOM     22  C   UNL     1      -6.291   1.394  24.679  0.00  0.00    +0.109 C 
ENDBRANCH   5   9
ENDBRANCH   8   5
BRANCH   8  12
ATOM     12  C   UNL     1      -0.479   2.235  23.785  0.00  0.00    +0.085 C 
BRANCH  12  17
ATOM      2  O   UNL     1      -0.743  -1.345  24.203  0.00  0.00    -0.356 OA
ATOM      7  N   UNL     1      -0.012  -0.179  24.012  0.00  0.00    -0.083 NA
ATOM     17  C   UNL     1      -0.921   0.799  23.980  0.00  0.00    +0.086 A 
ATOM     19  C   UNL     1      -2.230   0.314  24.143  0.00  0.00    +0.074 A 
ATOM     20  C   UNL     1      -2.063  -1.038  24.279  0.00  0.00    +0.168 A 
BRANCH  20  21
ATOM     21  C   UNL     1      -2.985  -2.162  24.481  0.00  0.00    +0.120 C 
ATOM     23  C   UNL     1      -4.351  -1.966  23.761  0.00  0.00    +0.049 C 
ATOM     24  C   UNL     1      -3.263  -2.458  25.984  0.00  0.00    +0.049 C 
BRANCH  21   4
ATOM      4  O   UNL     1      -2.464  -3.412  23.950  0.00  0.00    -0.381 OA
ATOM     26  H   UNL     1      -1.892  -3.814  24.626  0.00  0.00    +0.211 HD
ENDBRANCH  21   4
ENDBRANCH  20  21
ENDBRANCH  12  17
ENDBRANCH   8  12
TORSDOF 6
ENDMDL
MODEL 6
REMARK VINA RESULT:      -4.2      1.569      6.135
REMARK  Name = 56775500
REMARK  9 active torsions:
REMARK  status: ('A' for Active; 'I' for Inactive)
REMARK    1  A    between atoms: O_4  and  C_21
REMARK    2  A    between atoms: N_5  and  C_8
REMARK    3  A    between atoms: N_5  and  C_9
REMARK    4  A    between atoms: C_8  and  C_12
REMARK    5  A    between atoms: C_12  and  C_17
REMARK    6  A    between atoms: C_18  and  C_22
REMARK    7  A    between atoms: C_20  and  C_21
REMARK    8  A    between atoms: C_21  and  C_23
REMARK    9  A    between atoms: C_21  and  C_24
REMARK                            x       y       z     vdW  Elec       q    Type
REMARK                         _______ _______ _______ _____ _____    ______ ____
ROOT
ATOM      1  O   UNL     1      -1.857   5.238  25.722  0.00  0.00    -0.376 OA
ATOM      8  C   UNL     1      -2.134   3.272  24.939  0.00  0.00    +0.072 C 
ATOM     10  C   UNL     1      -1.402   4.548  24.537  0.00  0.00    +0.184 C 
ATOM     11  C   UNL     1      -2.651   4.094  26.114  0.00  0.00    +0.184 C 
ENDROOT
BRANCH   8   5
ATOM      5  N   UNL     1      -1.155   2.302  25.435  0.00  0.00    -0.304 NA
ATOM     25  H   UNL     1      -1.539   1.550  26.007  0.00  0.00    +0.123 HD
BRANCH   5   9
ATOM      3  O   UNL     1       3.362  -1.370  23.454  0.00  0.00    -0.276 OA
ATOM      6  N   UNL     1       1.965   0.475  23.247  0.00  0.00    -0.302 N 
ATOM      9  C   UNL     1      -0.407   1.751  24.307  0.00  0.00    +0.057 C 
ATOM     13  C   UNL     1       0.904   2.525  24.115  0.00  0.00    +0.037 C 
ATOM     14  C   UNL     1      -0.121   0.263  24.542  0.00  0.00    +0.037 C 
ATOM     15  C   UNL     1       1.748   1.906  23.002  0.00  0.00    +0.109 C 
ATOM     16  C   UNL     1       0.741  -0.311  23.420  0.00  0.00    +0.109 C 
ATOM     18  C   UNL     1       3.207  -0.158  23.283  0.00  0.00    +0.212 C 
ATOM     22  C   UNL     1       4.419   0.721  23.098  0.00  0.00    +0.109 C 
ENDBRANCH   5   9
ENDBRANCH   8   5
BRANCH   8  12
ATOM     12  C   UNL     1      -3.119   2.670  23.984  0.00  0.00    +0.085 C 
BRANCH  12  17
ATOM      2  O   UNL     1      -4.332  -0.411  25.431  0.00  0.00    -0.356 OA
ATOM      7  N   UNL     1      -4.280   0.976  25.354  0.00  0.00    -0.083 NA
ATOM     17  C   UNL     1      -3.426   1.235  24.360  0.00  0.00    +0.086 A 
ATOM     19  C   UNL     1      -2.914   0.063  23.778  0.00  0.00    +0.074 A 
ATOM     20  C   UNL     1      -3.515  -0.943  24.487  0.00  0.00    +0.168 A 
BRANCH  20  21
ATOM     21  C   UNL     1      -3.450  -2.408  24.428  0.00  0.00    +0.120 C 
ATOM     23  C   UNL     1      -2.076  -2.936  23.921  0.00  0.00    +0.049 C 
ATOM     24  C   UNL     1      -4.570  -3.031  23.545  0.00  0.00    +0.049 C 
BRANCH  21   4
ATOM      4  O   UNL     1      -3.623  -3.026  25.734  0.00  0.00    -0.381 OA
ATOM     26  H   UNL     1      -4.114  -2.406  26.300  0.00  0.00    +0.211 HD
ENDBRANCH  21   4
ENDBRANCH  20  21
ENDBRANCH  12  17
ENDBRANCH   8  12
TORSDOF 6
ENDMDL
MODEL 7
REMARK VINA RESULT:      -4.2      1.117      4.285
REMARK  Name = 56775500
REMARK  9 active torsions:
REMARK  status: ('A' for Active; 'I' for Inactive)
REMARK    1  A    between atoms: O_4  and  C_21
REMARK    2  A    between atoms: N_5  and  C_8
REMARK    3  A    between atoms: N_5  and  C_9
REMARK    4  A    between atoms: C_8  and  C_12
REMARK    5  A    between atoms: C_12  and  C_17
REMARK    6  A    between atoms: C_18  and  C_22
REMARK    7  A    between atoms: C_20  and  C_21
REMARK    8  A    between atoms: C_21  and  C_23
REMARK    9  A    between atoms: C_21  and  C_24
REMARK                            x       y       z     vdW  Elec       q    Type
REMARK                         _______ _______ _______ _____ _____    ______ ____
ROOT
ATOM      1  O   UNL     1      -1.440   5.430  25.238  0.00  0.00    -0.376 OA
ATOM      8  C   UNL     1      -2.206   3.482  24.818  0.00  0.00    +0.072 C 
ATOM     10  C   UNL     1      -2.379   4.548  25.894  0.00  0.00    +0.184 C 
ATOM     11  C   UNL     1      -1.157   4.425  24.237  0.00  0.00    +0.184 C 
ENDROOT
BRANCH   8   5
ATOM      5  N   UNL     1      -3.385   3.494  23.948  0.00  0.00    -0.304 NA
ATOM     25  H   UNL     1      -3.218   3.816  22.995  0.00  0.00    +0.123 HD
BRANCH   5   9
ATOM      3  O   UNL     1      -3.520  -2.203  26.260  0.00  0.00    -0.276 OA
ATOM      6  N   UNL     1      -3.854  -0.662  24.552  0.00  0.00    -0.302 N 
ATOM      9  C   UNL     1      -3.987   2.163  23.935  0.00  0.00    +0.057 C 
ATOM     13  C   UNL     1      -3.121   1.200  23.111  0.00  0.00    +0.037 C 
ATOM     14  C   UNL     1      -4.148   1.644  25.370  0.00  0.00    +0.037 C 
ATOM     15  C   UNL     1      -3.680  -0.221  23.163  0.00  0.00    +0.109 C 
ATOM     16  C   UNL     1      -4.688   0.215  25.376  0.00  0.00    +0.109 C 
ATOM     18  C   UNL     1      -3.330  -1.834  25.098  0.00  0.00    +0.212 C 
ATOM     22  C   UNL     1      -2.479  -2.683  24.186  0.00  0.00    +0.109 C 
ENDBRANCH   5   9
ENDBRANCH   8   5
BRANCH   8  12
ATOM     12  C   UNL     1      -1.795   2.101  25.225  0.00  0.00    +0.085 C 
BRANCH  12  17
ATOM      2  O   UNL     1       1.664   1.895  24.199  0.00  0.00    -0.356 OA
ATOM      7  N   UNL     1       0.619   2.498  24.888  0.00  0.00    -0.083 NA
ATOM     17  C   UNL     1      -0.450   1.740  24.628  0.00  0.00    +0.086 A 
ATOM     19  C   UNL     1      -0.143   0.657  23.787  0.00  0.00    +0.074 A 
ATOM     20  C   UNL     1       1.197   0.800  23.547  0.00  0.00    +0.168 A 
BRANCH  20  21
ATOM     21  C   UNL     1       2.177   0.039  22.762  0.00  0.00    +0.120 C 
ATOM     23  C   UNL     1       3.479   0.840  22.472  0.00  0.00    +0.049 C 
ATOM     24  C   UNL     1       1.605  -0.473  21.408  0.00  0.00    +0.049 C 
BRANCH  21   4
ATOM      4  O   UNL     1       2.628  -1.162  23.448  0.00  0.00    -0.381 OA
ATOM     26  H   UNL     1       2.011  -1.346  24.177  0.00  0.00    +0.211 HD
ENDBRANCH  21   4
ENDBRANCH  20  21
ENDBRANCH  12  17
ENDBRANCH   8  12
TORSDOF 6
ENDMDL
MODEL 8
REMARK VINA RESULT:      -3.8      1.929      5.550
REMARK  Name = 56775500
REMARK  9 active torsions:
REMARK  status: ('A' for Active; 'I' for Inactive)
REMARK    1  A    between atoms: O_4  and  C_21
REMARK    2  A    between atoms: N_5  and  C_8
REMARK    3  A    between atoms: N_5  and  C_9
REMARK    4  A    between atoms: C_8  and  C_12
REMARK    5  A    between atoms: C_12  and  C_17
REMARK    6  A    between atoms: C_18  and  C_22
REMARK    7  A    between atoms: C_20  and  C_21
REMARK    8  A    between atoms: C_21  and  C_23
REMARK    9  A    between atoms: C_21  and  C_24
REMARK                            x       y       z     vdW  Elec       q    Type
REMARK                         _______ _______ _______ _____ _____    ______ ____
ROOT
ATOM      1  O   UNL     1      -5.218   4.106  26.264  0.00  0.00    -0.376 OA
ATOM      8  C   UNL     1      -3.692   3.832  24.796  0.00  0.00    +0.072 C 
ATOM     10  C   UNL     1      -4.957   4.668  24.958  0.00  0.00    +0.184 C 
ATOM     11  C   UNL     1      -4.085   3.217  26.135  0.00  0.00    +0.184 C 
ENDROOT
BRANCH   8   5
ATOM      5  N   UNL     1      -2.527   4.697  24.998  0.00  0.00    -0.304 NA
ATOM     25  H   UNL     1      -2.597   5.344  25.783  0.00  0.00    +0.123 HD
BRANCH   5   9
ATOM      3  O   UNL     1       0.655  -0.219  23.123  0.00  0.00    -0.276 OA
ATOM      6  N   UNL     1       0.043   1.354  24.720  0.00  0.00    -0.302 N 
ATOM      9  C   UNL     1      -1.329   3.870  25.128  0.00  0.00    +0.057 C 
ATOM     13  C   UNL     1      -1.630   2.640  25.996  0.00  0.00    +0.037 C 
ATOM     14  C   UNL     1      -0.835   3.439  23.742  0.00  0.00    +0.037 C 
ATOM     15  C   UNL     1      -0.419   1.710  26.067  0.00  0.00    +0.109 C 
ATOM     16  C   UNL     1       0.360   2.495  23.858  0.00  0.00    +0.109 C 
ATOM     18  C   UNL     1       0.230   0.054  24.248  0.00  0.00    +0.212 C 
ATOM     22  C   UNL     1      -0.121  -1.065  25.196  0.00  0.00    +0.109 C 
ENDBRANCH   5   9
ENDBRANCH   8   5
BRANCH   8  12
ATOM     12  C   UNL     1      -3.559   2.943  23.599  0.00  0.00    +0.085 C 
BRANCH  12  17
ATOM      2  O   UNL     1      -4.827  -0.206  24.840  0.00  0.00    -0.356 OA
ATOM      7  N   UNL     1      -4.899   1.173  24.679  0.00  0.00    -0.083 NA
ATOM     17  C   UNL     1      -3.814   1.497  23.971  0.00  0.00    +0.086 A 
ATOM     19  C   UNL     1      -3.027   0.374  23.660  0.00  0.00    +0.074 A 
ATOM     20  C   UNL     1      -3.707  -0.669  24.228  0.00  0.00    +0.168 A 
BRANCH  20  21
ATOM     21  C   UNL     1      -3.473  -2.116  24.301  0.00  0.00    +0.120 C 
ATOM     23  C   UNL     1      -4.566  -2.947  23.568  0.00  0.00    +0.049 C 
ATOM     24  C   UNL     1      -3.358  -2.640  25.762  0.00  0.00    +0.049 C 
BRANCH  21   4
ATOM      4  O   UNL     1      -2.224  -2.511  23.669  0.00  0.00    -0.381 OA
ATOM     26  H   UNL     1      -2.296  -2.333  22.716  0.00  0.00    +0.211 HD
ENDBRANCH  21   4
ENDBRANCH  20  21
ENDBRANCH  12  17
ENDBRANCH   8  12
TORSDOF 6
ENDMDL
MODEL 9
REMARK VINA RESULT:      -3.7      1.885      6.032
REMARK  Name = 56775500
REMARK  9 active torsions:
REMARK  status: ('A' for Active; 'I' for Inactive)
REMARK    1  A    between atoms: O_4  and  C_21
REMARK    2  A    between atoms: N_5  and  C_8
REMARK    3  A    between atoms: N_5  and  C_9
REMARK    4  A    between atoms: C_8  and  C_12
REMARK    5  A    between atoms: C_12  and  C_17
REMARK    6  A    between atoms: C_18  and  C_22
REMARK    7  A    between atoms: C_20  and  C_21
REMARK    8  A    between atoms: C_21  and  C_23
REMARK    9  A    between atoms: C_21  and  C_24
REMARK                            x       y       z     vdW  Elec       q    Type
REMARK                         _______ _______ _______ _____ _____    ______ ____
ROOT
ATOM      1  O   UNL     1      -3.293  -3.182  25.750  0.00  0.00    -0.376 OA
ATOM      8  C   UNL     1      -2.740  -1.356  24.792  0.00  0.00    +0.072 C 
ATOM     10  C   UNL     1      -3.603  -1.788  25.973  0.00  0.00    +0.184 C 
ATOM     11  C   UNL     1      -2.537  -2.850  24.563  0.00  0.00    +0.184 C 
ENDROOT
BRANCH   8   5
ATOM      5  N   UNL     1      -1.493  -0.783  25.304  0.00  0.00    -0.304 NA
ATOM     25  H   UNL     1      -0.872  -1.443  25.772  0.00  0.00    +0.123 HD
BRANCH   5   9
ATOM      3  O   UNL     1       3.560  -0.358  21.825  0.00  0.00    -0.276 OA
ATOM      6  N   UNL     1       1.673   0.543  22.838  0.00  0.00    -0.302 N 
ATOM      9  C   UNL     1      -0.789  -0.111  24.214  0.00  0.00    +0.057 C 
ATOM     13  C   UNL     1       0.200   0.917  24.781  0.00  0.00    +0.037 C 
ATOM     14  C   UNL     1      -0.052  -1.141  23.348  0.00  0.00    +0.037 C 
ATOM     15  C   UNL     1       1.018   1.565  23.664  0.00  0.00    +0.109 C 
ATOM     16  C   UNL     1       0.768  -0.452  22.260  0.00  0.00    +0.109 C 
ATOM     18  C   UNL     1       3.037   0.491  22.552  0.00  0.00    +0.212 C 
ATOM     22  C   UNL     1       3.902   1.550  23.188  0.00  0.00    +0.109 C 
ENDBRANCH   5   9
ENDBRANCH   8   5
BRANCH   8  12
ATOM     12  C   UNL     1      -3.359  -0.532  23.706  0.00  0.00    +0.085 C 
BRANCH  12  17
ATOM      2  O   UNL     1      -5.559   1.920  25.193  0.00  0.00    -0.356 OA
ATOM      7  N   UNL     1      -5.267   0.635  24.752  0.00  0.00    -0.083 NA
ATOM     17  C   UNL     1      -4.020   0.705  24.278  0.00  0.00    +0.086 A 
ATOM     19  C   UNL     1      -3.480   1.998  24.392  0.00  0.00    +0.074 A 
ATOM     20  C   UNL     1      -4.486   2.722  24.972  0.00  0.00    +0.168 A 
BRANCH  20  21
ATOM     21  C   UNL     1      -4.624   4.126  25.381  0.00  0.00    +0.120 C 
ATOM     23  C   UNL     1      -4.306   5.128  24.234  0.00  0.00    +0.049 C 
ATOM     24  C   UNL     1      -3.740   4.490  26.609  0.00  0.00    +0.049 C 
BRANCH  21   4
ATOM      4  O   UNL     1      -5.980   4.455  25.793  0.00  0.00    -0.381 OA
ATOM     26  H   UNL     1      -6.392   3.651  26.153  0.00  0.00    +0.211 HD
ENDBRANCH  21   4
ENDBRANCH  20  21
ENDBRANCH  12  17
ENDBRANCH   8  12
TORSDOF 6
ENDMDL
MODEL 10
REMARK VINA RESULT:      -3.3      1.511      5.307
REMARK  Name = 56775500
REMARK  9 active torsions:
REMARK  status: ('A' for Active; 'I' for Inactive)
REMARK    1  A    between atoms: O_4  and  C_21
REMARK    2  A    between atoms: N_5  and  C_8
REMARK    3  A    between atoms: N_5  and  C_9
REMARK    4  A    between atoms: C_8  and  C_12
REMARK    5  A    between atoms: C_12  and  C_17
REMARK    6  A    between atoms: C_18  and  C_22
REMARK    7  A    between atoms: C_20  and  C_21
REMARK    8  A    between atoms: C_21  and  C_23
REMARK    9  A    between atoms: C_21  and  C_24
REMARK                            x       y       z     vdW  Elec       q    Type
REMARK                         _______ _______ _______ _____ _____    ______ ____
ROOT
ATOM      1  O   UNL     1      -3.660  -2.864  24.756  0.00  0.00    -0.376 OA
ATOM      8  C   UNL     1      -3.905  -0.779  24.368  0.00  0.00    +0.072 C 
ATOM     10  C   UNL     1      -3.149  -1.655  25.361  0.00  0.00    +0.184 C 
ATOM     11  C   UNL     1      -4.477  -2.093  23.846  0.00  0.00    +0.184 C 
ENDROOT
BRANCH   8   5
ATOM      5  N   UNL     1      -2.956  -0.253  23.384  0.00  0.00    -0.304 NA
ATOM     25  H   UNL     1      -3.251   0.599  22.908  0.00  0.00    +0.123 HD
BRANCH   5   9
ATOM      3  O   UNL     1       2.886   1.603  22.891  0.00  0.00    -0.276 OA
ATOM      6  N   UNL     1       1.208   0.306  23.841  0.00  0.00    -0.302 N 
ATOM      9  C   UNL     1      -1.658  -0.053  24.026  0.00  0.00    +0.057 C 
ATOM     13  C   UNL     1      -0.722  -1.223  23.698  0.00  0.00    +0.037 C 
ATOM     14  C   UNL     1      -1.041   1.273  23.563  0.00  0.00    +0.037 C 
ATOM     15  C   UNL     1       0.673  -0.989  24.278  0.00  0.00    +0.109 C 
ATOM     16  C   UNL     1       0.358   1.458  24.148  0.00  0.00    +0.109 C 
ATOM     18  C   UNL     1       2.440   0.500  23.216  0.00  0.00    +0.212 C 
ATOM     22  C   UNL     1       3.256  -0.737  22.934  0.00  0.00    +0.109 C 
ENDBRANCH   5   9
ENDBRANCH   8   5
BRANCH   8  12
ATOM     12  C   UNL     1      -4.843   0.264  24.891  0.00  0.00    +0.085 C 
BRANCH  12  17
ATOM      2  O   UNL     1      -3.876   3.553  23.747  0.00  0.00    -0.356 OA
ATOM      7  N   UNL     1      -4.555   2.349  23.600  0.00  0.00    -0.083 NA
ATOM     17  C   UNL     1      -4.265   1.652  24.702  0.00  0.00    +0.086 A 
ATOM     19  C   UNL     1      -3.417   2.358  25.572  0.00  0.00    +0.074 A 
ATOM     20  C   UNL     1      -3.202   3.546  24.925  0.00  0.00    +0.168 A 
BRANCH  20  21
ATOM     21  C   UNL     1      -2.426   4.751  25.242  0.00  0.00    +0.120 C 
ATOM     23  C   UNL     1      -2.674   5.915  24.240  0.00  0.00    +0.049 C 
ATOM     24  C   UNL     1      -0.894   4.485  25.314  0.00  0.00    +0.049 C 
BRANCH  21   4
ATOM      4  O   UNL     1      -2.764   5.305  26.543  0.00  0.00    -0.381 OA
ATOM     26  H   UNL     1      -1.955   5.335  27.081  0.00  0.00    +0.211 HD
ENDBRANCH  21   4
ENDBRANCH  20  21
ENDBRANCH  12  17
ENDBRANCH   8  12
TORSDOF 6
ENDMDL
