MODEL 1
REMARK VINA RESULT:       6.3      0.000      0.000
REMARK  Name = 25338395
REMARK  7 active torsions:
REMARK  status: ('A' for Active; 'I' for Inactive)
REMARK    1  A    between atoms: O_4  and  C_25
REMARK    2  A    between atoms: O_4  and  C_29
REMARK    3  A    between atoms: N_5  and  C_14
REMARK    4  A    between atoms: N_6  and  C_9
REMARK    5  A    between atoms: C_10  and  C_13
REMARK    6  A    between atoms: C_15  and  C_17
REMARK    7  A    between atoms: C_16  and  C_18
REMARK                            x       y       z     vdW  Elec       q    Type
REMARK                         _______ _______ _______ _____ _____    ______ ____
ROOT
ATOM      5  N   UNL     1      -3.843  -2.085  23.917  0.00  0.00    -0.293 NA
ATOM      9  C   UNL     1      -2.109  -2.893  25.250  0.00  0.00    +0.089 C 
ATOM     10  C   UNL     1      -4.098  -1.474  25.235  0.00  0.00    +0.147 C 
ATOM     11  C   UNL     1      -2.879  -1.873  26.090  0.00  0.00    +0.052 C 
ATOM     12  C   UNL     1      -3.106  -3.324  24.184  0.00  0.00    +0.107 C 
ATOM     14  C   UNL     1      -5.059  -2.330  23.151  0.00  0.00    +0.105 C 
ENDROOT
BRANCH  10  13
ATOM      2  O   UNL     1      -5.566   0.474  25.389  0.00  0.00    -0.336 OA
ATOM      7  N   UNL     1      -3.427   0.973  24.947  0.00  0.00    -0.190 NA
ATOM      8  N   UNL     1      -5.505   1.869  25.287  0.00  0.00    -0.056 NA
ATOM     13  C   UNL     1      -4.301   0.025  25.177  0.00  0.00    +0.245 A 
ATOM     16  C   UNL     1      -4.213   2.086  25.024  0.00  0.00    +0.202 A 
BRANCH  16  18
ATOM      1 CL   UNL     1      -1.976   7.539  24.244  0.00  0.00    -0.084 Cl
ATOM     18  C   UNL     1      -3.673   3.402  24.837  0.00  0.00    +0.023 A 
ATOM     21  C   UNL     1      -4.237   4.259  23.892  0.00  0.00    +0.013 A 
ATOM     22  C   UNL     1      -2.585   3.826  25.599  0.00  0.00    +0.013 A 
ATOM     26  C   UNL     1      -3.713   5.538  23.708  0.00  0.00    +0.021 A 
ATOM     27  C   UNL     1      -2.060   5.104  25.416  0.00  0.00    +0.021 A 
ATOM     28  C   UNL     1      -2.624   5.960  24.471  0.00  0.00    +0.041 A 
ENDBRANCH  16  18
ENDBRANCH  10  13
BRANCH   9   6
ATOM      3  O   UNL     1      -1.077  -0.256  25.724  0.00  0.00    -0.270 OA
ATOM      6  N   UNL     1      -0.927  -2.310  24.659  0.00  0.00    -0.307 N 
ATOM     15  C   UNL     1      -0.507  -1.023  24.952  0.00  0.00    +0.244 C 
ATOM     30  H   UNL     1      -0.468  -2.845  23.930  0.00  0.00    +0.149 HD
BRANCH  15  17
ATOM     17  C   UNL     1       0.714  -0.562  24.242  0.00  0.00    +0.037 A 
ATOM     19  C   UNL     1       1.756  -1.456  23.994  0.00  0.00    +0.016 A 
ATOM     20  C   UNL     1       0.819   0.765  23.826  0.00  0.00    +0.016 A 
ATOM     23  C   UNL     1       2.904  -1.022  23.329  0.00  0.00    +0.046 A 
ATOM     24  C   UNL     1       1.967   1.198  23.161  0.00  0.00    +0.046 A 
ATOM     25  C   UNL     1       3.009   0.304  22.913  0.00  0.00    +0.120 A 
BRANCH  25   4
ATOM      4  O   UNL     1       4.128   0.727  22.264  0.00  0.00    -0.495 OA
ATOM     29  C   UNL     1       5.383   0.425  22.870  0.00  0.00    +0.277 C 
ENDBRANCH  25   4
ENDBRANCH  15  17
ENDBRANCH   9   6
TORSDOF 5
ENDMDL
MODEL 2
REMARK VINA RESULT:       7.8      2.913      7.345
REMARK  Name = 25338395
REMARK  7 active torsions:
REMARK  status: ('A' for Active; 'I' for Inactive)
REMARK    1  A    between atoms: O_4  and  C_25
REMARK    2  A    between atoms: O_4  and  C_29
REMARK    3  A    between atoms: N_5  and  C_14
REMARK    4  A    between atoms: N_6  and  C_9
REMARK    5  A    between atoms: C_10  and  C_13
REMARK    6  A    between atoms: C_15  and  C_17
REMARK    7  A    between atoms: C_16  and  C_18
REMARK                            x       y       z     vdW  Elec       q    Type
REMARK                         _______ _______ _______ _____ _____    ______ ____
ROOT
ATOM      5  N   UNL     1      -2.186  -2.415  25.301  0.00  0.00    -0.293 NA
ATOM      9  C   UNL     1      -4.104  -1.967  24.054  0.00  0.00    +0.089 C 
ATOM     10  C   UNL     1      -1.696  -2.356  23.911  0.00  0.00    +0.147 C 
ATOM     11  C   UNL     1      -2.921  -1.911  23.087  0.00  0.00    +0.052 C 
ATOM     12  C   UNL     1      -3.595  -2.809  25.214  0.00  0.00    +0.107 C 
ATOM     14  C   UNL     1      -1.417  -3.323  26.143  0.00  0.00    +0.105 C 
ENDROOT
BRANCH  10  13
ATOM      2  O   UNL     1      -0.782  -0.118  23.553  0.00  0.00    -0.336 OA
ATOM      7  N   UNL     1       0.770  -1.725  23.711  0.00  0.00    -0.190 NA
ATOM      8  N   UNL     1       0.456   0.521  23.407  0.00  0.00    -0.056 NA
ATOM     13  C   UNL     1      -0.507  -1.437  23.728  0.00  0.00    +0.245 A 
ATOM     16  C   UNL     1       1.321  -0.493  23.511  0.00  0.00    +0.202 A 
BRANCH  16  18
ATOM      1 CL   UNL     1       7.205   0.271  23.142  0.00  0.00    -0.084 Cl
ATOM     18  C   UNL     1       2.741  -0.308  23.423  0.00  0.00    +0.023 A 
ATOM     21  C   UNL     1       3.259   0.874  22.894  0.00  0.00    +0.013 A 
ATOM     22  C   UNL     1       3.604  -1.311  23.866  0.00  0.00    +0.013 A 
ATOM     26  C   UNL     1       4.639   1.054  22.807  0.00  0.00    +0.021 A 
ATOM     27  C   UNL     1       4.984  -1.131  23.779  0.00  0.00    +0.021 A 
ATOM     28  C   UNL     1       5.501   0.051  23.250  0.00  0.00    +0.041 A 
ENDBRANCH  16  18
ENDBRANCH  10  13
BRANCH   9   6
ATOM      3  O   UNL     1      -3.269   0.535  22.919  0.00  0.00    -0.270 OA
ATOM      6  N   UNL     1      -4.494  -0.647  24.493  0.00  0.00    -0.307 N 
ATOM     15  C   UNL     1      -4.036   0.507  23.878  0.00  0.00    +0.244 C 
ATOM     30  H   UNL     1      -5.038  -0.591  25.348  0.00  0.00    +0.149 HD
BRANCH  15  17
ATOM     17  C   UNL     1      -4.510   1.786  24.466  0.00  0.00    +0.037 A 
ATOM     19  C   UNL     1      -3.780   2.958  24.265  0.00  0.00    +0.016 A 
ATOM     20  C   UNL     1      -5.683   1.815  25.220  0.00  0.00    +0.016 A 
ATOM     23  C   UNL     1      -4.224   4.159  24.819  0.00  0.00    +0.046 A 
ATOM     24  C   UNL     1      -6.127   3.017  25.774  0.00  0.00    +0.046 A 
ATOM     25  C   UNL     1      -5.397   4.189  25.573  0.00  0.00    +0.120 A 
BRANCH  25   4
ATOM      4  O   UNL     1      -5.830   5.360  26.113  0.00  0.00    -0.495 OA
ATOM     29  C   UNL     1      -6.774   6.114  25.355  0.00  0.00    +0.277 C 
ENDBRANCH  25   4
ENDBRANCH  15  17
ENDBRANCH   9   6
TORSDOF 5
ENDMDL
