MODEL 1
REMARK VINA RESULT:      11.4      0.000      0.000
REMARK  Name = 7673896
REMARK  8 active torsions:
REMARK  status: ('A' for Active; 'I' for Inactive)
REMARK    1  A    between atoms: N_7  and  C_22
REMARK    2  A    between atoms: N_8  and  C_20
REMARK    3  A    between atoms: N_9  and  C_26
REMARK    4  A    between atoms: N_9  and  C_30
REMARK    5  A    between atoms: N_9  and  C_31
REMARK    6  A    between atoms: C_23  and  C_26
REMARK    7  A    between atoms: C_29  and  C_32
REMARK    8  A    between atoms: C_32  and  C_33
REMARK                            x       y       z     vdW  Elec       q    Type
REMARK                         _______ _______ _______ _____ _____    ______ ____
ROOT
ATOM      1  O   UNL     1      -1.292   1.685  22.242  0.00  0.00    -0.266 OA
ATOM      2  O   UNL     1      -2.409   4.904  26.013  0.00  0.00    -0.252 OA
ATOM      5  N   UNL     1      -4.097   3.325  25.994  0.00  0.00    -0.284 N 
ATOM      6  N   UNL     1      -3.095   1.413  23.705  0.00  0.00    -0.310 N 
ATOM      7  N   UNL     1      -2.302   3.134  27.511  0.00  0.00    -0.269 N 
ATOM     10  C   UNL     1      -5.098   3.010  23.741  0.00  0.00    +0.027 C 
ATOM     11  C   UNL     1      -5.006   1.121  25.321  0.00  0.00    +0.054 C 
ATOM     12  C   UNL     1      -5.869   1.799  24.257  0.00  0.00    +0.018 C 
ATOM     13  C   UNL     1      -4.795   3.992  24.892  0.00  0.00    +0.114 C 
ATOM     14  C   UNL     1      -3.819   2.515  23.053  0.00  0.00    +0.130 C 
ATOM     15  C   UNL     1      -4.768   2.107  26.481  0.00  0.00    +0.119 C 
ATOM     16  C   UNL     1      -3.676   0.677  24.742  0.00  0.00    +0.027 A 
ATOM     17  C   UNL     1      -3.041  -0.394  25.249  0.00  0.00    +0.024 A 
ATOM     18  C   UNL     1      -1.835   1.078  23.166  0.00  0.00    +0.273 A 
ATOM     19  C   UNL     1      -2.895   3.874  26.488  0.00  0.00    +0.306 C 
ATOM     20  C   UNL     1      -1.149  -0.105  23.777  0.00  0.00    +0.099 A 
ATOM     21  C   UNL     1      -1.752  -0.789  24.756  0.00  0.00    +0.030 A 
ATOM     34  H   UNL     1      -2.901   2.590  28.120  0.00  0.00    +0.156 HD
ENDROOT
BRANCH   7  22
ATOM     22  C   UNL     1      -0.920   3.035  27.810  0.00  0.00    +0.035 A 
ATOM     24  C   UNL     1      -0.491   3.060  29.137  0.00  0.00    +0.024 A 
ATOM     25  C   UNL     1       0.010   2.917  26.777  0.00  0.00    +0.024 A 
ATOM     27  C   UNL     1       0.868   2.965  29.432  0.00  0.00    +0.013 A 
ATOM     28  C   UNL     1       1.370   2.822  27.073  0.00  0.00    +0.013 A 
ATOM     29  C   UNL     1       1.799   2.845  28.400  0.00  0.00    +0.017 A 
BRANCH  29  32
ATOM      4  O   UNL     1       3.906   1.790  28.298  0.00  0.00    -0.292 OA
ATOM     32  C   UNL     1       3.217   2.746  28.707  0.00  0.00    +0.160 C 
ATOM     33  C   UNL     1       3.899   3.820  29.548  0.00  0.00    +0.091 C 
ENDBRANCH  29  32
ENDBRANCH   7  22
BRANCH  20   8
ATOM      3  O   UNL     1       1.247   1.444  23.977  0.00  0.00    -0.274 OA
ATOM      8  N   UNL     1       0.079  -0.451  23.297  0.00  0.00    -0.280 N 
ATOM     23  C   UNL     1       1.212   0.343  23.434  0.00  0.00    +0.231 C 
ATOM     35  H   UNL     1       0.107  -1.212  22.623  0.00  0.00    +0.155 HD
BRANCH  23  26
ATOM     26  C   UNL     1       2.424  -0.309  22.798  0.00  0.00    +0.180 C 
BRANCH  26   9
ATOM      9  N   UNL     1       3.630   0.217  23.421  0.00  0.00    -0.300 NA
ATOM     30  C   UNL     1       4.539  -0.872  23.790  0.00  0.00    +0.105 C 
ATOM     31  C   UNL     1       4.306   1.158  22.525  0.00  0.00    +0.105 C 
ENDBRANCH  26   9
ENDBRANCH  23  26
ENDBRANCH  20   8
TORSDOF 5
ENDMDL
MODEL 2
REMARK VINA RESULT:      12.7      2.555      5.498
REMARK  Name = 7673896
REMARK  8 active torsions:
REMARK  status: ('A' for Active; 'I' for Inactive)
REMARK    1  A    between atoms: N_7  and  C_22
REMARK    2  A    between atoms: N_8  and  C_20
REMARK    3  A    between atoms: N_9  and  C_26
REMARK    4  A    between atoms: N_9  and  C_30
REMARK    5  A    between atoms: N_9  and  C_31
REMARK    6  A    between atoms: C_23  and  C_26
REMARK    7  A    between atoms: C_29  and  C_32
REMARK    8  A    between atoms: C_32  and  C_33
REMARK                            x       y       z     vdW  Elec       q    Type
REMARK                         _______ _______ _______ _____ _____    ______ ____
ROOT
ATOM      1  O   UNL     1       0.111   2.218  26.537  0.00  0.00    -0.266 OA
ATOM      2  O   UNL     1      -4.697   0.573  26.658  0.00  0.00    -0.252 OA
ATOM      5  N   UNL     1      -4.728   2.565  25.486  0.00  0.00    -0.284 N 
ATOM      6  N   UNL     1      -1.662   3.273  25.438  0.00  0.00    -0.310 N 
ATOM      7  N   UNL     1      -4.697   0.506  24.338  0.00  0.00    -0.269 N 
ATOM     10  C   UNL     1      -3.584   4.412  26.693  0.00  0.00    +0.027 C 
ATOM     11  C   UNL     1      -3.583   4.367  24.229  0.00  0.00    +0.054 C 
ATOM     12  C   UNL     1      -3.687   5.285  25.446  0.00  0.00    +0.018 C 
ATOM     13  C   UNL     1      -4.713   3.362  26.715  0.00  0.00    +0.114 C 
ATOM     14  C   UNL     1      -2.193   3.764  26.719  0.00  0.00    +0.130 C 
ATOM     15  C   UNL     1      -4.756   3.367  24.250  0.00  0.00    +0.119 C 
ATOM     16  C   UNL     1      -2.266   3.615  24.224  0.00  0.00    +0.027 A 
ATOM     17  C   UNL     1      -1.702   3.246  23.061  0.00  0.00    +0.024 A 
ATOM     18  C   UNL     1      -0.467   2.527  25.494  0.00  0.00    +0.273 A 
ATOM     19  C   UNL     1      -4.720   1.157  25.571  0.00  0.00    +0.306 C 
ATOM     20  C   UNL     1       0.115   2.113  24.177  0.00  0.00    +0.099 A 
ATOM     21  C   UNL     1      -0.489   2.478  23.041  0.00  0.00    +0.030 A 
ATOM     34  H   UNL     1      -5.127   0.966  23.544  0.00  0.00    +0.156 HD
ENDROOT
BRANCH   7  22
ATOM     22  C   UNL     1      -4.121  -0.755  24.042  0.00  0.00    +0.035 A 
ATOM     24  C   UNL     1      -4.919  -1.787  23.549  0.00  0.00    +0.024 A 
ATOM     25  C   UNL     1      -2.757  -0.963  24.247  0.00  0.00    +0.024 A 
ATOM     27  C   UNL     1      -4.352  -3.027  23.259  0.00  0.00    +0.013 A 
ATOM     28  C   UNL     1      -2.190  -2.204  23.957  0.00  0.00    +0.013 A 
ATOM     29  C   UNL     1      -2.988  -3.237  23.463  0.00  0.00    +0.017 A 
BRANCH  29  32
ATOM      4  O   UNL     1      -3.095  -5.562  23.079  0.00  0.00    -0.292 OA
ATOM     32  C   UNL     1      -2.397  -4.531  23.160  0.00  0.00    +0.160 C 
ATOM     33  C   UNL     1      -0.894  -4.656  22.936  0.00  0.00    +0.091 C 
ENDBRANCH  29  32
ENDBRANCH   7  22
BRANCH  20   8
ATOM      3  O   UNL     1       0.682  -0.163  22.539  0.00  0.00    -0.274 OA
ATOM      8  N   UNL     1       1.261   1.375  24.188  0.00  0.00    -0.280 N 
ATOM     23  C   UNL     1       1.483   0.282  23.358  0.00  0.00    +0.231 C 
ATOM     35  H   UNL     1       1.877   1.500  24.988  0.00  0.00    +0.155 HD
BRANCH  23  26
ATOM     26  C   UNL     1       2.848  -0.331  23.603  0.00  0.00    +0.180 C 
BRANCH  26   9
ATOM      9  N   UNL     1       3.875   0.636  23.246  0.00  0.00    -0.300 NA
ATOM     30  C   UNL     1       5.184   0.208  23.745  0.00  0.00    +0.105 C 
ATOM     31  C   UNL     1       3.925   0.824  21.793  0.00  0.00    +0.105 C 
ENDBRANCH  26   9
ENDBRANCH  23  26
ENDBRANCH  20   8
TORSDOF 5
ENDMDL
MODEL 3
REMARK VINA RESULT:      13.5      2.814      4.383
REMARK  Name = 7673896
REMARK  8 active torsions:
REMARK  status: ('A' for Active; 'I' for Inactive)
REMARK    1  A    between atoms: N_7  and  C_22
REMARK    2  A    between atoms: N_8  and  C_20
REMARK    3  A    between atoms: N_9  and  C_26
REMARK    4  A    between atoms: N_9  and  C_30
REMARK    5  A    between atoms: N_9  and  C_31
REMARK    6  A    between atoms: C_23  and  C_26
REMARK    7  A    between atoms: C_29  and  C_32
REMARK    8  A    between atoms: C_32  and  C_33
REMARK                            x       y       z     vdW  Elec       q    Type
REMARK                         _______ _______ _______ _____ _____    ______ ____
ROOT
ATOM      1  O   UNL     1      -0.304  -1.321  22.147  0.00  0.00    -0.266 OA
ATOM      2  O   UNL     1      -4.798   0.702  23.389  0.00  0.00    -0.252 OA
ATOM      5  N   UNL     1      -4.448  -1.042  24.865  0.00  0.00    -0.284 N 
ATOM      6  N   UNL     1      -1.586  -2.003  23.979  0.00  0.00    -0.310 N 
ATOM      7  N   UNL     1      -3.962   1.176  25.502  0.00  0.00    -0.269 N 
ATOM     10  C   UNL     1      -3.853  -3.167  23.723  0.00  0.00    +0.027 C 
ATOM     11  C   UNL     1      -2.966  -2.690  25.972  0.00  0.00    +0.054 C 
ATOM     12  C   UNL     1      -3.520  -3.795  25.073  0.00  0.00    +0.018 C 
ATOM     13  C   UNL     1      -4.893  -2.040  23.890  0.00  0.00    +0.114 C 
ATOM     14  C   UNL     1      -2.552  -2.662  23.087  0.00  0.00    +0.130 C 
ATOM     15  C   UNL     1      -4.046  -1.608  26.165  0.00  0.00    +0.119 C 
ATOM     16  C   UNL     1      -1.719  -2.070  25.370  0.00  0.00    +0.027 A 
ATOM     17  C   UNL     1      -0.768  -1.555  26.166  0.00  0.00    +0.024 A 
ATOM     18  C   UNL     1      -0.474  -1.389  23.365  0.00  0.00    +0.273 A 
ATOM     19  C   UNL     1      -4.441   0.323  24.508  0.00  0.00    +0.306 C 
ATOM     20  C   UNL     1       0.550  -0.804  24.288  0.00  0.00    +0.099 A 
ATOM     21  C   UNL     1       0.388  -0.908  25.611  0.00  0.00    +0.030 A 
ATOM     34  H   UNL     1      -4.088   0.903  26.470  0.00  0.00    +0.156 HD
ENDROOT
BRANCH   7  22
ATOM     22  C   UNL     1      -3.292   2.412  25.325  0.00  0.00    +0.035 A 
ATOM     24  C   UNL     1      -3.988   3.519  24.840  0.00  0.00    +0.024 A 
ATOM     25  C   UNL     1      -1.936   2.519  25.634  0.00  0.00    +0.024 A 
ATOM     27  C   UNL     1      -3.328   4.734  24.664  0.00  0.00    +0.013 A 
ATOM     28  C   UNL     1      -1.276   3.736  25.458  0.00  0.00    +0.013 A 
ATOM     29  C   UNL     1      -1.972   4.843  24.973  0.00  0.00    +0.017 A 
BRANCH  29  32
ATOM      4  O   UNL     1      -0.039   6.176  24.750  0.00  0.00    -0.292 OA
ATOM     32  C   UNL     1      -1.284   6.111  24.790  0.00  0.00    +0.160 C 
ATOM     33  C   UNL     1      -2.080   7.404  24.644  0.00  0.00    +0.091 C 
ENDBRANCH  29  32
ENDBRANCH   7  22
BRANCH  20   8
ATOM      3  O   UNL     1       0.961   2.019  24.067  0.00  0.00    -0.274 OA
ATOM      8  N   UNL     1       1.631  -0.185  23.733  0.00  0.00    -0.280 N 
ATOM     23  C   UNL     1       1.779   1.195  23.663  0.00  0.00    +0.231 C 
ATOM     35  H   UNL     1       2.239  -0.761  23.154  0.00  0.00    +0.155 HD
BRANCH  23  26
ATOM     26  C   UNL     1       3.083   1.579  22.993  0.00  0.00    +0.180 C 
BRANCH  26   9
ATOM      9  N   UNL     1       3.887   0.382  22.795  0.00  0.00    -0.300 NA
ATOM     30  C   UNL     1       4.093   0.127  21.367  0.00  0.00    +0.105 C 
ATOM     31  C   UNL     1       5.178   0.508  23.477  0.00  0.00    +0.105 C 
ENDBRANCH  26   9
ENDBRANCH  23  26
ENDBRANCH  20   8
TORSDOF 5
ENDMDL
MODEL 4
REMARK VINA RESULT:      14.0      3.179      5.728
REMARK  Name = 7673896
REMARK  8 active torsions:
REMARK  status: ('A' for Active; 'I' for Inactive)
REMARK    1  A    between atoms: N_7  and  C_22
REMARK    2  A    between atoms: N_8  and  C_20
REMARK    3  A    between atoms: N_9  and  C_26
REMARK    4  A    between atoms: N_9  and  C_30
REMARK    5  A    between atoms: N_9  and  C_31
REMARK    6  A    between atoms: C_23  and  C_26
REMARK    7  A    between atoms: C_29  and  C_32
REMARK    8  A    between atoms: C_32  and  C_33
REMARK                            x       y       z     vdW  Elec       q    Type
REMARK                         _______ _______ _______ _____ _____    ______ ____
ROOT
ATOM      1  O   UNL     1      -2.686   2.222  26.105  0.00  0.00    -0.266 OA
ATOM      2  O   UNL     1      -0.261  -2.242  25.973  0.00  0.00    -0.252 OA
ATOM      5  N   UNL     1      -2.145  -2.495  24.659  0.00  0.00    -0.284 N 
ATOM      6  N   UNL     1      -3.358   0.405  24.798  0.00  0.00    -0.310 N 
ATOM      7  N   UNL     1      -0.057  -2.025  23.671  0.00  0.00    -0.269 N 
ATOM     10  C   UNL     1      -4.227  -1.781  25.812  0.00  0.00    +0.027 C 
ATOM     11  C   UNL     1      -4.037  -1.554  23.366  0.00  0.00    +0.054 C 
ATOM     12  C   UNL     1      -4.995  -1.915  24.501  0.00  0.00    +0.018 C 
ATOM     13  C   UNL     1      -3.004  -2.721  25.824  0.00  0.00    +0.114 C 
ATOM     14  C   UNL     1      -3.827  -0.311  25.994  0.00  0.00    +0.130 C 
ATOM     15  C   UNL     1      -2.856  -2.544  23.369  0.00  0.00    +0.119 C 
ATOM     16  C   UNL     1      -3.521  -0.136  23.518  0.00  0.00    +0.027 A 
ATOM     17  C   UNL     1      -3.184   0.581  22.433  0.00  0.00    +0.024 A 
ATOM     18  C   UNL     1      -2.831   1.697  25.000  0.00  0.00    +0.273 A 
ATOM     19  C   UNL     1      -0.766  -2.264  24.847  0.00  0.00    +0.306 C 
ATOM     20  C   UNL     1      -2.444   2.453  23.767  0.00  0.00    +0.099 A 
ATOM     21  C   UNL     1      -2.633   1.901  22.563  0.00  0.00    +0.030 A 
ATOM     34  H   UNL     1      -0.389  -2.452  22.814  0.00  0.00    +0.156 HD
ENDROOT
BRANCH   7  22
ATOM     22  C   UNL     1       1.103  -1.227  23.514  0.00  0.00    +0.035 A 
ATOM     24  C   UNL     1       0.980   0.130  23.213  0.00  0.00    +0.024 A 
ATOM     25  C   UNL     1       2.367  -1.799  23.657  0.00  0.00    +0.024 A 
ATOM     27  C   UNL     1       2.122   0.915  23.057  0.00  0.00    +0.013 A 
ATOM     28  C   UNL     1       3.509  -1.013  23.500  0.00  0.00    +0.013 A 
ATOM     29  C   UNL     1       3.387   0.344  23.200  0.00  0.00    +0.017 A 
BRANCH  29  32
ATOM      4  O   UNL     1       4.572   2.184  22.320  0.00  0.00    -0.292 OA
ATOM     32  C   UNL     1       4.577   1.163  23.037  0.00  0.00    +0.160 C 
ATOM     33  C   UNL     1       5.873   0.786  23.747  0.00  0.00    +0.091 C 
ENDBRANCH  29  32
ENDBRANCH   7  22
BRANCH  20   8
ATOM      3  O   UNL     1       0.108   3.082  24.898  0.00  0.00    -0.274 OA
ATOM      8  N   UNL     1      -1.912   3.699  23.920  0.00  0.00    -0.280 N 
ATOM     23  C   UNL     1      -0.659   3.942  24.470  0.00  0.00    +0.231 C 
ATOM     35  H   UNL     1      -2.556   4.483  23.833  0.00  0.00    +0.155 HD
BRANCH  23  26
ATOM     26  C   UNL     1      -0.348   5.425  24.507  0.00  0.00    +0.180 C 
BRANCH  26   9
ATOM      9  N   UNL     1      -1.527   6.147  24.962  0.00  0.00    -0.300 NA
ATOM     30  C   UNL     1      -2.366   6.536  23.825  0.00  0.00    +0.105 C 
ATOM     31  C   UNL     1      -2.300   5.334  25.904  0.00  0.00    +0.105 C 
ENDBRANCH  26   9
ENDBRANCH  23  26
ENDBRANCH  20   8
TORSDOF 5
ENDMDL
