MODEL 1
REMARK VINA RESULT:      -4.3      0.000      0.000
REMARK  Name = 26743024
REMARK  11 active torsions:
REMARK  status: ('A' for Active; 'I' for Inactive)
REMARK    1  A    between atoms: O_3  and  C_20
REMARK    2  A    between atoms: O_3  and  C_27
REMARK    3  A    between atoms: O_4  and  C_22
REMARK    4  A    between atoms: O_4  and  C_28
REMARK    5  A    between atoms: N_6  and  C_19
REMARK    6  A    between atoms: C_8  and  C_14
REMARK    7  A    between atoms: C_9  and  C_13
REMARK    8  A    between atoms: C_13  and  C_15
REMARK    9  A    between atoms: C_14  and  C_16
REMARK   10  A    between atoms: C_18  and  C_20
REMARK   11  A    between atoms: C_19  and  C_21
REMARK                            x       y       z     vdW  Elec       q    Type
REMARK                         _______ _______ _______ _____ _____    ______ ____
ROOT
ATOM      5  N   UNL     1      -0.449  -0.771  26.389  0.00  0.00    -0.316 NA
ATOM      8  C   UNL     1      -2.673  -1.709  24.733  0.00  0.00    +0.004 C 
ATOM      9  C   UNL     1      -1.266  -1.464  24.137  0.00  0.00    +0.012 C 
ATOM     10  C   UNL     1      -2.893  -0.861  25.995  0.00  0.00    +0.019 C 
ATOM     11  C   UNL     1      -0.206  -1.645  25.240  0.00  0.00    +0.085 C 
ATOM     12  C   UNL     1      -1.751  -1.044  26.995  0.00  0.00    +0.081 C 
ATOM     29  H   UNL     1      -0.403   0.205  26.102  0.00  0.00    +0.122 HD
ENDROOT
BRANCH   9  13
ATOM     13  C   UNL     1      -1.110  -0.100  23.453  0.00  0.00    +0.064 C 
BRANCH  13  15
ATOM      2  O   UNL     1       2.145   1.416  23.706  0.00  0.00    -0.357 OA
ATOM      7  N   UNL     1       0.798   1.334  24.036  0.00  0.00    -0.083 NA
ATOM     15  C   UNL     1       0.334   0.293  23.339  0.00  0.00    +0.084 A 
ATOM     17  C   UNL     1       1.333  -0.315  22.559  0.00  0.00    +0.073 A 
ATOM     18  C   UNL     1       2.452   0.429  22.826  0.00  0.00    +0.163 A 
BRANCH  18  20
ATOM     20  C   UNL     1       3.845   0.369  22.368  0.00  0.00    +0.236 C 
BRANCH  20   3
ATOM      3  O   UNL     1       4.726   0.832  23.396  0.00  0.00    -0.375 OA
ATOM     27  C   UNL     1       5.467  -0.238  23.957  0.00  0.00    +0.194 C 
ENDBRANCH  20   3
ENDBRANCH  18  20
ENDBRANCH  13  15
ENDBRANCH   9  13
BRANCH   8  14
ATOM     14  C   UNL     1      -3.804  -1.491  23.729  0.00  0.00    +0.099 C 
BRANCH  14  16
ATOM      1  O   UNL     1      -5.474   0.098  24.461  0.00  0.00    -0.276 OA
ATOM      6  N   UNL     1      -3.665   0.843  23.207  0.00  0.00    -0.311 N 
ATOM     16  C   UNL     1      -4.427  -0.117  23.857  0.00  0.00    +0.214 C 
ATOM     30  H   UNL     1      -2.815   0.564  22.726  0.00  0.00    +0.149 HD
BRANCH   6  19
ATOM     19  C   UNL     1      -4.024   2.241  23.166  0.00  0.00    +0.143 C 
BRANCH  19  21
ATOM     21  C   UNL     1      -3.375   3.020  24.273  0.00  0.00    +0.011 A 
ATOM     22  C   UNL     1      -4.134   3.527  25.328  0.00  0.00    +0.125 A 
ATOM     23  C   UNL     1      -1.997   3.235  24.239  0.00  0.00    +0.009 A 
ATOM     24  C   UNL     1      -3.516   4.249  26.348  0.00  0.00    +0.046 A 
ATOM     25  C   UNL     1      -1.378   3.957  25.260  0.00  0.00    +0.001 A 
ATOM     26  C   UNL     1      -2.137   4.465  26.314  0.00  0.00    +0.004 A 
BRANCH  22   4
ATOM      4  O   UNL     1      -5.480   3.326  25.377  0.00  0.00    -0.495 OA
ATOM     28  C   UNL     1      -5.965   2.423  26.369  0.00  0.00    +0.277 C 
ENDBRANCH  22   4
ENDBRANCH  19  21
ENDBRANCH   6  19
ENDBRANCH  14  16
ENDBRANCH   8  14
TORSDOF 9
ENDMDL
MODEL 2
REMARK VINA RESULT:      -3.9      1.667      4.619
REMARK  Name = 26743024
REMARK  11 active torsions:
REMARK  status: ('A' for Active; 'I' for Inactive)
REMARK    1  A    between atoms: O_3  and  C_20
REMARK    2  A    between atoms: O_3  and  C_27
REMARK    3  A    between atoms: O_4  and  C_22
REMARK    4  A    between atoms: O_4  and  C_28
REMARK    5  A    between atoms: N_6  and  C_19
REMARK    6  A    between atoms: C_8  and  C_14
REMARK    7  A    between atoms: C_9  and  C_13
REMARK    8  A    between atoms: C_13  and  C_15
REMARK    9  A    between atoms: C_14  and  C_16
REMARK   10  A    between atoms: C_18  and  C_20
REMARK   11  A    between atoms: C_19  and  C_21
REMARK                            x       y       z     vdW  Elec       q    Type
REMARK                         _______ _______ _______ _____ _____    ______ ____
ROOT
ATOM      5  N   UNL     1      -0.094   4.601  24.891  0.00  0.00    -0.316 NA
ATOM      8  C   UNL     1      -2.931   3.904  25.077  0.00  0.00    +0.004 C 
ATOM      9  C   UNL     1      -1.842   2.822  24.886  0.00  0.00    +0.012 C 
ATOM     10  C   UNL     1      -2.455   5.265  24.547  0.00  0.00    +0.019 C 
ATOM     11  C   UNL     1      -0.512   3.326  25.477  0.00  0.00    +0.085 C 
ATOM     12  C   UNL     1      -1.092   5.643  25.126  0.00  0.00    +0.081 C 
ATOM     29  H   UNL     1       0.059   4.492  23.890  0.00  0.00    +0.122 HD
ENDROOT
BRANCH   9  13
ATOM     13  C   UNL     1      -1.655   2.379  23.429  0.00  0.00    +0.064 C 
BRANCH  13  15
ATOM      2  O   UNL     1       0.414  -0.534  22.994  0.00  0.00    -0.357 OA
ATOM      7  N   UNL     1      -0.822   0.098  23.055  0.00  0.00    -0.083 NA
ATOM     15  C   UNL     1      -0.542   1.381  23.299  0.00  0.00    +0.084 A 
ATOM     17  C   UNL     1       0.841   1.615  23.400  0.00  0.00    +0.073 A 
ATOM     18  C   UNL     1       1.396   0.379  23.200  0.00  0.00    +0.163 A 
BRANCH  18  20
ATOM     20  C   UNL     1       2.775  -0.123  23.169  0.00  0.00    +0.236 C 
BRANCH  20   3
ATOM      3  O   UNL     1       3.700   0.967  23.124  0.00  0.00    -0.375 OA
ATOM     27  C   UNL     1       5.027   0.524  23.350  0.00  0.00    +0.194 C 
ENDBRANCH  20   3
ENDBRANCH  18  20
ENDBRANCH  13  15
ENDBRANCH   9  13
BRANCH   8  14
ATOM     14  C   UNL     1      -4.278   3.524  24.465  0.00  0.00    +0.099 C 
BRANCH  14  16
ATOM      1  O   UNL     1      -5.734   2.503  26.104  0.00  0.00    -0.276 OA
ATOM      6  N   UNL     1      -4.496   1.148  24.679  0.00  0.00    -0.311 N 
ATOM     16  C   UNL     1      -4.930   2.364  25.188  0.00  0.00    +0.214 C 
ATOM     30  H   UNL     1      -3.819   1.136  23.922  0.00  0.00    +0.149 HD
BRANCH   6  19
ATOM     19  C   UNL     1      -4.953  -0.126  25.182  0.00  0.00    +0.143 C 
BRANCH  19  21
ATOM     21  C   UNL     1      -4.041  -1.249  24.778  0.00  0.00    +0.011 A 
ATOM     22  C   UNL     1      -2.744  -1.331  25.283  0.00  0.00    +0.125 A 
ATOM     23  C   UNL     1      -4.506  -2.217  23.888  0.00  0.00    +0.009 A 
ATOM     24  C   UNL     1      -1.910  -2.380  24.898  0.00  0.00    +0.046 A 
ATOM     25  C   UNL     1      -3.672  -3.268  23.503  0.00  0.00    +0.001 A 
ATOM     26  C   UNL     1      -2.374  -3.349  24.007  0.00  0.00    +0.004 A 
BRANCH  22   4
ATOM      4  O   UNL     1      -2.275  -0.394  26.154  0.00  0.00    -0.495 OA
ATOM     28  C   UNL     1      -0.870  -0.385  26.401  0.00  0.00    +0.277 C 
ENDBRANCH  22   4
ENDBRANCH  19  21
ENDBRANCH   6  19
ENDBRANCH  14  16
ENDBRANCH   8  14
TORSDOF 9
ENDMDL
MODEL 3
REMARK VINA RESULT:      -3.4      1.604      4.548
REMARK  Name = 26743024
REMARK  11 active torsions:
REMARK  status: ('A' for Active; 'I' for Inactive)
REMARK    1  A    between atoms: O_3  and  C_20
REMARK    2  A    between atoms: O_3  and  C_27
REMARK    3  A    between atoms: O_4  and  C_22
REMARK    4  A    between atoms: O_4  and  C_28
REMARK    5  A    between atoms: N_6  and  C_19
REMARK    6  A    between atoms: C_8  and  C_14
REMARK    7  A    between atoms: C_9  and  C_13
REMARK    8  A    between atoms: C_13  and  C_15
REMARK    9  A    between atoms: C_14  and  C_16
REMARK   10  A    between atoms: C_18  and  C_20
REMARK   11  A    between atoms: C_19  and  C_21
REMARK                            x       y       z     vdW  Elec       q    Type
REMARK                         _______ _______ _______ _____ _____    ______ ____
ROOT
ATOM      5  N   UNL     1      -0.940   4.928  25.004  0.00  0.00    -0.316 NA
ATOM      8  C   UNL     1      -3.620   3.786  25.300  0.00  0.00    +0.004 C 
ATOM      9  C   UNL     1      -2.362   2.889  25.206  0.00  0.00    +0.012 C 
ATOM     10  C   UNL     1      -3.379   5.146  24.627  0.00  0.00    +0.019 C 
ATOM     11  C   UNL     1      -1.139   3.669  25.723  0.00  0.00    +0.085 C 
ATOM     12  C   UNL     1      -2.101   5.806  25.144  0.00  0.00    +0.081 C 
ATOM     29  H   UNL     1      -0.768   4.744  24.017  0.00  0.00    +0.122 HD
ENDROOT
BRANCH   9  13
ATOM     13  C   UNL     1      -2.098   2.336  23.799  0.00  0.00    +0.064 C 
BRANCH  13  15
ATOM      2  O   UNL     1       1.416   1.592  24.040  0.00  0.00    -0.357 OA
ATOM      7  N   UNL     1       0.292   2.337  24.373  0.00  0.00    -0.083 NA
ATOM     15  C   UNL     1      -0.708   1.782  23.682  0.00  0.00    +0.084 A 
ATOM     17  C   UNL     1      -0.278   0.692  22.905  0.00  0.00    +0.073 A 
ATOM     18  C   UNL     1       1.064   0.615  23.166  0.00  0.00    +0.163 A 
BRANCH  18  20
ATOM     20  C   UNL     1       2.140  -0.272  22.708  0.00  0.00    +0.236 C 
BRANCH  20   3
ATOM      3  O   UNL     1       3.211   0.494  22.150  0.00  0.00    -0.375 OA
ATOM     27  C   UNL     1       4.367   0.433  22.970  0.00  0.00    +0.194 C 
ENDBRANCH  20   3
ENDBRANCH  18  20
ENDBRANCH  13  15
ENDBRANCH   9  13
BRANCH   8  14
ATOM     14  C   UNL     1      -4.881   3.123  24.749  0.00  0.00    +0.099 C 
BRANCH  14  16
ATOM      1  O   UNL     1      -6.114   1.614  26.183  0.00  0.00    -0.276 OA
ATOM      6  N   UNL     1      -4.236   0.837  25.057  0.00  0.00    -0.311 N 
ATOM     16  C   UNL     1      -5.170   1.797  25.419  0.00  0.00    +0.214 C 
ATOM     30  H   UNL     1      -3.483   1.087  24.423  0.00  0.00    +0.149 HD
BRANCH   6  19
ATOM     19  C   UNL     1      -4.267  -0.521  25.548  0.00  0.00    +0.143 C 
BRANCH  19  21
ATOM     21  C   UNL     1      -2.931  -1.194  25.422  0.00  0.00    +0.011 A 
ATOM     22  C   UNL     1      -2.811  -2.424  24.774  0.00  0.00    +0.125 A 
ATOM     23  C   UNL     1      -1.802  -0.577  25.961  0.00  0.00    +0.009 A 
ATOM     24  C   UNL     1      -1.563  -3.036  24.665  0.00  0.00    +0.046 A 
ATOM     25  C   UNL     1      -0.553  -1.189  25.852  0.00  0.00    +0.001 A 
ATOM     26  C   UNL     1      -0.433  -2.419  25.205  0.00  0.00    +0.004 A 
BRANCH  22   4
ATOM      4  O   UNL     1      -3.903  -3.040  24.241  0.00  0.00    -0.495 OA
ATOM     28  C   UNL     1      -4.572  -2.367  23.177  0.00  0.00    +0.277 C 
ENDBRANCH  22   4
ENDBRANCH  19  21
ENDBRANCH   6  19
ENDBRANCH  14  16
ENDBRANCH   8  14
TORSDOF 9
ENDMDL
MODEL 4
REMARK VINA RESULT:      -2.8      1.660      2.250
REMARK  Name = 26743024
REMARK  11 active torsions:
REMARK  status: ('A' for Active; 'I' for Inactive)
REMARK    1  A    between atoms: O_3  and  C_20
REMARK    2  A    between atoms: O_3  and  C_27
REMARK    3  A    between atoms: O_4  and  C_22
REMARK    4  A    between atoms: O_4  and  C_28
REMARK    5  A    between atoms: N_6  and  C_19
REMARK    6  A    between atoms: C_8  and  C_14
REMARK    7  A    between atoms: C_9  and  C_13
REMARK    8  A    between atoms: C_13  and  C_15
REMARK    9  A    between atoms: C_14  and  C_16
REMARK   10  A    between atoms: C_18  and  C_20
REMARK   11  A    between atoms: C_19  and  C_21
REMARK                            x       y       z     vdW  Elec       q    Type
REMARK                         _______ _______ _______ _____ _____    ______ ____
ROOT
ATOM      5  N   UNL     1      -0.595  -1.236  26.198  0.00  0.00    -0.316 NA
ATOM      8  C   UNL     1      -2.764  -0.861  24.267  0.00  0.00    +0.004 C 
ATOM      9  C   UNL     1      -1.281  -0.895  23.825  0.00  0.00    +0.012 C 
ATOM     10  C   UNL     1      -2.891  -0.428  25.735  0.00  0.00    +0.019 C 
ATOM     11  C   UNL     1      -0.468  -1.734  24.828  0.00  0.00    +0.085 C 
ATOM     12  C   UNL     1      -1.988  -1.263  26.643  0.00  0.00    +0.081 C 
ATOM     29  H   UNL     1      -0.235  -0.285  26.260  0.00  0.00    +0.122 HD
ENDROOT
BRANCH   9  13
ATOM     13  C   UNL     1      -0.655   0.494  23.646  0.00  0.00    +0.064 C 
BRANCH  13  15
ATOM      2  O   UNL     1       2.354  -0.223  21.804  0.00  0.00    -0.357 OA
ATOM      7  N   UNL     1       0.991  -0.361  22.033  0.00  0.00    -0.083 NA
ATOM     15  C   UNL     1       0.742   0.398  23.104  0.00  0.00    +0.084 A 
ATOM     17  C   UNL     1       1.899   1.034  23.587  0.00  0.00    +0.073 A 
ATOM     18  C   UNL     1       2.884   0.610  22.735  0.00  0.00    +0.163 A 
BRANCH  18  20
ATOM     20  C   UNL     1       4.325   0.869  22.639  0.00  0.00    +0.236 C 
BRANCH  20   3
ATOM      3  O   UNL     1       4.950   0.679  23.912  0.00  0.00    -0.375 OA
ATOM     27  C   UNL     1       5.340  -0.672  24.095  0.00  0.00    +0.194 C 
ENDBRANCH  20   3
ENDBRANCH  18  20
ENDBRANCH  13  15
ENDBRANCH   9  13
BRANCH   8  14
ATOM     14  C   UNL     1      -3.646   0.003  23.367  0.00  0.00    +0.099 C 
BRANCH  14  16
ATOM      1  O   UNL     1      -3.411   2.382  23.003  0.00  0.00    -0.276 OA
ATOM      6  N   UNL     1      -3.901   1.599  25.135  0.00  0.00    -0.311 N 
ATOM     16  C   UNL     1      -3.633   1.459  23.780  0.00  0.00    +0.214 C 
ATOM     30  H   UNL     1      -4.065   0.771  25.700  0.00  0.00    +0.149 HD
BRANCH   6  19
ATOM     19  C   UNL     1      -3.951   2.879  25.802  0.00  0.00    +0.143 C 
BRANCH  19  21
ATOM     21  C   UNL     1      -2.814   3.770  25.393  0.00  0.00    +0.011 A 
ATOM     22  C   UNL     1      -1.492   3.388  25.618  0.00  0.00    +0.125 A 
ATOM     23  C   UNL     1      -3.092   4.992  24.781  0.00  0.00    +0.009 A 
ATOM     24  C   UNL     1      -0.447   4.227  25.233  0.00  0.00    +0.046 A 
ATOM     25  C   UNL     1      -2.047   5.832  24.394  0.00  0.00    +0.001 A 
ATOM     26  C   UNL     1      -0.725   5.450  24.621  0.00  0.00    +0.004 A 
BRANCH  22   4
ATOM      4  O   UNL     1      -1.203   2.197  26.214  0.00  0.00    -0.495 OA
ATOM     28  C   UNL     1       0.065   2.085  26.858  0.00  0.00    +0.277 C 
ENDBRANCH  22   4
ENDBRANCH  19  21
ENDBRANCH   6  19
ENDBRANCH  14  16
ENDBRANCH   8  14
TORSDOF 9
ENDMDL
MODEL 5
REMARK VINA RESULT:      -2.7      1.628      4.470
REMARK  Name = 26743024
REMARK  11 active torsions:
REMARK  status: ('A' for Active; 'I' for Inactive)
REMARK    1  A    between atoms: O_3  and  C_20
REMARK    2  A    between atoms: O_3  and  C_27
REMARK    3  A    between atoms: O_4  and  C_22
REMARK    4  A    between atoms: O_4  and  C_28
REMARK    5  A    between atoms: N_6  and  C_19
REMARK    6  A    between atoms: C_8  and  C_14
REMARK    7  A    between atoms: C_9  and  C_13
REMARK    8  A    between atoms: C_13  and  C_15
REMARK    9  A    between atoms: C_14  and  C_16
REMARK   10  A    between atoms: C_18  and  C_20
REMARK   11  A    between atoms: C_19  and  C_21
REMARK                            x       y       z     vdW  Elec       q    Type
REMARK                         _______ _______ _______ _____ _____    ______ ____
ROOT
ATOM      5  N   UNL     1      -3.552   2.355  22.974  0.00  0.00    -0.316 NA
ATOM      8  C   UNL     1      -1.264   3.473  24.418  0.00  0.00    +0.004 C 
ATOM      9  C   UNL     1      -1.076   2.573  23.172  0.00  0.00    +0.012 C 
ATOM     10  C   UNL     1      -2.606   3.187  25.107  0.00  0.00    +0.019 C 
ATOM     11  C   UNL     1      -2.315   2.690  22.266  0.00  0.00    +0.085 C 
ATOM     12  C   UNL     1      -3.767   3.245  24.114  0.00  0.00    +0.081 C 
ATOM     29  H   UNL     1      -3.520   1.389  23.296  0.00  0.00    +0.122 HD
ENDROOT
BRANCH   9  13
ATOM     13  C   UNL     1      -0.784   1.104  23.506  0.00  0.00    +0.064 C 
BRANCH  13  15
ATOM      2  O   UNL     1       2.146  -0.439  22.095  0.00  0.00    -0.357 OA
ATOM      7  N   UNL     1       0.775  -0.369  22.306  0.00  0.00    -0.083 NA
ATOM     15  C   UNL     1       0.599   0.710  23.074  0.00  0.00    +0.084 A 
ATOM     17  C   UNL     1       1.812   1.354  23.376  0.00  0.00    +0.073 A 
ATOM     18  C   UNL     1       2.753   0.591  22.737  0.00  0.00    +0.163 A 
BRANCH  18  20
ATOM     20  C   UNL     1       4.214   0.668  22.618  0.00  0.00    +0.236 C 
BRANCH  20   3
ATOM      3  O   UNL     1       4.819   0.653  23.914  0.00  0.00    -0.375 OA
ATOM     27  C   UNL     1       5.469  -0.583  24.162  0.00  0.00    +0.194 C 
ENDBRANCH  20   3
ENDBRANCH  18  20
ENDBRANCH  13  15
ENDBRANCH   9  13
BRANCH   8  14
ATOM     14  C   UNL     1      -0.110   3.378  25.415  0.00  0.00    +0.099 C 
BRANCH  14  16
ATOM      1  O   UNL     1       0.200   2.194  27.501  0.00  0.00    -0.276 OA
ATOM      6  N   UNL     1      -1.006   1.188  25.788  0.00  0.00    -0.311 N 
ATOM     16  C   UNL     1      -0.270   2.212  26.367  0.00  0.00    +0.214 C 
ATOM     30  H   UNL     1      -1.346   1.294  24.837  0.00  0.00    +0.149 HD
BRANCH   6  19
ATOM     19  C   UNL     1      -1.312  -0.048  26.470  0.00  0.00    +0.143 C 
BRANCH  19  21
ATOM     21  C   UNL     1      -2.097  -0.988  25.602  0.00  0.00    +0.011 A 
ATOM     22  C   UNL     1      -3.420  -0.706  25.260  0.00  0.00    +0.125 A 
ATOM     23  C   UNL     1      -1.490  -2.155  25.137  0.00  0.00    +0.009 A 
ATOM     24  C   UNL     1      -4.135  -1.590  24.453  0.00  0.00    +0.046 A 
ATOM     25  C   UNL     1      -2.206  -3.039  24.329  0.00  0.00    +0.001 A 
ATOM     26  C   UNL     1      -3.529  -2.758  23.988  0.00  0.00    +0.004 A 
BRANCH  22   4
ATOM      4  O   UNL     1      -4.028   0.429  25.705  0.00  0.00    -0.495 OA
ATOM     28  C   UNL     1      -5.385   0.631  25.318  0.00  0.00    +0.277 C 
ENDBRANCH  22   4
ENDBRANCH  19  21
ENDBRANCH   6  19
ENDBRANCH  14  16
ENDBRANCH   8  14
TORSDOF 9
ENDMDL
MODEL 6
REMARK VINA RESULT:      -2.7      1.684      2.464
REMARK  Name = 26743024
REMARK  11 active torsions:
REMARK  status: ('A' for Active; 'I' for Inactive)
REMARK    1  A    between atoms: O_3  and  C_20
REMARK    2  A    between atoms: O_3  and  C_27
REMARK    3  A    between atoms: O_4  and  C_22
REMARK    4  A    between atoms: O_4  and  C_28
REMARK    5  A    between atoms: N_6  and  C_19
REMARK    6  A    between atoms: C_8  and  C_14
REMARK    7  A    between atoms: C_9  and  C_13
REMARK    8  A    between atoms: C_13  and  C_15
REMARK    9  A    between atoms: C_14  and  C_16
REMARK   10  A    between atoms: C_18  and  C_20
REMARK   11  A    between atoms: C_19  and  C_21
REMARK                            x       y       z     vdW  Elec       q    Type
REMARK                         _______ _______ _______ _____ _____    ______ ____
ROOT
ATOM      5  N   UNL     1      -1.715  -2.714  24.239  0.00  0.00    -0.316 NA
ATOM      8  C   UNL     1      -3.973  -1.014  25.004  0.00  0.00    +0.004 C 
ATOM      9  C   UNL     1      -2.702  -0.426  24.345  0.00  0.00    +0.012 C 
ATOM     10  C   UNL     1      -3.659  -2.333  25.727  0.00  0.00    +0.019 C 
ATOM     11  C   UNL     1      -2.032  -1.505  23.476  0.00  0.00    +0.085 C 
ATOM     12  C   UNL     1      -2.922  -3.309  24.810  0.00  0.00    +0.081 C 
ATOM     29  H   UNL     1      -1.057  -2.494  24.985  0.00  0.00    +0.122 HD
ENDROOT
BRANCH   9  13
ATOM     13  C   UNL     1      -1.700   0.165  25.346  0.00  0.00    +0.064 C 
BRANCH  13  15
ATOM      2  O   UNL     1       1.355   1.688  24.203  0.00  0.00    -0.357 OA
ATOM      7  N   UNL     1       0.210   1.670  24.990  0.00  0.00    -0.083 NA
ATOM     15  C   UNL     1      -0.407   0.527  24.676  0.00  0.00    +0.084 A 
ATOM     17  C   UNL     1       0.296  -0.209  23.706  0.00  0.00    +0.073 A 
ATOM     18  C   UNL     1       1.395   0.565  23.443  0.00  0.00    +0.163 A 
BRANCH  18  20
ATOM     20  C   UNL     1       2.548   0.422  22.546  0.00  0.00    +0.236 C 
BRANCH  20   3
ATOM      3  O   UNL     1       3.661   1.169  23.045  0.00  0.00    -0.375 OA
ATOM     27  C   UNL     1       4.823   0.361  23.131  0.00  0.00    +0.194 C 
ENDBRANCH  20   3
ENDBRANCH  18  20
ENDBRANCH  13  15
ENDBRANCH   9  13
BRANCH   8  14
ATOM     14  C   UNL     1      -4.679  -0.036  25.942  0.00  0.00    +0.099 C 
BRANCH  14  16
ATOM      1  O   UNL     1      -5.719   1.490  24.379  0.00  0.00    -0.276 OA
ATOM      6  N   UNL     1      -4.117   2.291  25.859  0.00  0.00    -0.311 N 
ATOM     16  C   UNL     1      -4.917   1.310  25.291  0.00  0.00    +0.214 C 
ATOM     30  H   UNL     1      -3.476   2.042  26.607  0.00  0.00    +0.149 HD
BRANCH   6  19
ATOM     19  C   UNL     1      -4.136   3.671  25.432  0.00  0.00    +0.143 C 
BRANCH  19  21
ATOM     21  C   UNL     1      -2.811   4.104  24.874  0.00  0.00    +0.011 A 
ATOM     22  C   UNL     1      -2.309   3.533  23.704  0.00  0.00    +0.125 A 
ATOM     23  C   UNL     1      -2.080   5.089  25.539  0.00  0.00    +0.009 A 
ATOM     24  C   UNL     1      -1.077   3.947  23.199  0.00  0.00    +0.046 A 
ATOM     25  C   UNL     1      -0.848   5.504  25.033  0.00  0.00    +0.001 A 
ATOM     26  C   UNL     1      -0.346   4.932  23.864  0.00  0.00    +0.004 A 
BRANCH  22   4
ATOM      4  O   UNL     1      -3.010   2.571  23.042  0.00  0.00    -0.495 OA
ATOM     28  C   UNL     1      -2.402   2.010  21.880  0.00  0.00    +0.277 C 
ENDBRANCH  22   4
ENDBRANCH  19  21
ENDBRANCH   6  19
ENDBRANCH  14  16
ENDBRANCH   8  14
TORSDOF 9
ENDMDL
MODEL 7
REMARK VINA RESULT:      -2.4      2.216      5.531
REMARK  Name = 26743024
REMARK  11 active torsions:
REMARK  status: ('A' for Active; 'I' for Inactive)
REMARK    1  A    between atoms: O_3  and  C_20
REMARK    2  A    between atoms: O_3  and  C_27
REMARK    3  A    between atoms: O_4  and  C_22
REMARK    4  A    between atoms: O_4  and  C_28
REMARK    5  A    between atoms: N_6  and  C_19
REMARK    6  A    between atoms: C_8  and  C_14
REMARK    7  A    between atoms: C_9  and  C_13
REMARK    8  A    between atoms: C_13  and  C_15
REMARK    9  A    between atoms: C_14  and  C_16
REMARK   10  A    between atoms: C_18  and  C_20
REMARK   11  A    between atoms: C_19  and  C_21
REMARK                            x       y       z     vdW  Elec       q    Type
REMARK                         _______ _______ _______ _____ _____    ______ ____
ROOT
ATOM      5  N   UNL     1      -4.346  -2.079  23.995  0.00  0.00    -0.316 NA
ATOM      8  C   UNL     1      -1.638  -2.000  25.106  0.00  0.00    +0.004 C 
ATOM      9  C   UNL     1      -2.546  -0.746  25.093  0.00  0.00    +0.012 C 
ATOM     10  C   UNL     1      -2.039  -2.982  23.996  0.00  0.00    +0.019 C 
ATOM     11  C   UNL     1      -4.022  -1.186  25.109  0.00  0.00    +0.085 C 
ATOM     12  C   UNL     1      -3.535  -3.295  24.041  0.00  0.00    +0.081 C 
ATOM     29  H   UNL     1      -4.196  -1.602  23.108  0.00  0.00    +0.122 HD
ENDROOT
BRANCH   9  13
ATOM     13  C   UNL     1      -2.275   0.205  23.920  0.00  0.00    +0.064 C 
BRANCH  13  15
ATOM      2  O   UNL     1      -4.090   3.263  23.363  0.00  0.00    -0.357 OA
ATOM      7  N   UNL     1      -3.238   2.247  22.950  0.00  0.00    -0.083 NA
ATOM     15  C   UNL     1      -3.131   1.435  24.005  0.00  0.00    +0.084 A 
ATOM     17  C   UNL     1      -3.887   1.884  25.102  0.00  0.00    +0.073 A 
ATOM     18  C   UNL     1      -4.470   3.036  24.646  0.00  0.00    +0.163 A 
BRANCH  18  20
ATOM     20  C   UNL     1      -5.379   4.021  25.244  0.00  0.00    +0.236 C 
BRANCH  20   3
ATOM      3  O   UNL     1      -6.006   3.476  26.408  0.00  0.00    -0.375 OA
ATOM     27  C   UNL     1      -6.435   2.144  26.183  0.00  0.00    +0.194 C 
ENDBRANCH  20   3
ENDBRANCH  18  20
ENDBRANCH  13  15
ENDBRANCH   9  13
BRANCH   8  14
ATOM     14  C   UNL     1      -0.148  -1.670  25.028  0.00  0.00    +0.099 C 
BRANCH  14  16
ATOM      1  O   UNL     1       0.071  -0.681  22.832  0.00  0.00    -0.276 OA
ATOM      6  N   UNL     1       0.490   0.617  24.713  0.00  0.00    -0.311 N 
ATOM     16  C   UNL     1       0.141  -0.551  24.050  0.00  0.00    +0.214 C 
ATOM     30  H   UNL     1       0.528   0.623  25.728  0.00  0.00    +0.149 HD
BRANCH   6  19
ATOM     19  C   UNL     1       0.819   1.845  24.028  0.00  0.00    +0.143 C 
BRANCH  19  21
ATOM     21  C   UNL     1      -0.039   2.990  24.483  0.00  0.00    +0.011 A 
ATOM     22  C   UNL     1      -0.561   3.020  25.776  0.00  0.00    +0.125 A 
ATOM     23  C   UNL     1      -0.312   4.031  23.596  0.00  0.00    +0.009 A 
ATOM     24  C   UNL     1      -1.357   4.091  26.182  0.00  0.00    +0.046 A 
ATOM     25  C   UNL     1      -1.108   5.103  24.003  0.00  0.00    +0.001 A 
ATOM     26  C   UNL     1      -1.631   5.132  25.295  0.00  0.00    +0.004 A 
BRANCH  22   4
ATOM      4  O   UNL     1      -0.304   2.011  26.655  0.00  0.00    -0.495 OA
ATOM     28  C   UNL     1       0.494   2.331  27.793  0.00  0.00    +0.277 C 
ENDBRANCH  22   4
ENDBRANCH  19  21
ENDBRANCH   6  19
ENDBRANCH  14  16
ENDBRANCH   8  14
TORSDOF 9
ENDMDL
MODEL 8
REMARK VINA RESULT:      -1.3      1.924      6.200
REMARK  Name = 26743024
REMARK  11 active torsions:
REMARK  status: ('A' for Active; 'I' for Inactive)
REMARK    1  A    between atoms: O_3  and  C_20
REMARK    2  A    between atoms: O_3  and  C_27
REMARK    3  A    between atoms: O_4  and  C_22
REMARK    4  A    between atoms: O_4  and  C_28
REMARK    5  A    between atoms: N_6  and  C_19
REMARK    6  A    between atoms: C_8  and  C_14
REMARK    7  A    between atoms: C_9  and  C_13
REMARK    8  A    between atoms: C_13  and  C_15
REMARK    9  A    between atoms: C_14  and  C_16
REMARK   10  A    between atoms: C_18  and  C_20
REMARK   11  A    between atoms: C_19  and  C_21
REMARK                            x       y       z     vdW  Elec       q    Type
REMARK                         _______ _______ _______ _____ _____    ______ ____
ROOT
ATOM      5  N   UNL     1      -5.569   1.930  25.131  0.00  0.00    -0.316 NA
ATOM      8  C   UNL     1      -3.823   4.221  24.609  0.00  0.00    +0.004 C 
ATOM      9  C   UNL     1      -4.032   3.105  23.558  0.00  0.00    +0.012 C 
ATOM     10  C   UNL     1      -4.083   3.697  26.029  0.00  0.00    +0.019 C 
ATOM     11  C   UNL     1      -5.410   2.452  23.773  0.00  0.00    +0.085 C 
ATOM     12  C   UNL     1      -5.438   2.994  26.125  0.00  0.00    +0.081 C 
ATOM     29  H   UNL     1      -4.876   1.206  25.311  0.00  0.00    +0.122 HD
ENDROOT
BRANCH   9  13
ATOM     13  C   UNL     1      -2.923   2.044  23.551  0.00  0.00    +0.064 C 
BRANCH  13  15
ATOM      2  O   UNL     1      -4.205  -0.872  25.229  0.00  0.00    -0.357 OA
ATOM      7  N   UNL     1      -3.742   0.438  25.221  0.00  0.00    -0.083 NA
ATOM     15  C   UNL     1      -3.455   0.696  23.942  0.00  0.00    +0.084 A 
ATOM     17  C   UNL     1      -3.715  -0.403  23.105  0.00  0.00    +0.073 A 
ATOM     18  C   UNL     1      -4.184  -1.363  23.963  0.00  0.00    +0.163 A 
BRANCH  18  20
ATOM     20  C   UNL     1      -4.644  -2.745  23.789  0.00  0.00    +0.236 C 
BRANCH  20   3
ATOM      3  O   UNL     1      -3.729  -3.655  24.406  0.00  0.00    -0.375 OA
ATOM     27  C   UNL     1      -2.465  -3.624  23.765  0.00  0.00    +0.194 C 
ENDBRANCH  20   3
ENDBRANCH  18  20
ENDBRANCH  13  15
ENDBRANCH   9  13
BRANCH   8  14
ATOM     14  C   UNL     1      -2.453   4.891  24.520  0.00  0.00    +0.099 C 
BRANCH  14  16
ATOM      1  O   UNL     1      -1.213   3.924  26.358  0.00  0.00    -0.276 OA
ATOM      6  N   UNL     1      -0.570   3.451  24.176  0.00  0.00    -0.311 N 
ATOM     16  C   UNL     1      -1.362   4.049  25.146  0.00  0.00    +0.214 C 
ATOM     30  H   UNL     1      -0.768   3.622  23.194  0.00  0.00    +0.149 HD
BRANCH   6  19
ATOM     19  C   UNL     1       0.549   2.593  24.488  0.00  0.00    +0.143 C 
BRANCH  19  21
ATOM     21  C   UNL     1       0.115   1.182  24.761  0.00  0.00    +0.011 A 
ATOM     22  C   UNL     1       0.337   0.174  23.824  0.00  0.00    +0.125 A 
ATOM     23  C   UNL     1      -0.514   0.884  25.970  0.00  0.00    +0.009 A 
ATOM     24  C   UNL     1      -0.072  -1.132  24.093  0.00  0.00    +0.046 A 
ATOM     25  C   UNL     1      -0.923  -0.422  26.241  0.00  0.00    +0.001 A 
ATOM     26  C   UNL     1      -0.703  -1.430  25.302  0.00  0.00    +0.004 A 
BRANCH  22   4
ATOM      4  O   UNL     1       0.951   0.447  22.639  0.00  0.00    -0.495 OA
ATOM     28  C   UNL     1       2.299   0.007  22.491  0.00  0.00    +0.277 C 
ENDBRANCH  22   4
ENDBRANCH  19  21
ENDBRANCH   6  19
ENDBRANCH  14  16
ENDBRANCH   8  14
TORSDOF 9
ENDMDL
MODEL 9
REMARK VINA RESULT:      -1.0      2.533      4.652
REMARK  Name = 26743024
REMARK  11 active torsions:
REMARK  status: ('A' for Active; 'I' for Inactive)
REMARK    1  A    between atoms: O_3  and  C_20
REMARK    2  A    between atoms: O_3  and  C_27
REMARK    3  A    between atoms: O_4  and  C_22
REMARK    4  A    between atoms: O_4  and  C_28
REMARK    5  A    between atoms: N_6  and  C_19
REMARK    6  A    between atoms: C_8  and  C_14
REMARK    7  A    between atoms: C_9  and  C_13
REMARK    8  A    between atoms: C_13  and  C_15
REMARK    9  A    between atoms: C_14  and  C_16
REMARK   10  A    between atoms: C_18  and  C_20
REMARK   11  A    between atoms: C_19  and  C_21
REMARK                            x       y       z     vdW  Elec       q    Type
REMARK                         _______ _______ _______ _____ _____    ______ ____
ROOT
ATOM      5  N   UNL     1       1.681   0.731  23.353  0.00  0.00    -0.316 NA
ATOM      8  C   UNL     1      -0.322  -1.310  23.981  0.00  0.00    +0.004 C 
ATOM      9  C   UNL     1      -0.644   0.200  24.084  0.00  0.00    +0.012 C 
ATOM     10  C   UNL     1       1.184  -1.565  24.140  0.00  0.00    +0.019 C 
ATOM     11  C   UNL     1       0.259   0.982  23.112  0.00  0.00    +0.085 C 
ATOM     12  C   UNL     1       2.002  -0.687  23.193  0.00  0.00    +0.081 C 
ATOM     29  H   UNL     1       1.936   1.035  24.291  0.00  0.00    +0.122 HD
ENDROOT
BRANCH   9  13
ATOM     13  C   UNL     1      -0.526   0.764  25.506  0.00  0.00    +0.064 C 
BRANCH  13  15
ATOM      2  O   UNL     1      -1.739   4.083  26.194  0.00  0.00    -0.357 OA
ATOM      7  N   UNL     1      -1.695   2.716  26.436  0.00  0.00    -0.083 NA
ATOM     15  C   UNL     1      -0.831   2.233  25.539  0.00  0.00    +0.084 A 
ATOM     17  C   UNL     1      -0.303   3.240  24.712  0.00  0.00    +0.073 A 
ATOM     18  C   UNL     1      -0.906   4.384  25.165  0.00  0.00    +0.163 A 
BRANCH  18  20
ATOM     20  C   UNL     1      -0.831   5.796  24.774  0.00  0.00    +0.236 C 
BRANCH  20   3
ATOM      3  O   UNL     1      -2.110   6.421  24.920  0.00  0.00    -0.375 OA
ATOM     27  C   UNL     1      -2.807   6.457  23.686  0.00  0.00    +0.194 C 
ENDBRANCH  20   3
ENDBRANCH  18  20
ENDBRANCH  13  15
ENDBRANCH   9  13
BRANCH   8  14
ATOM     14  C   UNL     1      -1.125  -2.169  24.956  0.00  0.00    +0.099 C 
BRANCH  14  16
ATOM      1  O   UNL     1      -3.285  -3.062  24.335  0.00  0.00    -0.276 OA
ATOM      6  N   UNL     1      -3.100  -0.816  24.903  0.00  0.00    -0.311 N 
ATOM     16  C   UNL     1      -2.613  -2.098  24.692  0.00  0.00    +0.214 C 
ATOM     30  H   UNL     1      -2.462  -0.080  25.190  0.00  0.00    +0.149 HD
BRANCH   6  19
ATOM     19  C   UNL     1      -4.488  -0.459  24.724  0.00  0.00    +0.143 C 
BRANCH  19  21
ATOM     21  C   UNL     1      -4.703   1.024  24.823  0.00  0.00    +0.011 A 
ATOM     22  C   UNL     1      -4.037   1.900  23.967  0.00  0.00    +0.125 A 
ATOM     23  C   UNL     1      -5.583   1.522  25.785  0.00  0.00    +0.009 A 
ATOM     24  C   UNL     1      -4.249   3.274  24.072  0.00  0.00    +0.046 A 
ATOM     25  C   UNL     1      -5.795   2.897  25.890  0.00  0.00    +0.001 A 
ATOM     26  C   UNL     1      -5.127   3.773  25.034  0.00  0.00    +0.004 A 
BRANCH  22   4
ATOM      4  O   UNL     1      -3.175   1.430  23.022  0.00  0.00    -0.495 OA
ATOM     28  C   UNL     1      -2.760   2.346  22.011  0.00  0.00    +0.277 C 
ENDBRANCH  22   4
ENDBRANCH  19  21
ENDBRANCH   6  19
ENDBRANCH  14  16
ENDBRANCH   8  14
TORSDOF 9
ENDMDL
MODEL 10
REMARK VINA RESULT:      -1.0      1.762      6.745
REMARK  Name = 26743024
REMARK  11 active torsions:
REMARK  status: ('A' for Active; 'I' for Inactive)
REMARK    1  A    between atoms: O_3  and  C_20
REMARK    2  A    between atoms: O_3  and  C_27
REMARK    3  A    between atoms: O_4  and  C_22
REMARK    4  A    between atoms: O_4  and  C_28
REMARK    5  A    between atoms: N_6  and  C_19
REMARK    6  A    between atoms: C_8  and  C_14
REMARK    7  A    between atoms: C_9  and  C_13
REMARK    8  A    between atoms: C_13  and  C_15
REMARK    9  A    between atoms: C_14  and  C_16
REMARK   10  A    between atoms: C_18  and  C_20
REMARK   11  A    between atoms: C_19  and  C_21
REMARK                            x       y       z     vdW  Elec       q    Type
REMARK                         _______ _______ _______ _____ _____    ______ ____
ROOT
ATOM      5  N   UNL     1      -3.610  -3.165  24.174  0.00  0.00    -0.316 NA
ATOM      8  C   UNL     1      -1.806  -1.158  25.310  0.00  0.00    +0.004 C 
ATOM      9  C   UNL     1      -3.344  -0.998  25.379  0.00  0.00    +0.012 C 
ATOM     10  C   UNL     1      -1.398  -2.051  24.129  0.00  0.00    +0.019 C 
ATOM     11  C   UNL     1      -4.004  -2.389  25.351  0.00  0.00    +0.085 C 
ATOM     12  C   UNL     1      -2.163  -3.375  24.140  0.00  0.00    +0.081 C 
ATOM     29  H   UNL     1      -3.907  -2.688  23.325  0.00  0.00    +0.122 HD
ENDROOT
BRANCH   9  13
ATOM     13  C   UNL     1      -3.925  -0.099  24.279  0.00  0.00    +0.064 C 
BRANCH  13  15
ATOM      2  O   UNL     1      -5.221   2.929  25.731  0.00  0.00    -0.357 OA
ATOM      7  N   UNL     1      -5.323   1.585  25.397  0.00  0.00    -0.083 NA
ATOM     15  C   UNL     1      -4.172   1.292  24.785  0.00  0.00    +0.084 A 
ATOM     17  C   UNL     1      -3.313   2.402  24.706  0.00  0.00    +0.073 A 
ATOM     18  C   UNL     1      -4.020   3.405  25.315  0.00  0.00    +0.163 A 
BRANCH  18  20
ATOM     20  C   UNL     1      -3.745   4.820  25.591  0.00  0.00    +0.236 C 
BRANCH  20   3
ATOM      3  O   UNL     1      -2.443   4.971  26.164  0.00  0.00    -0.375 OA
ATOM     27  C   UNL     1      -1.459   5.157  25.160  0.00  0.00    +0.194 C 
ENDBRANCH  20   3
ENDBRANCH  18  20
ENDBRANCH  13  15
ENDBRANCH   9  13
BRANCH   8  14
ATOM     14  C   UNL     1      -1.059   0.174  25.268  0.00  0.00    +0.099 C 
BRANCH  14  16
ATOM      1  O   UNL     1      -0.802   1.103  23.049  0.00  0.00    -0.276 OA
ATOM      6  N   UNL     1       0.843  -0.305  23.893  0.00  0.00    -0.311 N 
ATOM     16  C   UNL     1      -0.355   0.394  23.946  0.00  0.00    +0.214 C 
ATOM     30  H   UNL     1       1.125  -0.874  24.685  0.00  0.00    +0.149 HD
BRANCH   6  19
ATOM     19  C   UNL     1       1.722  -0.280  22.748  0.00  0.00    +0.143 C 
BRANCH  19  21
ATOM     21  C   UNL     1       3.166  -0.374  23.146  0.00  0.00    +0.011 A 
ATOM     22  C   UNL     1       4.003   0.739  23.064  0.00  0.00    +0.125 A 
ATOM     23  C   UNL     1       3.670  -1.592  23.603  0.00  0.00    +0.009 A 
ATOM     24  C   UNL     1       5.342   0.635  23.439  0.00  0.00    +0.046 A 
ATOM     25  C   UNL     1       5.010  -1.696  23.979  0.00  0.00    +0.001 A 
ATOM     26  C   UNL     1       5.846  -0.583  23.895  0.00  0.00    +0.004 A 
BRANCH  22   4
ATOM      4  O   UNL     1       3.528   1.937  22.621  0.00  0.00    -0.495 OA
ATOM     28  C   UNL     1       2.261   2.357  23.122  0.00  0.00    +0.277 C 
ENDBRANCH  22   4
ENDBRANCH  19  21
ENDBRANCH   6  19
ENDBRANCH  14  16
ENDBRANCH   8  14
TORSDOF 9
ENDMDL
