MODEL 1
REMARK VINA RESULT:      -5.1      0.000      0.000
REMARK  Name = 38029777
REMARK  12 active torsions:
REMARK  status: ('A' for Active; 'I' for Inactive)
REMARK    1  A    between atoms: O_1  and  C_18
REMARK    2  A    between atoms: O_1  and  C_21
REMARK    3  A    between atoms: N_4  and  C_13
REMARK    4  A    between atoms: C_6  and  C_10
REMARK    5  A    between atoms: C_7  and  C_13
REMARK    6  A    between atoms: C_9  and  C_14
REMARK    7  A    between atoms: C_10  and  C_15
REMARK    8  A    between atoms: C_10  and  C_16
REMARK    9  A    between atoms: C_11  and  C_17
REMARK   10  A    between atoms: C_14  and  C_18
REMARK   11  A    between atoms: C_19  and  C_20
REMARK   12  A    between atoms: C_21  and  C_24
REMARK                            x       y       z     vdW  Elec       q    Type
REMARK                         _______ _______ _______ _____ _____    ______ ____
ROOT
ATOM      6  C   UNL     1      -1.985   1.569  24.983  0.00  0.00    +0.000 C 
ATOM      7  C   UNL     1      -1.058   0.398  24.573  0.00  0.00    +0.032 C 
ATOM      8  C   UNL     1      -3.091   1.073  25.926  0.00  0.00    +0.012 C 
ATOM      9  C   UNL     1      -3.953  -0.031  25.283  0.00  0.00    +0.025 C 
ATOM     11  C   UNL     1      -3.103  -1.095  24.618  0.00  0.00    -0.073 C 
ATOM     12  C   UNL     1      -1.807  -0.890  24.321  0.00  0.00    -0.022 C 
ATOM     17  C   UNL     1      -3.763  -2.417  24.345  0.00  0.00    +0.039 C 
ENDROOT
BRANCH   6  10
ATOM     10  C   UNL     1      -1.205   2.705  25.651  0.00  0.00    -0.013 C 
ATOM     15  C   UNL     1       0.004   2.153  26.400  0.00  0.00    +0.007 C 
ATOM     16  C   UNL     1      -0.774   3.737  24.612  0.00  0.00    +0.007 C 
ENDBRANCH   6  10
BRANCH   7  13
ATOM     13  C   UNL     1      -0.228   0.757  23.335  0.00  0.00    +0.112 C 
BRANCH  13   4
ATOM      3  O   UNL     1       1.686  -0.415  21.545  0.00  0.00    -0.270 OA
ATOM      4  N   UNL     1       1.165   0.564  23.583  0.00  0.00    -0.311 N 
ATOM     19  C   UNL     1       2.029  -0.016  22.655  0.00  0.00    +0.244 C 
ATOM     27  H   UNL     1       1.519   0.866  24.485  0.00  0.00    +0.149 HD
BRANCH  19  20
ATOM      5  N   UNL     1       6.108  -0.458  23.875  0.00  0.00    -0.263 NA
ATOM     20  C   UNL     1       3.444  -0.170  23.076  0.00  0.00    +0.040 A 
ATOM     22  C   UNL     1       3.882  -1.367  23.633  0.00  0.00    +0.033 A 
ATOM     23  C   UNL     1       4.339   0.884  22.919  0.00  0.00    +0.033 A 
ATOM     25  C   UNL     1       5.211  -1.459  24.013  0.00  0.00    +0.111 A 
ATOM     26  C   UNL     1       5.649   0.691  23.330  0.00  0.00    +0.111 A 
ENDBRANCH  19  20
ENDBRANCH  13   4
ENDBRANCH   7  13
BRANCH   9  14
ATOM     14  C   UNL     1      -4.962   0.562  24.293  0.00  0.00    +0.128 C 
BRANCH  14  18
ATOM      2  O   UNL     1      -6.696   1.635  25.619  0.00  0.00    -0.251 OA
ATOM     18  C   UNL     1      -5.713   1.720  24.895  0.00  0.00    +0.308 C 
BRANCH  18   1
ATOM      1  O   UNL     1      -5.111   2.879  24.494  0.00  0.00    -0.465 OA
BRANCH   1  21
ATOM     21  C   UNL     1      -5.322   4.010  25.345  0.00  0.00    +0.229 C 
ATOM     24  C   UNL     1      -4.057   4.279  26.131  0.00  0.00    +0.048 C 
ENDBRANCH   1  21
ENDBRANCH  18   1
ENDBRANCH  14  18
ENDBRANCH   9  14
TORSDOF 8
ENDMDL
MODEL 2
REMARK VINA RESULT:      -3.3      1.342      3.310
REMARK  Name = 38029777
REMARK  12 active torsions:
REMARK  status: ('A' for Active; 'I' for Inactive)
REMARK    1  A    between atoms: O_1  and  C_18
REMARK    2  A    between atoms: O_1  and  C_21
REMARK    3  A    between atoms: N_4  and  C_13
REMARK    4  A    between atoms: C_6  and  C_10
REMARK    5  A    between atoms: C_7  and  C_13
REMARK    6  A    between atoms: C_9  and  C_14
REMARK    7  A    between atoms: C_10  and  C_15
REMARK    8  A    between atoms: C_10  and  C_16
REMARK    9  A    between atoms: C_11  and  C_17
REMARK   10  A    between atoms: C_14  and  C_18
REMARK   11  A    between atoms: C_19  and  C_20
REMARK   12  A    between atoms: C_21  and  C_24
REMARK                            x       y       z     vdW  Elec       q    Type
REMARK                         _______ _______ _______ _____ _____    ______ ____
ROOT
ATOM      6  C   UNL     1      -3.079   1.313  24.364  0.00  0.00    +0.000 C 
ATOM      7  C   UNL     1      -1.557   1.296  24.077  0.00  0.00    +0.032 C 
ATOM      8  C   UNL     1      -3.697   2.640  23.897  0.00  0.00    +0.012 C 
ATOM      9  C   UNL     1      -3.055   3.858  24.590  0.00  0.00    +0.025 C 
ATOM     11  C   UNL     1      -1.542   3.777  24.583  0.00  0.00    -0.073 C 
ATOM     12  C   UNL     1      -0.890   2.626  24.338  0.00  0.00    -0.022 C 
ATOM     17  C   UNL     1      -0.794   5.059  24.818  0.00  0.00    +0.039 C 
ENDROOT
BRANCH   6  10
ATOM     10  C   UNL     1      -3.799   0.141  23.691  0.00  0.00    -0.013 C 
ATOM     15  C   UNL     1      -3.081  -0.257  22.404  0.00  0.00    +0.007 C 
ATOM     16  C   UNL     1      -3.892  -1.045  24.647  0.00  0.00    +0.007 C 
ENDBRANCH   6  10
BRANCH   7  13
ATOM     13  C   UNL     1      -0.854   0.203  24.891  0.00  0.00    +0.112 C 
BRANCH  13   4
ATOM      3  O   UNL     1       0.450  -0.484  22.428  0.00  0.00    -0.270 OA
ATOM      4  N   UNL     1       0.553   0.209  24.640  0.00  0.00    -0.311 N 
ATOM     19  C   UNL     1       1.105  -0.141  23.408  0.00  0.00    +0.244 C 
ATOM     27  H   UNL     1       1.158   0.477  25.409  0.00  0.00    +0.149 HD
BRANCH  19  20
ATOM      5  N   UNL     1       5.377  -0.050  23.151  0.00  0.00    -0.263 NA
ATOM     20  C   UNL     1       2.587  -0.110  23.317  0.00  0.00    +0.040 A 
ATOM     22  C   UNL     1       3.337  -1.197  23.753  0.00  0.00    +0.033 A 
ATOM     23  C   UNL     1       3.232   1.008  22.798  0.00  0.00    +0.033 A 
ATOM     25  C   UNL     1       4.716  -1.119  23.649  0.00  0.00    +0.111 A 
ATOM     26  C   UNL     1       4.617   0.989  22.737  0.00  0.00    +0.111 A 
ENDBRANCH  19  20
ENDBRANCH  13   4
ENDBRANCH   7  13
BRANCH   9  14
ATOM     14  C   UNL     1      -3.589   4.027  26.016  0.00  0.00    +0.128 C 
BRANCH  14  18
ATOM      2  O   UNL     1      -5.927   4.610  25.687  0.00  0.00    -0.251 OA
ATOM     18  C   UNL     1      -5.080   3.819  26.079  0.00  0.00    +0.308 C 
BRANCH  18   1
ATOM      1  O   UNL     1      -5.321   2.601  26.647  0.00  0.00    -0.465 OA
BRANCH   1  21
ATOM     21  C   UNL     1      -6.596   2.023  26.345  0.00  0.00    +0.229 C 
ATOM     24  C   UNL     1      -6.608   1.582  24.898  0.00  0.00    +0.048 C 
ENDBRANCH   1  21
ENDBRANCH  18   1
ENDBRANCH  14  18
ENDBRANCH   9  14
TORSDOF 8
ENDMDL
MODEL 3
REMARK VINA RESULT:      -2.9      2.075      4.253
REMARK  Name = 38029777
REMARK  12 active torsions:
REMARK  status: ('A' for Active; 'I' for Inactive)
REMARK    1  A    between atoms: O_1  and  C_18
REMARK    2  A    between atoms: O_1  and  C_21
REMARK    3  A    between atoms: N_4  and  C_13
REMARK    4  A    between atoms: C_6  and  C_10
REMARK    5  A    between atoms: C_7  and  C_13
REMARK    6  A    between atoms: C_9  and  C_14
REMARK    7  A    between atoms: C_10  and  C_15
REMARK    8  A    between atoms: C_10  and  C_16
REMARK    9  A    between atoms: C_11  and  C_17
REMARK   10  A    between atoms: C_14  and  C_18
REMARK   11  A    between atoms: C_19  and  C_20
REMARK   12  A    between atoms: C_21  and  C_24
REMARK                            x       y       z     vdW  Elec       q    Type
REMARK                         _______ _______ _______ _____ _____    ______ ____
ROOT
ATOM      6  C   UNL     1      -2.651   1.075  24.712  0.00  0.00    +0.000 C 
ATOM      7  C   UNL     1      -1.726   0.950  23.476  0.00  0.00    +0.032 C 
ATOM      8  C   UNL     1      -3.038   2.544  24.946  0.00  0.00    +0.012 C 
ATOM      9  C   UNL     1      -1.807   3.444  25.164  0.00  0.00    +0.025 C 
ATOM     11  C   UNL     1      -0.729   3.184  24.130  0.00  0.00    -0.073 C 
ATOM     12  C   UNL     1      -0.717   2.070  23.376  0.00  0.00    -0.022 C 
ATOM     17  C   UNL     1       0.310   4.255  23.951  0.00  0.00    +0.039 C 
ENDROOT
BRANCH   6  10
ATOM     10  C   UNL     1      -3.915   0.223  24.566  0.00  0.00    -0.013 C 
ATOM     15  C   UNL     1      -3.798  -1.051  25.398  0.00  0.00    +0.007 C 
ATOM     16  C   UNL     1      -5.147   1.024  24.975  0.00  0.00    +0.007 C 
ENDBRANCH   6  10
BRANCH   7  13
ATOM     13  C   UNL     1      -0.996  -0.398  23.467  0.00  0.00    +0.112 C 
BRANCH  13   4
ATOM      3  O   UNL     1       1.035  -0.653  21.454  0.00  0.00    -0.270 OA
ATOM      4  N   UNL     1       0.410  -0.215  23.646  0.00  0.00    -0.311 N 
ATOM     19  C   UNL     1       1.332  -0.359  22.609  0.00  0.00    +0.244 C 
ATOM     27  H   UNL     1       0.730   0.025  24.578  0.00  0.00    +0.149 HD
BRANCH  19  20
ATOM      5  N   UNL     1       5.451   0.211  23.626  0.00  0.00    -0.263 NA
ATOM     20  C   UNL     1       2.760  -0.161  22.963  0.00  0.00    +0.040 A 
ATOM     22  C   UNL     1       3.382   1.056  22.706  0.00  0.00    +0.033 A 
ATOM     23  C   UNL     1       3.484  -1.194  23.552  0.00  0.00    +0.033 A 
ATOM     25  C   UNL     1       4.716   1.190  23.053  0.00  0.00    +0.111 A 
ATOM     26  C   UNL     1       4.815  -0.959  23.861  0.00  0.00    +0.111 A 
ENDBRANCH  19  20
ENDBRANCH  13   4
ENDBRANCH   7  13
BRANCH   9  14
ATOM     14  C   UNL     1      -1.253   3.288  26.584  0.00  0.00    +0.128 C 
BRANCH  14  18
ATOM      2  O   UNL     1      -0.341   1.048  26.330  0.00  0.00    -0.251 OA
ATOM     18  C   UNL     1      -0.195   2.219  26.654  0.00  0.00    +0.308 C 
BRANCH  18   1
ATOM      1  O   UNL     1       0.952   2.780  27.138  0.00  0.00    -0.465 OA
BRANCH   1  21
ATOM     21  C   UNL     1       1.206   2.558  28.530  0.00  0.00    +0.229 C 
ATOM     24  C   UNL     1       2.657   2.873  28.823  0.00  0.00    +0.048 C 
ENDBRANCH   1  21
ENDBRANCH  18   1
ENDBRANCH  14  18
ENDBRANCH   9  14
TORSDOF 8
ENDMDL
MODEL 4
REMARK VINA RESULT:      -2.9      3.941      6.344
REMARK  Name = 38029777
REMARK  12 active torsions:
REMARK  status: ('A' for Active; 'I' for Inactive)
REMARK    1  A    between atoms: O_1  and  C_18
REMARK    2  A    between atoms: O_1  and  C_21
REMARK    3  A    between atoms: N_4  and  C_13
REMARK    4  A    between atoms: C_6  and  C_10
REMARK    5  A    between atoms: C_7  and  C_13
REMARK    6  A    between atoms: C_9  and  C_14
REMARK    7  A    between atoms: C_10  and  C_15
REMARK    8  A    between atoms: C_10  and  C_16
REMARK    9  A    between atoms: C_11  and  C_17
REMARK   10  A    between atoms: C_14  and  C_18
REMARK   11  A    between atoms: C_19  and  C_20
REMARK   12  A    between atoms: C_21  and  C_24
REMARK                            x       y       z     vdW  Elec       q    Type
REMARK                         _______ _______ _______ _____ _____    ______ ____
ROOT
ATOM      6  C   UNL     1      -3.988   3.185  25.654  0.00  0.00    +0.000 C 
ATOM      7  C   UNL     1      -3.803   3.849  24.267  0.00  0.00    +0.032 C 
ATOM      8  C   UNL     1      -3.140   3.907  26.713  0.00  0.00    +0.012 C 
ATOM      9  C   UNL     1      -1.639   3.896  26.363  0.00  0.00    +0.025 C 
ATOM     11  C   UNL     1      -1.395   4.285  24.918  0.00  0.00    -0.073 C 
ATOM     12  C   UNL     1      -2.377   4.271  24.000  0.00  0.00    -0.022 C 
ATOM     17  C   UNL     1      -0.005   4.736  24.565  0.00  0.00    +0.039 C 
ENDROOT
BRANCH   6  10
ATOM     10  C   UNL     1      -5.457   3.172  26.088  0.00  0.00    -0.013 C 
ATOM     15  C   UNL     1      -6.190   4.383  25.519  0.00  0.00    +0.007 C 
ATOM     16  C   UNL     1      -6.131   1.876  25.646  0.00  0.00    +0.007 C 
ENDBRANCH   6  10
BRANCH   7  13
ATOM     13  C   UNL     1      -4.281   2.923  23.143  0.00  0.00    +0.112 C 
BRANCH  13   4
ATOM      3  O   UNL     1      -1.856   1.388  23.174  0.00  0.00    -0.270 OA
ATOM      4  N   UNL     1      -4.144   1.552  23.521  0.00  0.00    -0.311 N 
ATOM     19  C   UNL     1      -2.922   0.879  23.507  0.00  0.00    +0.244 C 
ATOM     27  H   UNL     1      -4.987   1.065  23.803  0.00  0.00    +0.149 HD
BRANCH  19  20
ATOM      5  N   UNL     1      -3.006  -3.247  24.644  0.00  0.00    -0.263 NA
ATOM     20  C   UNL     1      -2.952  -0.551  23.903  0.00  0.00    +0.040 A 
ATOM     22  C   UNL     1      -1.807  -1.162  24.402  0.00  0.00    +0.033 A 
ATOM     23  C   UNL     1      -4.125  -1.288  23.774  0.00  0.00    +0.033 A 
ATOM     25  C   UNL     1      -1.885  -2.500  24.755  0.00  0.00    +0.111 A 
ATOM     26  C   UNL     1      -4.100  -2.621  24.156  0.00  0.00    +0.111 A 
ENDBRANCH  19  20
ENDBRANCH  13   4
ENDBRANCH   7  13
BRANCH   9  14
ATOM     14  C   UNL     1      -1.008   2.536  26.679  0.00  0.00    +0.128 C 
BRANCH  14  18
ATOM      2  O   UNL     1       0.731   2.032  25.056  0.00  0.00    -0.251 OA
ATOM     18  C   UNL     1       0.403   2.446  26.160  0.00  0.00    +0.308 C 
BRANCH  18   1
ATOM      1  O   UNL     1       1.249   2.902  27.129  0.00  0.00    -0.465 OA
BRANCH   1  21
ATOM     21  C   UNL     1       0.994   2.414  28.450  0.00  0.00    +0.229 C 
ATOM     24  C   UNL     1       2.230   2.619  29.299  0.00  0.00    +0.048 C 
ENDBRANCH   1  21
ENDBRANCH  18   1
ENDBRANCH  14  18
ENDBRANCH   9  14
TORSDOF 8
ENDMDL
MODEL 5
REMARK VINA RESULT:      -2.8      1.507      2.572
REMARK  Name = 38029777
REMARK  12 active torsions:
REMARK  status: ('A' for Active; 'I' for Inactive)
REMARK    1  A    between atoms: O_1  and  C_18
REMARK    2  A    between atoms: O_1  and  C_21
REMARK    3  A    between atoms: N_4  and  C_13
REMARK    4  A    between atoms: C_6  and  C_10
REMARK    5  A    between atoms: C_7  and  C_13
REMARK    6  A    between atoms: C_9  and  C_14
REMARK    7  A    between atoms: C_10  and  C_15
REMARK    8  A    between atoms: C_10  and  C_16
REMARK    9  A    between atoms: C_11  and  C_17
REMARK   10  A    between atoms: C_14  and  C_18
REMARK   11  A    between atoms: C_19  and  C_20
REMARK   12  A    between atoms: C_21  and  C_24
REMARK                            x       y       z     vdW  Elec       q    Type
REMARK                         _______ _______ _______ _____ _____    ______ ____
ROOT
ATOM      6  C   UNL     1      -1.888   0.333  24.824  0.00  0.00    +0.000 C 
ATOM      7  C   UNL     1      -1.135   1.302  23.878  0.00  0.00    +0.032 C 
ATOM      8  C   UNL     1      -3.197  -0.140  24.175  0.00  0.00    +0.012 C 
ATOM      9  C   UNL     1      -4.134   1.034  23.830  0.00  0.00    +0.025 C 
ATOM     11  C   UNL     1      -3.397   2.155  23.127  0.00  0.00    -0.073 C 
ATOM     12  C   UNL     1      -2.056   2.251  23.148  0.00  0.00    -0.022 C 
ATOM     17  C   UNL     1      -4.235   3.139  22.359  0.00  0.00    +0.039 C 
ENDROOT
BRANCH   6  10
ATOM     10  C   UNL     1      -1.029  -0.877  25.201  0.00  0.00    -0.013 C 
ATOM     15  C   UNL     1      -0.936  -1.013  26.718  0.00  0.00    +0.007 C 
ATOM     16  C   UNL     1      -1.598  -2.148  24.578  0.00  0.00    +0.007 C 
ENDBRANCH   6  10
BRANCH   7  13
ATOM     13  C   UNL     1      -0.073   2.104  24.640  0.00  0.00    +0.112 C 
BRANCH  13   4
ATOM      3  O   UNL     1       0.722   0.308  22.546  0.00  0.00    -0.270 OA
ATOM      4  N   UNL     1       1.225   1.540  24.447  0.00  0.00    -0.311 N 
ATOM     19  C   UNL     1       1.527   0.672  23.398  0.00  0.00    +0.244 C 
ATOM     27  H   UNL     1       1.942   1.793  25.118  0.00  0.00    +0.149 HD
BRANCH  19  20
ATOM      5  N   UNL     1       5.535  -0.827  23.270  0.00  0.00    -0.263 NA
ATOM     20  C   UNL     1       2.917   0.152  23.352  0.00  0.00    +0.040 A 
ATOM     22  C   UNL     1       3.184  -1.162  23.721  0.00  0.00    +0.033 A 
ATOM     23  C   UNL     1       3.959   0.977  22.941  0.00  0.00    +0.033 A 
ATOM     25  C   UNL     1       4.497  -1.599  23.664  0.00  0.00    +0.111 A 
ATOM     26  C   UNL     1       5.239   0.444  22.918  0.00  0.00    +0.111 A 
ENDBRANCH  19  20
ENDBRANCH  13   4
ENDBRANCH   7  13
BRANCH   9  14
ATOM     14  C   UNL     1      -4.856   1.550  25.080  0.00  0.00    +0.128 C 
BRANCH  14  18
ATOM      2  O   UNL     1      -5.285   3.942  25.172  0.00  0.00    -0.251 OA
ATOM     18  C   UNL     1      -4.530   2.995  25.351  0.00  0.00    +0.308 C 
BRANCH  18   1
ATOM      1  O   UNL     1      -3.253   3.067  25.828  0.00  0.00    -0.465 OA
BRANCH   1  21
ATOM     21  C   UNL     1      -2.840   4.357  26.292  0.00  0.00    +0.229 C 
ATOM     24  C   UNL     1      -1.882   4.959  25.287  0.00  0.00    +0.048 C 
ENDBRANCH   1  21
ENDBRANCH  18   1
ENDBRANCH  14  18
ENDBRANCH   9  14
TORSDOF 8
ENDMDL
MODEL 6
REMARK VINA RESULT:      -2.6      1.777      3.342
REMARK  Name = 38029777
REMARK  12 active torsions:
REMARK  status: ('A' for Active; 'I' for Inactive)
REMARK    1  A    between atoms: O_1  and  C_18
REMARK    2  A    between atoms: O_1  and  C_21
REMARK    3  A    between atoms: N_4  and  C_13
REMARK    4  A    between atoms: C_6  and  C_10
REMARK    5  A    between atoms: C_7  and  C_13
REMARK    6  A    between atoms: C_9  and  C_14
REMARK    7  A    between atoms: C_10  and  C_15
REMARK    8  A    between atoms: C_10  and  C_16
REMARK    9  A    between atoms: C_11  and  C_17
REMARK   10  A    between atoms: C_14  and  C_18
REMARK   11  A    between atoms: C_19  and  C_20
REMARK   12  A    between atoms: C_21  and  C_24
REMARK                            x       y       z     vdW  Elec       q    Type
REMARK                         _______ _______ _______ _____ _____    ______ ____
ROOT
ATOM      6  C   UNL     1      -3.518  -0.557  25.025  0.00  0.00    +0.000 C 
ATOM      7  C   UNL     1      -2.326   0.124  24.307  0.00  0.00    +0.032 C 
ATOM      8  C   UNL     1      -4.835  -0.232  24.304  0.00  0.00    +0.012 C 
ATOM      9  C   UNL     1      -5.105   1.284  24.237  0.00  0.00    +0.025 C 
ATOM     11  C   UNL     1      -3.880   2.055  23.789  0.00  0.00    -0.073 C 
ATOM     12  C   UNL     1      -2.648   1.516  23.815  0.00  0.00    -0.022 C 
ATOM     17  C   UNL     1      -4.109   3.446  23.267  0.00  0.00    +0.039 C 
ENDROOT
BRANCH   6  10
ATOM     10  C   UNL     1      -3.337  -2.075  25.116  0.00  0.00    -0.013 C 
ATOM     15  C   UNL     1      -4.289  -2.783  24.157  0.00  0.00    +0.007 C 
ATOM     16  C   UNL     1      -1.889  -2.456  24.821  0.00  0.00    +0.007 C 
ENDBRANCH   6  10
BRANCH   7  13
ATOM     13  C   UNL     1      -1.091   0.176  25.214  0.00  0.00    +0.112 C 
BRANCH  13   4
ATOM      3  O   UNL     1       0.664   2.287  24.376  0.00  0.00    -0.270 OA
ATOM      4  N   UNL     1       0.107   0.035  24.449  0.00  0.00    -0.311 N 
ATOM     19  C   UNL     1       0.905   1.119  24.083  0.00  0.00    +0.244 C 
ATOM     27  H   UNL     1       0.366  -0.903  24.166  0.00  0.00    +0.149 HD
BRANCH  19  20
ATOM      5  N   UNL     1       4.363   0.229  21.722  0.00  0.00    -0.263 NA
ATOM     20  C   UNL     1       2.105   0.809  23.265  0.00  0.00    +0.040 A 
ATOM     22  C   UNL     1       3.358   1.259  23.665  0.00  0.00    +0.033 A 
ATOM     23  C   UNL     1       1.979   0.069  22.093  0.00  0.00    +0.033 A 
ATOM     25  C   UNL     1       4.446   0.945  22.866  0.00  0.00    +0.111 A 
ATOM     26  C   UNL     1       3.129  -0.192  21.364  0.00  0.00    +0.111 A 
ENDBRANCH  19  20
ENDBRANCH  13   4
ENDBRANCH   7  13
BRANCH   9  14
ATOM     14  C   UNL     1      -5.626   1.811  25.578  0.00  0.00    +0.128 C 
BRANCH  14  18
ATOM      2  O   UNL     1      -5.824   4.235  25.612  0.00  0.00    -0.251 OA
ATOM     18  C   UNL     1      -5.171   3.224  25.833  0.00  0.00    +0.308 C 
BRANCH  18   1
ATOM      1  O   UNL     1      -3.908   3.183  26.352  0.00  0.00    -0.465 OA
BRANCH   1  21
ATOM     21  C   UNL     1      -3.233   4.442  26.430  0.00  0.00    +0.229 C 
ATOM     24  C   UNL     1      -1.907   4.337  25.709  0.00  0.00    +0.048 C 
ENDBRANCH   1  21
ENDBRANCH  18   1
ENDBRANCH  14  18
ENDBRANCH   9  14
TORSDOF 8
ENDMDL
MODEL 7
REMARK VINA RESULT:      -2.5      3.438      6.493
REMARK  Name = 38029777
REMARK  12 active torsions:
REMARK  status: ('A' for Active; 'I' for Inactive)
REMARK    1  A    between atoms: O_1  and  C_18
REMARK    2  A    between atoms: O_1  and  C_21
REMARK    3  A    between atoms: N_4  and  C_13
REMARK    4  A    between atoms: C_6  and  C_10
REMARK    5  A    between atoms: C_7  and  C_13
REMARK    6  A    between atoms: C_9  and  C_14
REMARK    7  A    between atoms: C_10  and  C_15
REMARK    8  A    between atoms: C_10  and  C_16
REMARK    9  A    between atoms: C_11  and  C_17
REMARK   10  A    between atoms: C_14  and  C_18
REMARK   11  A    between atoms: C_19  and  C_20
REMARK   12  A    between atoms: C_21  and  C_24
REMARK                            x       y       z     vdW  Elec       q    Type
REMARK                         _______ _______ _______ _____ _____    ______ ____
ROOT
ATOM      6  C   UNL     1      -4.097   3.269  25.348  0.00  0.00    +0.000 C 
ATOM      7  C   UNL     1      -3.726   3.730  23.916  0.00  0.00    +0.032 C 
ATOM      8  C   UNL     1      -3.417   4.167  26.393  0.00  0.00    +0.012 C 
ATOM      9  C   UNL     1      -1.882   4.159  26.259  0.00  0.00    +0.025 C 
ATOM     11  C   UNL     1      -1.442   4.341  24.820  0.00  0.00    -0.073 C 
ATOM     12  C   UNL     1      -2.283   4.159  23.787  0.00  0.00    -0.022 C 
ATOM     17  C   UNL     1      -0.023   4.785  24.598  0.00  0.00    +0.039 C 
ENDROOT
BRANCH   6  10
ATOM     10  C   UNL     1      -5.612   3.267  25.571  0.00  0.00    -0.013 C 
ATOM     15  C   UNL     1      -5.970   2.417  26.786  0.00  0.00    +0.007 C 
ATOM     16  C   UNL     1      -6.125   4.694  25.740  0.00  0.00    +0.007 C 
ENDBRANCH   6  10
BRANCH   7  13
ATOM     13  C   UNL     1      -4.027   2.633  22.887  0.00  0.00    +0.112 C 
BRANCH  13   4
ATOM      3  O   UNL     1      -5.790   0.763  24.167  0.00  0.00    -0.270 OA
ATOM      4  N   UNL     1      -3.679   1.346  23.400  0.00  0.00    -0.311 N 
ATOM     19  C   UNL     1      -4.602   0.497  24.011  0.00  0.00    +0.244 C 
ATOM     27  H   UNL     1      -2.710   1.061  23.310  0.00  0.00    +0.149 HD
BRANCH  19  20
ATOM      5  N   UNL     1      -3.088  -3.234  25.465  0.00  0.00    -0.263 NA
ATOM     20  C   UNL     1      -4.075  -0.797  24.515  0.00  0.00    +0.040 A 
ATOM     22  C   UNL     1      -4.105  -1.927  23.704  0.00  0.00    +0.033 A 
ATOM     23  C   UNL     1      -3.551  -0.885  25.801  0.00  0.00    +0.033 A 
ATOM     25  C   UNL     1      -3.604  -3.110  24.221  0.00  0.00    +0.111 A 
ATOM     26  C   UNL     1      -3.075  -2.116  26.224  0.00  0.00    +0.111 A 
ENDBRANCH  19  20
ENDBRANCH  13   4
ENDBRANCH   7  13
BRANCH   9  14
ATOM     14  C   UNL     1      -1.282   2.883  26.859  0.00  0.00    +0.128 C 
BRANCH  14  18
ATOM      2  O   UNL     1       0.828   2.327  25.785  0.00  0.00    -0.251 OA
ATOM     18  C   UNL     1      -0.383   2.178  25.877  0.00  0.00    +0.308 C 
BRANCH  18   1
ATOM      1  O   UNL     1      -1.149   1.348  25.110  0.00  0.00    -0.465 OA
BRANCH   1  21
ATOM     21  C   UNL     1      -0.476   0.734  24.006  0.00  0.00    +0.229 C 
ATOM     24  C   UNL     1      -0.262  -0.733  24.312  0.00  0.00    +0.048 C 
ENDBRANCH   1  21
ENDBRANCH  18   1
ENDBRANCH  14  18
ENDBRANCH   9  14
TORSDOF 8
ENDMDL
MODEL 8
REMARK VINA RESULT:      -1.5      2.940      6.743
REMARK  Name = 38029777
REMARK  12 active torsions:
REMARK  status: ('A' for Active; 'I' for Inactive)
REMARK    1  A    between atoms: O_1  and  C_18
REMARK    2  A    between atoms: O_1  and  C_21
REMARK    3  A    between atoms: N_4  and  C_13
REMARK    4  A    between atoms: C_6  and  C_10
REMARK    5  A    between atoms: C_7  and  C_13
REMARK    6  A    between atoms: C_9  and  C_14
REMARK    7  A    between atoms: C_10  and  C_15
REMARK    8  A    between atoms: C_10  and  C_16
REMARK    9  A    between atoms: C_11  and  C_17
REMARK   10  A    between atoms: C_14  and  C_18
REMARK   11  A    between atoms: C_19  and  C_20
REMARK   12  A    between atoms: C_21  and  C_24
REMARK                            x       y       z     vdW  Elec       q    Type
REMARK                         _______ _______ _______ _____ _____    ______ ____
ROOT
ATOM      6  C   UNL     1      -2.021   3.298  25.004  0.00  0.00    +0.000 C 
ATOM      7  C   UNL     1      -3.289   3.189  24.122  0.00  0.00    +0.032 C 
ATOM      8  C   UNL     1      -0.774   3.498  24.129  0.00  0.00    +0.012 C 
ATOM      9  C   UNL     1      -0.575   2.345  23.126  0.00  0.00    +0.025 C 
ATOM     11  C   UNL     1      -1.862   1.999  22.403  0.00  0.00    -0.073 C 
ATOM     12  C   UNL     1      -3.064   2.397  22.856  0.00  0.00    -0.022 C 
ATOM     17  C   UNL     1      -1.731   1.224  21.122  0.00  0.00    +0.039 C 
ENDROOT
BRANCH   6  10
ATOM     10  C   UNL     1      -2.129   4.438  26.020  0.00  0.00    -0.013 C 
ATOM     15  C   UNL     1      -1.949   5.786  25.329  0.00  0.00    +0.007 C 
ATOM     16  C   UNL     1      -3.470   4.378  26.746  0.00  0.00    +0.007 C 
ENDBRANCH   6  10
BRANCH   7  13
ATOM     13  C   UNL     1      -4.457   2.579  24.906  0.00  0.00    +0.112 C 
BRANCH  13   4
ATOM      3  O   UNL     1      -2.491   0.682  25.788  0.00  0.00    -0.270 OA
ATOM      4  N   UNL     1      -4.500   1.162  24.731  0.00  0.00    -0.311 N 
ATOM     19  C   UNL     1      -3.498   0.309  25.193  0.00  0.00    +0.244 C 
ATOM     27  H   UNL     1      -5.303   0.781  24.242  0.00  0.00    +0.149 HD
BRANCH  19  20
ATOM      5  N   UNL     1      -4.014  -3.860  24.371  0.00  0.00    -0.263 NA
ATOM     20  C   UNL     1      -3.679  -1.137  24.909  0.00  0.00    +0.040 A 
ATOM     22  C   UNL     1      -3.132  -2.091  25.761  0.00  0.00    +0.033 A 
ATOM     23  C   UNL     1      -4.393  -1.545  23.787  0.00  0.00    +0.033 A 
ATOM     25  C   UNL     1      -3.326  -3.427  25.451  0.00  0.00    +0.111 A 
ATOM     26  C   UNL     1      -4.531  -2.906  23.564  0.00  0.00    +0.111 A 
ENDBRANCH  19  20
ENDBRANCH  13   4
ENDBRANCH   7  13
BRANCH   9  14
ATOM     14  C   UNL     1       0.017   1.110  23.813  0.00  0.00    +0.128 C 
BRANCH  14  18
ATOM      2  O   UNL     1       1.062  -0.339  22.164  0.00  0.00    -0.251 OA
ATOM     18  C   UNL     1       1.158   0.529  23.022  0.00  0.00    +0.308 C 
BRANCH  18   1
ATOM      1  O   UNL     1       2.315   1.134  23.424  0.00  0.00    -0.465 OA
BRANCH   1  21
ATOM     21  C   UNL     1       3.447   0.925  22.573  0.00  0.00    +0.229 C 
ATOM     24  C   UNL     1       4.621   0.476  23.416  0.00  0.00    +0.048 C 
ENDBRANCH   1  21
ENDBRANCH  18   1
ENDBRANCH  14  18
ENDBRANCH   9  14
TORSDOF 8
ENDMDL
MODEL 9
REMARK VINA RESULT:      -1.4      2.735      5.679
REMARK  Name = 38029777
REMARK  12 active torsions:
REMARK  status: ('A' for Active; 'I' for Inactive)
REMARK    1  A    between atoms: O_1  and  C_18
REMARK    2  A    between atoms: O_1  and  C_21
REMARK    3  A    between atoms: N_4  and  C_13
REMARK    4  A    between atoms: C_6  and  C_10
REMARK    5  A    between atoms: C_7  and  C_13
REMARK    6  A    between atoms: C_9  and  C_14
REMARK    7  A    between atoms: C_10  and  C_15
REMARK    8  A    between atoms: C_10  and  C_16
REMARK    9  A    between atoms: C_11  and  C_17
REMARK   10  A    between atoms: C_14  and  C_18
REMARK   11  A    between atoms: C_19  and  C_20
REMARK   12  A    between atoms: C_21  and  C_24
REMARK                            x       y       z     vdW  Elec       q    Type
REMARK                         _______ _______ _______ _____ _____    ______ ____
ROOT
ATOM      6  C   UNL     1       0.003   1.774  24.209  0.00  0.00    +0.000 C 
ATOM      7  C   UNL     1       0.099   2.160  25.706  0.00  0.00    +0.032 C 
ATOM      8  C   UNL     1       0.038   3.032  23.327  0.00  0.00    +0.012 C 
ATOM      9  C   UNL     1      -1.111   4.006  23.656  0.00  0.00    +0.025 C 
ATOM     11  C   UNL     1      -1.251   4.229  25.149  0.00  0.00    -0.073 C 
ATOM     12  C   UNL     1      -0.692   3.401  26.049  0.00  0.00    -0.022 C 
ATOM     17  C   UNL     1      -2.010   5.452  25.582  0.00  0.00    +0.039 C 
ENDROOT
BRANCH   6  10
ATOM     10  C   UNL     1       1.125   0.819  23.794  0.00  0.00    -0.013 C 
ATOM     15  C   UNL     1       0.610  -0.203  22.785  0.00  0.00    +0.007 C 
ATOM     16  C   UNL     1       2.303   1.601  23.218  0.00  0.00    +0.007 C 
ENDBRANCH   6  10
BRANCH   7  13
ATOM     13  C   UNL     1      -0.352   1.003  26.605  0.00  0.00    +0.112 C 
BRANCH  13   4
ATOM      3  O   UNL     1      -0.222  -1.736  25.755  0.00  0.00    -0.270 OA
ATOM      4  N   UNL     1      -1.396   0.252  25.982  0.00  0.00    -0.311 N 
ATOM     19  C   UNL     1      -1.248  -1.081  25.598  0.00  0.00    +0.244 C 
ATOM     27  H   UNL     1      -2.273   0.733  25.815  0.00  0.00    +0.149 HD
BRANCH  19  20
ATOM      5  N   UNL     1      -4.627  -2.900  23.701  0.00  0.00    -0.263 NA
ATOM     20  C   UNL     1      -2.419  -1.711  24.939  0.00  0.00    +0.040 A 
ATOM     22  C   UNL     1      -3.617  -1.014  24.827  0.00  0.00    +0.033 A 
ATOM     23  C   UNL     1      -2.324  -3.003  24.432  0.00  0.00    +0.033 A 
ATOM     25  C   UNL     1      -4.682  -1.647  24.206  0.00  0.00    +0.111 A 
ATOM     26  C   UNL     1      -3.447  -3.548  23.827  0.00  0.00    +0.111 A 
ENDBRANCH  19  20
ENDBRANCH  13   4
ENDBRANCH   7  13
BRANCH   9  14
ATOM     14  C   UNL     1      -2.433   3.528  23.046  0.00  0.00    +0.128 C 
BRANCH  14  18
ATOM      2  O   UNL     1      -2.649   1.106  22.998  0.00  0.00    -0.251 OA
ATOM     18  C   UNL     1      -2.827   2.173  23.571  0.00  0.00    +0.308 C 
BRANCH  18   1
ATOM      1  O   UNL     1      -3.416   2.338  24.792  0.00  0.00    -0.465 OA
BRANCH   1  21
ATOM     21  C   UNL     1      -4.701   2.969  24.776  0.00  0.00    +0.229 C 
ATOM     24  C   UNL     1      -5.768   1.919  24.996  0.00  0.00    +0.048 C 
ENDBRANCH   1  21
ENDBRANCH  18   1
ENDBRANCH  14  18
ENDBRANCH   9  14
TORSDOF 8
ENDMDL
MODEL 10
REMARK VINA RESULT:      -1.2      2.246      3.969
REMARK  Name = 38029777
REMARK  12 active torsions:
REMARK  status: ('A' for Active; 'I' for Inactive)
REMARK    1  A    between atoms: O_1  and  C_18
REMARK    2  A    between atoms: O_1  and  C_21
REMARK    3  A    between atoms: N_4  and  C_13
REMARK    4  A    between atoms: C_6  and  C_10
REMARK    5  A    between atoms: C_7  and  C_13
REMARK    6  A    between atoms: C_9  and  C_14
REMARK    7  A    between atoms: C_10  and  C_15
REMARK    8  A    between atoms: C_10  and  C_16
REMARK    9  A    between atoms: C_11  and  C_17
REMARK   10  A    between atoms: C_14  and  C_18
REMARK   11  A    between atoms: C_19  and  C_20
REMARK   12  A    between atoms: C_21  and  C_24
REMARK                            x       y       z     vdW  Elec       q    Type
REMARK                         _______ _______ _______ _____ _____    ______ ____
ROOT
ATOM      6  C   UNL     1      -1.812   3.907  24.715  0.00  0.00    +0.000 C 
ATOM      7  C   UNL     1      -2.058   3.424  26.166  0.00  0.00    +0.032 C 
ATOM      8  C   UNL     1      -3.065   4.603  24.161  0.00  0.00    +0.012 C 
ATOM      9  C   UNL     1      -4.296   3.676  24.165  0.00  0.00    +0.025 C 
ATOM     11  C   UNL     1      -4.452   2.953  25.488  0.00  0.00    -0.073 C 
ATOM     12  C   UNL     1      -3.445   2.862  26.375  0.00  0.00    -0.022 C 
ATOM     17  C   UNL     1      -5.807   2.375  25.788  0.00  0.00    +0.039 C 
ENDROOT
BRANCH   6  10
ATOM     10  C   UNL     1      -0.611   4.854  24.626  0.00  0.00    -0.013 C 
ATOM     15  C   UNL     1       0.070   4.724  23.266  0.00  0.00    +0.007 C 
ATOM     16  C   UNL     1      -1.050   6.293  24.876  0.00  0.00    +0.007 C 
ENDBRANCH   6  10
BRANCH   7  13
ATOM     13  C   UNL     1      -1.016   2.382  26.586  0.00  0.00    +0.112 C 
BRANCH  13   4
ATOM      3  O   UNL     1      -0.797  -0.241  25.439  0.00  0.00    -0.270 OA
ATOM      4  N   UNL     1      -0.201   2.001  25.475  0.00  0.00    -0.311 N 
ATOM     19  C   UNL     1      -0.154   0.699  24.979  0.00  0.00    +0.244 C 
ATOM     27  H   UNL     1       0.363   2.727  25.047  0.00  0.00    +0.149 HD
BRANCH  19  20
ATOM      5  N   UNL     1       2.488   0.018  21.680  0.00  0.00    -0.263 NA
ATOM     20  C   UNL     1       0.763   0.461  23.836  0.00  0.00    +0.040 A 
ATOM     22  C   UNL     1       1.981   1.127  23.767  0.00  0.00    +0.033 A 
ATOM     23  C   UNL     1       0.406  -0.428  22.826  0.00  0.00    +0.033 A 
ATOM     25  C   UNL     1       2.800   0.873  22.679  0.00  0.00    +0.111 A 
ATOM     26  C   UNL     1       1.296  -0.613  21.780  0.00  0.00    +0.111 A 
ENDBRANCH  19  20
ENDBRANCH  13   4
ENDBRANCH   7  13
BRANCH   9  14
ATOM     14  C   UNL     1      -4.243   2.682  22.999  0.00  0.00    +0.128 C 
BRANCH  14  18
ATOM      2  O   UNL     1      -2.005   1.852  22.538  0.00  0.00    -0.251 OA
ATOM     18  C   UNL     1      -3.073   1.742  23.124  0.00  0.00    +0.308 C 
BRANCH  18   1
ATOM      1  O   UNL     1      -3.409   0.750  23.999  0.00  0.00    -0.465 OA
BRANCH   1  21
ATOM     21  C   UNL     1      -3.643  -0.535  23.414  0.00  0.00    +0.229 C 
ATOM     24  C   UNL     1      -4.000  -1.518  24.508  0.00  0.00    +0.048 C 
ENDBRANCH   1  21
ENDBRANCH  18   1
ENDBRANCH  14  18
ENDBRANCH   9  14
TORSDOF 8
ENDMDL
