MODEL 1
REMARK VINA RESULT:      -6.3      0.000      0.000
REMARK  Name = 40779638
REMARK  7 active torsions:
REMARK  status: ('A' for Active; 'I' for Inactive)
REMARK    1  A    between atoms: O_2  and  C_20
REMARK    2  A    between atoms: O_2  and  C_21
REMARK    3  A    between atoms: N_4  and  C_13
REMARK    4  A    between atoms: N_5  and  C_14
REMARK    5  A    between atoms: C_7  and  C_13
REMARK    6  A    between atoms: C_9  and  C_14
REMARK    7  A    between atoms: C_19  and  C_20
REMARK                            x       y       z     vdW  Elec       q    Type
REMARK                         _______ _______ _______ _____ _____    ______ ____
ROOT
ATOM      3  N   UNL     1      -1.529   2.546  25.098  0.00  0.00    -0.298 NA
ATOM      6  C   UNL     1      -3.681   2.690  23.644  0.00  0.00    -0.003 C 
ATOM      7  C   UNL     1      -3.959   1.942  24.967  0.00  0.00    +0.020 C 
ATOM      8  C   UNL     1      -2.545   1.980  22.885  0.00  0.00    +0.024 C 
ATOM      9  C   UNL     1      -1.251   2.046  23.725  0.00  0.00    +0.074 C 
ATOM     10  C   UNL     1      -2.623   1.760  25.721  0.00  0.00    +0.089 C 
ATOM     11  C   UNL     1      -3.169   4.094  24.023  0.00  0.00    +0.019 C 
ATOM     12  C   UNL     1      -1.979   3.956  24.989  0.00  0.00    +0.085 C 
ENDROOT
BRANCH   7  13
ATOM     13  C   UNL     1      -4.679   0.610  24.765  0.00  0.00    +0.089 C 
BRANCH  13   4
ATOM      4  N   UNL     1      -3.728  -0.490  24.701  0.00  0.00    -0.302 NA
ATOM     15  C   UNL     1      -3.571  -1.167  25.987  0.00  0.00    +0.084 C 
ATOM     16  C   UNL     1      -4.147  -1.535  23.769  0.00  0.00    +0.084 C 
ATOM     17  C   UNL     1      -2.876  -2.466  25.606  0.00  0.00    +0.017 C 
ATOM     18  C   UNL     1      -3.251  -2.707  24.147  0.00  0.00    +0.017 C 
ENDBRANCH  13   4
ENDBRANCH   7  13
BRANCH   9  14
ATOM     14  C   UNL     1      -0.508   0.707  23.732  0.00  0.00    +0.123 C 
BRANCH  14   5
ATOM      1  O   UNL     1       1.345  -0.408  21.811  0.00  0.00    -0.273 OA
ATOM      5  N   UNL     1       0.929   0.916  23.675  0.00  0.00    -0.312 N 
ATOM     19  C   UNL     1       1.729   0.333  22.711  0.00  0.00    +0.239 C 
ATOM     22  H   UNL     1       1.350   1.514  24.381  0.00  0.00    +0.149 HD
BRANCH  19  20
ATOM     20  C   UNL     1       3.181   0.723  22.888  0.00  0.00    +0.255 C 
BRANCH  20   2
ATOM      2  O   UNL     1       3.975  -0.417  23.138  0.00  0.00    -0.374 OA
ATOM     21  C   UNL     1       5.295  -0.066  23.543  0.00  0.00    +0.194 C 
ENDBRANCH  20   2
ENDBRANCH  19  20
ENDBRANCH  14   5
ENDBRANCH   9  14
TORSDOF 6
ENDMDL
MODEL 2
REMARK VINA RESULT:      -6.0      1.298      3.980
REMARK  Name = 40779638
REMARK  7 active torsions:
REMARK  status: ('A' for Active; 'I' for Inactive)
REMARK    1  A    between atoms: O_2  and  C_20
REMARK    2  A    between atoms: O_2  and  C_21
REMARK    3  A    between atoms: N_4  and  C_13
REMARK    4  A    between atoms: N_5  and  C_14
REMARK    5  A    between atoms: C_7  and  C_13
REMARK    6  A    between atoms: C_9  and  C_14
REMARK    7  A    between atoms: C_19  and  C_20
REMARK                            x       y       z     vdW  Elec       q    Type
REMARK                         _______ _______ _______ _____ _____    ______ ____
ROOT
ATOM      3  N   UNL     1      -2.678  -2.069  24.097  0.00  0.00    -0.298 NA
ATOM      6  C   UNL     1      -2.940  -0.158  25.842  0.00  0.00    -0.003 C 
ATOM      7  C   UNL     1      -3.870   0.071  24.629  0.00  0.00    +0.020 C 
ATOM      8  C   UNL     1      -1.484  -0.267  25.355  0.00  0.00    +0.024 C 
ATOM      9  C   UNL     1      -1.345  -1.501  24.435  0.00  0.00    +0.074 C 
ATOM     10  C   UNL     1      -3.570  -1.009  23.566  0.00  0.00    +0.089 C 
ATOM     11  C   UNL     1      -3.323  -1.522  26.448  0.00  0.00    +0.019 C 
ATOM     12  C   UNL     1      -3.281  -2.596  25.346  0.00  0.00    +0.085 C 
ENDROOT
BRANCH   7  13
ATOM     13  C   UNL     1      -3.765   1.480  24.047  0.00  0.00    +0.089 C 
BRANCH  13   4
ATOM      4  N   UNL     1      -3.113   2.382  24.986  0.00  0.00    -0.302 NA
ATOM     15  C   UNL     1      -2.009   3.120  24.374  0.00  0.00    +0.084 C 
ATOM     16  C   UNL     1      -4.021   3.408  25.495  0.00  0.00    +0.084 C 
ATOM     17  C   UNL     1      -1.751   4.238  25.374  0.00  0.00    +0.017 C 
ATOM     18  C   UNL     1      -3.072   4.425  26.114  0.00  0.00    +0.017 C 
ENDBRANCH  13   4
ENDBRANCH   7  13
BRANCH   9  14
ATOM     14  C   UNL     1      -0.510  -1.192  23.190  0.00  0.00    +0.123 C 
BRANCH  14   5
ATOM      1  O   UNL     1       1.622  -0.353  21.424  0.00  0.00    -0.273 OA
ATOM      5  N   UNL     1       0.653  -0.392  23.537  0.00  0.00    -0.312 N 
ATOM     19  C   UNL     1       1.619  -0.044  22.612  0.00  0.00    +0.239 C 
ATOM     22  H   UNL     1       0.748  -0.085  24.500  0.00  0.00    +0.149 HD
BRANCH  19  20
ATOM     20  C   UNL     1       2.712   0.791  23.244  0.00  0.00    +0.255 C 
BRANCH  20   2
ATOM      2  O   UNL     1       3.904   0.703  22.493  0.00  0.00    -0.374 OA
ATOM     21  C   UNL     1       5.019   0.350  23.305  0.00  0.00    +0.194 C 
ENDBRANCH  20   2
ENDBRANCH  19  20
ENDBRANCH  14   5
ENDBRANCH   9  14
TORSDOF 6
ENDMDL
MODEL 3
REMARK VINA RESULT:      -5.6      1.701      3.570
REMARK  Name = 40779638
REMARK  7 active torsions:
REMARK  status: ('A' for Active; 'I' for Inactive)
REMARK    1  A    between atoms: O_2  and  C_20
REMARK    2  A    between atoms: O_2  and  C_21
REMARK    3  A    between atoms: N_4  and  C_13
REMARK    4  A    between atoms: N_5  and  C_14
REMARK    5  A    between atoms: C_7  and  C_13
REMARK    6  A    between atoms: C_9  and  C_14
REMARK    7  A    between atoms: C_19  and  C_20
REMARK                            x       y       z     vdW  Elec       q    Type
REMARK                         _______ _______ _______ _____ _____    ______ ____
ROOT
ATOM      3  N   UNL     1      -0.230  -0.681  24.157  0.00  0.00    -0.298 NA
ATOM      6  C   UNL     1      -2.089   0.259  25.715  0.00  0.00    -0.003 C 
ATOM      7  C   UNL     1      -2.663  -0.099  24.325  0.00  0.00    +0.020 C 
ATOM      8  C   UNL     1      -0.942   1.271  25.549  0.00  0.00    +0.024 C 
ATOM      9  C   UNL     1       0.201   0.619  24.739  0.00  0.00    +0.074 C 
ATOM     10  C   UNL     1      -1.495  -0.513  23.402  0.00  0.00    +0.089 C 
ATOM     11  C   UNL     1      -1.478  -1.033  26.293  0.00  0.00    +0.019 C 
ATOM     12  C   UNL     1      -0.483  -1.621  25.277  0.00  0.00    +0.085 C 
ENDROOT
BRANCH   7  13
ATOM     13  C   UNL     1      -3.497   1.024  23.712  0.00  0.00    +0.089 C 
BRANCH  13   4
ATOM      4  N   UNL     1      -4.034   1.896  24.745  0.00  0.00    -0.302 NA
ATOM     15  C   UNL     1      -3.895   3.312  24.408  0.00  0.00    +0.084 C 
ATOM     16  C   UNL     1      -5.467   1.694  24.956  0.00  0.00    +0.084 C 
ATOM     17  C   UNL     1      -4.839   3.991  25.390  0.00  0.00    +0.017 C 
ATOM     18  C   UNL     1      -5.870   2.927  25.754  0.00  0.00    +0.017 C 
ENDBRANCH  13   4
ENDBRANCH   7  13
BRANCH   9  14
ATOM     14  C   UNL     1       0.766   1.572  23.683  0.00  0.00    +0.123 C 
BRANCH  14   5
ATOM      1  O   UNL     1       1.900  -0.198  21.696  0.00  0.00    -0.273 OA
ATOM      5  N   UNL     1       2.174   1.304  23.448  0.00  0.00    -0.312 N 
ATOM     19  C   UNL     1       2.614   0.436  22.467  0.00  0.00    +0.239 C 
ATOM     22  H   UNL     1       2.853   1.778  24.038  0.00  0.00    +0.149 HD
BRANCH  19  20
ATOM     20  C   UNL     1       4.125   0.348  22.444  0.00  0.00    +0.255 C 
BRANCH  20   2
ATOM      2  O   UNL     1       4.666   0.751  23.684  0.00  0.00    -0.374 OA
ATOM     21  C   UNL     1       5.527  -0.241  24.235  0.00  0.00    +0.194 C 
ENDBRANCH  20   2
ENDBRANCH  19  20
ENDBRANCH  14   5
ENDBRANCH   9  14
TORSDOF 6
ENDMDL
MODEL 4
REMARK VINA RESULT:      -5.1      1.684      4.149
REMARK  Name = 40779638
REMARK  7 active torsions:
REMARK  status: ('A' for Active; 'I' for Inactive)
REMARK    1  A    between atoms: O_2  and  C_20
REMARK    2  A    between atoms: O_2  and  C_21
REMARK    3  A    between atoms: N_4  and  C_13
REMARK    4  A    between atoms: N_5  and  C_14
REMARK    5  A    between atoms: C_7  and  C_13
REMARK    6  A    between atoms: C_9  and  C_14
REMARK    7  A    between atoms: C_19  and  C_20
REMARK                            x       y       z     vdW  Elec       q    Type
REMARK                         _______ _______ _______ _____ _____    ______ ____
ROOT
ATOM      3  N   UNL     1      -1.750  -1.083  24.229  0.00  0.00    -0.298 NA
ATOM      6  C   UNL     1      -4.018  -1.528  25.422  0.00  0.00    -0.003 C 
ATOM      7  C   UNL     1      -4.207  -0.588  24.210  0.00  0.00    +0.020 C 
ATOM      8  C   UNL     1      -2.993  -0.910  26.391  0.00  0.00    +0.024 C 
ATOM      9  C   UNL     1      -1.624  -0.799  25.684  0.00  0.00    +0.074 C 
ATOM     10  C   UNL     1      -2.817  -0.245  23.630  0.00  0.00    +0.089 C 
ATOM     11  C   UNL     1      -3.405  -2.836  24.883  0.00  0.00    +0.019 C 
ATOM     12  C   UNL     1      -2.139  -2.506  24.073  0.00  0.00    +0.085 C 
ENDROOT
BRANCH   7  13
ATOM     13  C   UNL     1      -5.006   0.670  24.544  0.00  0.00    +0.089 C 
BRANCH  13   4
ATOM      4  N   UNL     1      -4.122   1.809  24.743  0.00  0.00    -0.302 NA
ATOM     15  C   UNL     1      -4.166   2.752  23.627  0.00  0.00    +0.084 C 
ATOM     16  C   UNL     1      -4.484   2.596  25.921  0.00  0.00    +0.084 C 
ATOM     17  C   UNL     1      -3.509   3.996  24.205  0.00  0.00    +0.017 C 
ATOM     18  C   UNL     1      -3.713   3.892  25.713  0.00  0.00    +0.017 C 
ENDBRANCH  13   4
ENDBRANCH   7  13
BRANCH   9  14
ATOM     14  C   UNL     1      -0.950   0.547  25.959  0.00  0.00    +0.123 C 
BRANCH  14   5
ATOM      1  O   UNL     1      -0.510   2.710  24.089  0.00  0.00    -0.273 OA
ATOM      5  N   UNL     1       0.199   0.735  25.089  0.00  0.00    -0.312 N 
ATOM     19  C   UNL     1       0.312   1.809  24.227  0.00  0.00    +0.239 C 
ATOM     22  H   UNL     1       0.939   0.040  25.123  0.00  0.00    +0.149 HD
BRANCH  19  20
ATOM     20  C   UNL     1       1.607   1.755  23.444  0.00  0.00    +0.255 C 
BRANCH  20   2
ATOM      2  O   UNL     1       1.837   0.451  22.953  0.00  0.00    -0.374 OA
ATOM     21  C   UNL     1       3.171   0.291  22.476  0.00  0.00    +0.194 C 
ENDBRANCH  20   2
ENDBRANCH  19  20
ENDBRANCH  14   5
ENDBRANCH   9  14
TORSDOF 6
ENDMDL
MODEL 5
REMARK VINA RESULT:      -5.1      2.492      4.710
REMARK  Name = 40779638
REMARK  7 active torsions:
REMARK  status: ('A' for Active; 'I' for Inactive)
REMARK    1  A    between atoms: O_2  and  C_20
REMARK    2  A    between atoms: O_2  and  C_21
REMARK    3  A    between atoms: N_4  and  C_13
REMARK    4  A    between atoms: N_5  and  C_14
REMARK    5  A    between atoms: C_7  and  C_13
REMARK    6  A    between atoms: C_9  and  C_14
REMARK    7  A    between atoms: C_19  and  C_20
REMARK                            x       y       z     vdW  Elec       q    Type
REMARK                         _______ _______ _______ _____ _____    ______ ____
ROOT
ATOM      3  N   UNL     1      -2.100  -2.267  24.278  0.00  0.00    -0.298 NA
ATOM      6  C   UNL     1      -3.364  -0.600  25.823  0.00  0.00    -0.003 C 
ATOM      7  C   UNL     1      -3.920  -0.546  24.383  0.00  0.00    +0.020 C 
ATOM      8  C   UNL     1      -1.855  -0.298  25.799  0.00  0.00    +0.024 C 
ATOM      9  C   UNL     1      -1.127  -1.394  24.990  0.00  0.00    +0.074 C 
ATOM     10  C   UNL     1      -3.043  -1.444  23.482  0.00  0.00    +0.089 C 
ATOM     11  C   UNL     1      -3.531  -2.052  26.314  0.00  0.00    +0.019 C 
ATOM     12  C   UNL     1      -2.882  -3.008  25.298  0.00  0.00    +0.085 C 
ENDROOT
BRANCH   7  13
ATOM     13  C   UNL     1      -4.027   0.874  23.831  0.00  0.00    +0.089 C 
BRANCH  13   4
ATOM      4  N   UNL     1      -4.435   1.806  24.872  0.00  0.00    -0.302 NA
ATOM     15  C   UNL     1      -4.100   3.191  24.543  0.00  0.00    +0.084 C 
ATOM     16  C   UNL     1      -5.881   1.804  25.086  0.00  0.00    +0.084 C 
ATOM     17  C   UNL     1      -4.938   3.988  25.532  0.00  0.00    +0.017 C 
ATOM     18  C   UNL     1      -6.107   3.076  25.892  0.00  0.00    +0.017 C 
ENDBRANCH  13   4
ENDBRANCH   7  13
BRANCH   9  14
ATOM     14  C   UNL     1      -0.075  -0.803  24.048  0.00  0.00    +0.123 C 
BRANCH  14   5
ATOM      1  O   UNL     1      -1.208   1.612  22.929  0.00  0.00    -0.273 OA
ATOM      5  N   UNL     1       0.237   0.566  24.420  0.00  0.00    -0.312 N 
ATOM     19  C   UNL     1      -0.365   1.656  23.820  0.00  0.00    +0.239 C 
ATOM     22  H   UNL     1       0.928   0.714  25.149  0.00  0.00    +0.149 HD
BRANCH  19  20
ATOM     20  C   UNL     1       0.145   2.957  24.402  0.00  0.00    +0.255 C 
BRANCH  20   2
ATOM      2  O   UNL     1      -0.798   3.505  25.299  0.00  0.00    -0.374 OA
ATOM     21  C   UNL     1      -1.011   4.894  25.063  0.00  0.00    +0.194 C 
ENDBRANCH  20   2
ENDBRANCH  19  20
ENDBRANCH  14   5
ENDBRANCH   9  14
TORSDOF 6
ENDMDL
MODEL 6
REMARK VINA RESULT:      -5.1      3.222      5.380
REMARK  Name = 40779638
REMARK  7 active torsions:
REMARK  status: ('A' for Active; 'I' for Inactive)
REMARK    1  A    between atoms: O_2  and  C_20
REMARK    2  A    between atoms: O_2  and  C_21
REMARK    3  A    between atoms: N_4  and  C_13
REMARK    4  A    between atoms: N_5  and  C_14
REMARK    5  A    between atoms: C_7  and  C_13
REMARK    6  A    between atoms: C_9  and  C_14
REMARK    7  A    between atoms: C_19  and  C_20
REMARK                            x       y       z     vdW  Elec       q    Type
REMARK                         _______ _______ _______ _____ _____    ______ ____
ROOT
ATOM      3  N   UNL     1      -0.661   2.953  23.749  0.00  0.00    -0.298 NA
ATOM      6  C   UNL     1      -0.607   1.195  25.665  0.00  0.00    -0.003 C 
ATOM      7  C   UNL     1      -1.757   0.899  24.676  0.00  0.00    +0.020 C 
ATOM      8  C   UNL     1      -0.770   2.619  26.225  0.00  0.00    +0.024 C 
ATOM      9  C   UNL     1      -0.651   3.639  25.070  0.00  0.00    +0.074 C 
ATOM     10  C   UNL     1      -1.831   2.048  23.647  0.00  0.00    +0.089 C 
ATOM     11  C   UNL     1       0.701   1.171  24.850  0.00  0.00    +0.019 C 
ATOM     12  C   UNL     1       0.569   2.129  23.653  0.00  0.00    +0.085 C 
ENDROOT
BRANCH   7  13
ATOM     13  C   UNL     1      -3.101   0.671  25.366  0.00  0.00    +0.089 C 
BRANCH  13   4
ATOM      4  N   UNL     1      -3.548  -0.703  25.192  0.00  0.00    -0.302 NA
ATOM     15  C   UNL     1      -4.275  -0.898  23.938  0.00  0.00    +0.084 C 
ATOM     16  C   UNL     1      -2.435  -1.649  25.137  0.00  0.00    +0.084 C 
ATOM     17  C   UNL     1      -4.292  -2.412  23.786  0.00  0.00    +0.017 C 
ATOM     18  C   UNL     1      -3.085  -2.906  24.577  0.00  0.00    +0.017 C 
ENDBRANCH  13   4
ENDBRANCH   7  13
BRANCH   9  14
ATOM     14  C   UNL     1      -1.715   4.735  25.166  0.00  0.00    +0.123 C 
BRANCH  14   5
ATOM      1  O   UNL     1      -4.245   4.296  23.835  0.00  0.00    -0.273 OA
ATOM      5  N   UNL     1      -2.938   4.215  25.755  0.00  0.00    -0.312 N 
ATOM     19  C   UNL     1      -4.100   4.042  25.027  0.00  0.00    +0.239 C 
ATOM     22  H   UNL     1      -2.925   3.976  26.742  0.00  0.00    +0.149 HD
BRANCH  19  20
ATOM     20  C   UNL     1      -5.213   3.485  25.889  0.00  0.00    +0.255 C 
BRANCH  20   2
ATOM      2  O   UNL     1      -5.874   2.429  25.225  0.00  0.00    -0.374 OA
ATOM     21  C   UNL     1      -6.468   1.515  26.143  0.00  0.00    +0.194 C 
ENDBRANCH  20   2
ENDBRANCH  19  20
ENDBRANCH  14   5
ENDBRANCH   9  14
TORSDOF 6
ENDMDL
MODEL 7
REMARK VINA RESULT:      -4.7      2.589      4.807
REMARK  Name = 40779638
REMARK  7 active torsions:
REMARK  status: ('A' for Active; 'I' for Inactive)
REMARK    1  A    between atoms: O_2  and  C_20
REMARK    2  A    between atoms: O_2  and  C_21
REMARK    3  A    between atoms: N_4  and  C_13
REMARK    4  A    between atoms: N_5  and  C_14
REMARK    5  A    between atoms: C_7  and  C_13
REMARK    6  A    between atoms: C_9  and  C_14
REMARK    7  A    between atoms: C_19  and  C_20
REMARK                            x       y       z     vdW  Elec       q    Type
REMARK                         _______ _______ _______ _____ _____    ______ ____
ROOT
ATOM      3  N   UNL     1      -2.277  -1.333  23.731  0.00  0.00    -0.298 NA
ATOM      6  C   UNL     1      -3.619  -1.356  25.959  0.00  0.00    -0.003 C 
ATOM      7  C   UNL     1      -4.297  -0.440  24.916  0.00  0.00    +0.020 C 
ATOM      8  C   UNL     1      -2.172  -0.884  26.189  0.00  0.00    +0.024 C 
ATOM      9  C   UNL     1      -1.375  -1.024  24.873  0.00  0.00    +0.074 C 
ATOM     10  C   UNL     1      -3.387  -0.351  23.671  0.00  0.00    +0.089 C 
ATOM     11  C   UNL     1      -3.547  -2.765  25.338  0.00  0.00    +0.019 C 
ATOM     12  C   UNL     1      -2.863  -2.677  23.962  0.00  0.00    +0.085 C 
ENDROOT
BRANCH   7  13
ATOM     13  C   UNL     1      -4.641   0.944  25.464  0.00  0.00    +0.089 C 
BRANCH  13   4
ATOM      4  N   UNL     1      -3.813   1.968  24.846  0.00  0.00    -0.302 NA
ATOM     15  C   UNL     1      -4.559   2.789  23.893  0.00  0.00    +0.084 C 
ATOM     16  C   UNL     1      -3.273   2.913  25.821  0.00  0.00    +0.084 C 
ATOM     17  C   UNL     1      -3.643   3.986  23.684  0.00  0.00    +0.017 C 
ATOM     18  C   UNL     1      -2.795   4.066  24.949  0.00  0.00    +0.017 C 
ENDBRANCH  13   4
ENDBRANCH   7  13
BRANCH   9  14
ATOM     14  C   UNL     1      -0.496   0.200  24.607  0.00  0.00    +0.123 C 
BRANCH  14   5
ATOM      1  O   UNL     1       0.567   2.880  24.838  0.00  0.00    -0.273 OA
ATOM      5  N   UNL     1      -0.288   0.959  25.828  0.00  0.00    -0.312 N 
ATOM     19  C   UNL     1       0.229   2.241  25.830  0.00  0.00    +0.239 C 
ATOM     22  H   UNL     1      -0.534   0.518  26.710  0.00  0.00    +0.149 HD
BRANCH  19  20
ATOM     20  C   UNL     1       0.335   2.792  27.236  0.00  0.00    +0.255 C 
BRANCH  20   2
ATOM      2  O   UNL     1       1.658   2.682  27.715  0.00  0.00    -0.374 OA
ATOM     21  C   UNL     1       1.697   2.472  29.124  0.00  0.00    +0.194 C 
ENDBRANCH  20   2
ENDBRANCH  19  20
ENDBRANCH  14   5
ENDBRANCH   9  14
TORSDOF 6
ENDMDL
MODEL 8
REMARK VINA RESULT:      -4.6      2.345      4.444
REMARK  Name = 40779638
REMARK  7 active torsions:
REMARK  status: ('A' for Active; 'I' for Inactive)
REMARK    1  A    between atoms: O_2  and  C_20
REMARK    2  A    between atoms: O_2  and  C_21
REMARK    3  A    between atoms: N_4  and  C_13
REMARK    4  A    between atoms: N_5  and  C_14
REMARK    5  A    between atoms: C_7  and  C_13
REMARK    6  A    between atoms: C_9  and  C_14
REMARK    7  A    between atoms: C_19  and  C_20
REMARK                            x       y       z     vdW  Elec       q    Type
REMARK                         _______ _______ _______ _____ _____    ______ ____
ROOT
ATOM      3  N   UNL     1      -0.360   1.464  25.679  0.00  0.00    -0.298 NA
ATOM      6  C   UNL     1      -0.991   3.542  24.248  0.00  0.00    -0.003 C 
ATOM      7  C   UNL     1      -2.257   2.816  24.756  0.00  0.00    +0.020 C 
ATOM      8  C   UNL     1      -0.126   2.556  23.442  0.00  0.00    +0.024 C 
ATOM      9  C   UNL     1       0.345   1.413  24.370  0.00  0.00    +0.074 C 
ATOM     10  C   UNL     1      -1.827   1.517  25.473  0.00  0.00    +0.089 C 
ATOM     11  C   UNL     1      -0.179   3.949  25.494  0.00  0.00    +0.019 C 
ATOM     12  C   UNL     1       0.055   2.708  26.374  0.00  0.00    +0.085 C 
ENDROOT
BRANCH   7  13
ATOM     13  C   UNL     1      -3.276   2.540  23.651  0.00  0.00    +0.089 C 
BRANCH  13   4
ATOM      4  N   UNL     1      -4.634   2.613  24.168  0.00  0.00    -0.302 NA
ATOM     15  C   UNL     1      -5.075   1.350  24.759  0.00  0.00    +0.084 C 
ATOM     16  C   UNL     1      -4.773   3.602  25.236  0.00  0.00    +0.084 C 
ATOM     17  C   UNL     1      -6.306   1.758  25.555  0.00  0.00    +0.017 C 
ATOM     18  C   UNL     1      -6.110   3.239  25.865  0.00  0.00    +0.017 C 
ENDBRANCH  13   4
ENDBRANCH   7  13
BRANCH   9  14
ATOM     14  C   UNL     1       0.224   0.045  23.694  0.00  0.00    +0.123 C 
BRANCH  14   5
ATOM      1  O   UNL     1      -0.003  -2.192  25.514  0.00  0.00    -0.273 OA
ATOM      5  N   UNL     1      -0.995  -0.628  24.110  0.00  0.00    -0.312 N 
ATOM     19  C   UNL     1      -0.995  -1.693  24.990  0.00  0.00    +0.239 C 
ATOM     22  H   UNL     1      -1.876  -0.293  23.729  0.00  0.00    +0.149 HD
BRANCH  19  20
ATOM     20  C   UNL     1      -2.399  -2.197  25.248  0.00  0.00    +0.255 C 
BRANCH  20   2
ATOM      2  O   UNL     1      -2.970  -2.709  24.062  0.00  0.00    -0.374 OA
ATOM     21  C   UNL     1      -4.250  -2.141  23.800  0.00  0.00    +0.194 C 
ENDBRANCH  20   2
ENDBRANCH  19  20
ENDBRANCH  14   5
ENDBRANCH   9  14
TORSDOF 6
ENDMDL
MODEL 9
REMARK VINA RESULT:      -4.6      2.758      5.896
REMARK  Name = 40779638
REMARK  7 active torsions:
REMARK  status: ('A' for Active; 'I' for Inactive)
REMARK    1  A    between atoms: O_2  and  C_20
REMARK    2  A    between atoms: O_2  and  C_21
REMARK    3  A    between atoms: N_4  and  C_13
REMARK    4  A    between atoms: N_5  and  C_14
REMARK    5  A    between atoms: C_7  and  C_13
REMARK    6  A    between atoms: C_9  and  C_14
REMARK    7  A    between atoms: C_19  and  C_20
REMARK                            x       y       z     vdW  Elec       q    Type
REMARK                         _______ _______ _______ _____ _____    ______ ____
ROOT
ATOM      3  N   UNL     1      -3.584  -1.126  25.969  0.00  0.00    -0.298 NA
ATOM      6  C   UNL     1      -2.390  -1.300  23.666  0.00  0.00    -0.003 C 
ATOM      7  C   UNL     1      -1.452  -0.685  24.729  0.00  0.00    +0.020 C 
ATOM      8  C   UNL     1      -3.670  -0.452  23.563  0.00  0.00    +0.024 C 
ATOM      9  C   UNL     1      -4.421  -0.496  24.913  0.00  0.00    +0.074 C 
ATOM     10  C   UNL     1      -2.254  -0.473  26.032  0.00  0.00    +0.089 C 
ATOM     11  C   UNL     1      -2.804  -2.691  24.185  0.00  0.00    +0.019 C 
ATOM     12  C   UNL     1      -3.383  -2.550  25.604  0.00  0.00    +0.085 C 
ENDROOT
BRANCH   7  13
ATOM     13  C   UNL     1      -0.780   0.606  24.264  0.00  0.00    +0.089 C 
BRANCH  13   4
ATOM      4  N   UNL     1       0.622   0.376  23.946  0.00  0.00    -0.302 NA
ATOM     15  C   UNL     1       0.798  -0.327  22.676  0.00  0.00    +0.084 C 
ATOM     16  C   UNL     1       1.372   1.622  23.799  0.00  0.00    +0.084 C 
ATOM     17  C   UNL     1       2.272  -0.109  22.368  0.00  0.00    +0.017 C 
ATOM     18  C   UNL     1       2.651   1.170  23.108  0.00  0.00    +0.017 C 
ENDBRANCH  13   4
ENDBRANCH   7  13
BRANCH   9  14
ATOM     14  C   UNL     1      -4.936   0.886  25.323  0.00  0.00    +0.123 C 
BRANCH  14   5
ATOM      1  O   UNL     1      -5.290   3.745  25.579  0.00  0.00    -0.273 OA
ATOM      5  N   UNL     1      -4.014   1.925  24.897  0.00  0.00    -0.312 N 
ATOM     19  C   UNL     1      -4.280   3.271  25.067  0.00  0.00    +0.239 C 
ATOM     22  H   UNL     1      -3.145   1.638  24.456  0.00  0.00    +0.149 HD
BRANCH  19  20
ATOM     20  C   UNL     1      -3.150   4.128  24.536  0.00  0.00    +0.255 C 
BRANCH  20   2
ATOM      2  O   UNL     1      -2.172   4.334  25.532  0.00  0.00    -0.374 OA
ATOM     21  C   UNL     1      -0.915   4.705  24.972  0.00  0.00    +0.194 C 
ENDBRANCH  20   2
ENDBRANCH  19  20
ENDBRANCH  14   5
ENDBRANCH   9  14
TORSDOF 6
ENDMDL
MODEL 10
REMARK VINA RESULT:      -4.5      2.489      5.081
REMARK  Name = 40779638
REMARK  7 active torsions:
REMARK  status: ('A' for Active; 'I' for Inactive)
REMARK    1  A    between atoms: O_2  and  C_20
REMARK    2  A    between atoms: O_2  and  C_21
REMARK    3  A    between atoms: N_4  and  C_13
REMARK    4  A    between atoms: N_5  and  C_14
REMARK    5  A    between atoms: C_7  and  C_13
REMARK    6  A    between atoms: C_9  and  C_14
REMARK    7  A    between atoms: C_19  and  C_20
REMARK                            x       y       z     vdW  Elec       q    Type
REMARK                         _______ _______ _______ _____ _____    ______ ____
ROOT
ATOM      3  N   UNL     1      -3.630   3.564  23.783  0.00  0.00    -0.298 NA
ATOM      6  C   UNL     1      -2.199   3.678  25.952  0.00  0.00    -0.003 C 
ATOM      7  C   UNL     1      -1.557   2.727  24.917  0.00  0.00    +0.020 C 
ATOM      8  C   UNL     1      -3.632   3.206  26.258  0.00  0.00    +0.024 C 
ATOM      9  C   UNL     1      -4.483   3.293  24.971  0.00  0.00    +0.074 C 
ATOM     10  C   UNL     1      -2.517   2.586  23.714  0.00  0.00    +0.089 C 
ATOM     11  C   UNL     1      -2.307   5.062  25.282  0.00  0.00    +0.019 C 
ATOM     12  C   UNL     1      -3.046   4.918  23.939  0.00  0.00    +0.085 C 
ENDROOT
BRANCH   7  13
ATOM     13  C   UNL     1      -1.181   1.367  25.501  0.00  0.00    +0.089 C 
BRANCH  13   4
ATOM      4  N   UNL     1       0.004   0.831  24.849  0.00  0.00    -0.302 NA
ATOM     15  C   UNL     1      -0.323  -0.149  23.814  0.00  0.00    +0.084 C 
ATOM     16  C   UNL     1       0.779   1.864  24.164  0.00  0.00    +0.084 C 
ATOM     17  C   UNL     1       0.977  -0.266  23.032  0.00  0.00    +0.017 C 
ATOM     18  C   UNL     1       1.703   1.055  23.264  0.00  0.00    +0.017 C 
ENDBRANCH  13   4
ENDBRANCH   7  13
BRANCH   9  14
ATOM     14  C   UNL     1      -5.363   2.054  24.787  0.00  0.00    +0.123 C 
BRANCH  14   5
ATOM      1  O   UNL     1      -4.067  -0.247  23.608  0.00  0.00    -0.273 OA
ATOM      5  N   UNL     1      -4.797   0.912  25.485  0.00  0.00    -0.312 N 
ATOM     19  C   UNL     1      -4.196  -0.142  24.824  0.00  0.00    +0.239 C 
ATOM     22  H   UNL     1      -4.855   0.899  26.499  0.00  0.00    +0.149 HD
BRANCH  19  20
ATOM     20  C   UNL     1      -3.694  -1.189  25.795  0.00  0.00    +0.255 C 
BRANCH  20   2
ATOM      2  O   UNL     1      -2.797  -2.072  25.156  0.00  0.00    -0.374 OA
ATOM     21  C   UNL     1      -3.478  -3.135  24.495  0.00  0.00    +0.194 C 
ENDBRANCH  20   2
ENDBRANCH  19  20
ENDBRANCH  14   5
ENDBRANCH   9  14
TORSDOF 6
ENDMDL
