MODEL 1
REMARK VINA RESULT:      -3.8      0.000      0.000
REMARK  Name = 45783594
REMARK  4 active torsions:
REMARK  status: ('A' for Active; 'I' for Inactive)
REMARK    1  A    between atoms: O_1  and  C_7
REMARK    2  A    between atoms: O_1  and  C_18
REMARK    3  A    between atoms: C_13  and  C_17
REMARK    4  A    between atoms: C_19  and  C_20
REMARK                            x       y       z     vdW  Elec       q    Type
REMARK                         _______ _______ _______ _____ _____    ______ ____
ROOT
ATOM      6  N   UNL     1      11.457  -6.732  31.561  0.00  0.00    -0.221 NA
ATOM     18  C   UNL     1      11.433  -8.042  31.890  0.00  0.00    +0.215 A 
ATOM     20  C   UNL     1      13.616  -7.111  30.542  0.00  0.00    +0.041 A 
ATOM     21  C   UNL     1      12.447  -8.937  31.584  0.00  0.00    +0.068 A 
ATOM     22  C   UNL     1      13.555  -8.454  30.898  0.00  0.00    +0.018 A 
ATOM     23  C   UNL     1      12.550  -6.299  30.894  0.00  0.00    +0.126 A 
ENDROOT
BRANCH  20  19
ATOM      2  O   UNL     1      16.390  -5.350  29.254  0.00  0.00    -0.336 OA
ATOM      4  N   UNL     1      15.239  -7.195  28.718  0.00  0.00    -0.190 NA
ATOM      5  N   UNL     1      15.381  -5.474  30.218  0.00  0.00    -0.056 NA
ATOM     17  C   UNL     1      16.234  -6.402  28.409  0.00  0.00    +0.245 A 
ATOM     19  C   UNL     1      14.746  -6.585  29.834  0.00  0.00    +0.204 A 
BRANCH  17  13
ATOM      3  N   UNL     1      16.923  -7.642  26.385  0.00  0.00    -0.305 NA
ATOM     13  C   UNL     1      17.215  -6.498  27.264  0.00  0.00    +0.143 C 
ATOM     14  C   UNL     1      17.221  -5.268  26.344  0.00  0.00    +0.029 C 
ATOM     15  C   UNL     1      16.972  -5.820  24.949  0.00  0.00    +0.017 C 
ATOM     16  C   UNL     1      17.398  -7.269  25.056  0.00  0.00    +0.081 C 
ATOM     24  H   UNL     1      15.911  -7.769  26.332  0.00  0.00    +0.123 HD
ENDBRANCH  17  13
ENDBRANCH  20  19
BRANCH  18   1
ATOM      1  O   UNL     1      10.331  -8.493  32.566  0.00  0.00    -0.473 OA
BRANCH   1   7
ATOM      7  C   UNL     1       9.194  -8.835  31.781  0.00  0.00    +0.175 C 
ATOM      8  C   UNL     1       7.956  -8.136  32.339  0.00  0.00    +0.044 C 
ATOM      9  C   UNL     1       9.022 -10.354  31.761  0.00  0.00    +0.044 C 
ATOM     10  C   UNL     1       6.692  -8.548  31.591  0.00  0.00    +0.004 C 
ATOM     11  C   UNL     1       7.760 -10.766  31.012  0.00  0.00    +0.004 C 
ATOM     12  C   UNL     1       6.522 -10.066  31.569  0.00  0.00    +0.000 C 
ENDBRANCH   1   7
ENDBRANCH  18   1
TORSDOF 4
ENDMDL
MODEL 2
REMARK VINA RESULT:      -3.5      2.753      3.448
REMARK  Name = 45783594
REMARK  4 active torsions:
REMARK  status: ('A' for Active; 'I' for Inactive)
REMARK    1  A    between atoms: O_1  and  C_7
REMARK    2  A    between atoms: O_1  and  C_18
REMARK    3  A    between atoms: C_13  and  C_17
REMARK    4  A    between atoms: C_19  and  C_20
REMARK                            x       y       z     vdW  Elec       q    Type
REMARK                         _______ _______ _______ _____ _____    ______ ____
ROOT
ATOM      6  N   UNL     1      11.124  -8.332  32.865  0.00  0.00    -0.221 NA
ATOM     18  C   UNL     1      11.047  -9.550  32.286  0.00  0.00    +0.215 A 
ATOM     20  C   UNL     1      12.917  -7.808  31.331  0.00  0.00    +0.041 A 
ATOM     21  C   UNL     1      11.857  -9.964  31.240  0.00  0.00    +0.068 A 
ATOM     22  C   UNL     1      12.808  -9.071  30.760  0.00  0.00    +0.018 A 
ATOM     23  C   UNL     1      12.060  -7.490  32.372  0.00  0.00    +0.126 A 
ENDROOT
BRANCH  20  19
ATOM      2  O   UNL     1      15.096  -5.659  29.573  0.00  0.00    -0.336 OA
ATOM      4  N   UNL     1      14.676  -6.155  31.716  0.00  0.00    -0.190 NA
ATOM      5  N   UNL     1      14.081  -6.624  29.557  0.00  0.00    -0.056 NA
ATOM     17  C   UNL     1      15.389  -5.442  30.881  0.00  0.00    +0.245 A 
ATOM     19  C   UNL     1      13.888  -6.865  30.858  0.00  0.00    +0.204 A 
BRANCH  17  13
ATOM      3  N   UNL     1      16.829  -3.650  29.973  0.00  0.00    -0.305 NA
ATOM     13  C   UNL     1      16.471  -4.427  31.171  0.00  0.00    +0.143 C 
ATOM     14  C   UNL     1      16.081  -3.387  32.231  0.00  0.00    +0.029 C 
ATOM     15  C   UNL     1      16.298  -2.040  31.558  0.00  0.00    +0.017 C 
ATOM     16  C   UNL     1      17.284  -2.348  30.451  0.00  0.00    +0.081 C 
ATOM     24  H   UNL     1      15.988  -3.501  29.411  0.00  0.00    +0.123 HD
ENDBRANCH  17  13
ENDBRANCH  20  19
BRANCH  18   1
ATOM      1  O   UNL     1      10.104 -10.413  32.777  0.00  0.00    -0.473 OA
BRANCH   1   7
ATOM      7  C   UNL     1       8.751 -10.154  32.418  0.00  0.00    +0.175 C 
ATOM      8  C   UNL     1       8.452 -10.781  31.058  0.00  0.00    +0.044 C 
ATOM      9  C   UNL     1       8.502  -8.645  32.409  0.00  0.00    +0.044 C 
ATOM     10  C   UNL     1       7.040 -10.448  30.584  0.00  0.00    +0.004 C 
ATOM     11  C   UNL     1       7.092  -8.312  31.936  0.00  0.00    +0.004 C 
ATOM     12  C   UNL     1       6.791  -8.941  30.576  0.00  0.00    +0.000 C 
ENDBRANCH   1   7
ENDBRANCH  18   1
TORSDOF 4
ENDMDL
MODEL 3
REMARK VINA RESULT:      -3.0     24.971     27.267
REMARK  Name = 45783594
REMARK  4 active torsions:
REMARK  status: ('A' for Active; 'I' for Inactive)
REMARK    1  A    between atoms: O_1  and  C_7
REMARK    2  A    between atoms: O_1  and  C_18
REMARK    3  A    between atoms: C_13  and  C_17
REMARK    4  A    between atoms: C_19  and  C_20
REMARK                            x       y       z     vdW  Elec       q    Type
REMARK                         _______ _______ _______ _____ _____    ______ ____
ROOT
ATOM      6  N   UNL     1      -7.175  -8.948   9.536  0.00  0.00    -0.221 NA
ATOM     18  C   UNL     1      -8.513  -9.078   9.675  0.00  0.00    +0.215 A 
ATOM     20  C   UNL     1      -6.956  -9.585  11.857  0.00  0.00    +0.041 A 
ATOM     21  C   UNL     1      -9.138  -9.453  10.854  0.00  0.00    +0.068 A 
ATOM     22  C   UNL     1      -8.338  -9.709  11.961  0.00  0.00    +0.018 A 
ATOM     23  C   UNL     1      -6.429  -9.205  10.634  0.00  0.00    +0.126 A 
ENDROOT
BRANCH  20  19
ATOM      2  O   UNL     1      -5.382 -10.053  14.981  0.00  0.00    -0.336 OA
ATOM      4  N   UNL     1      -4.813 -10.252  12.824  0.00  0.00    -0.190 NA
ATOM      5  N   UNL     1      -6.519  -9.700  14.245  0.00  0.00    -0.056 NA
ATOM     17  C   UNL     1      -4.423 -10.362  14.069  0.00  0.00    +0.245 A 
ATOM     19  C   UNL     1      -6.106  -9.843  12.982  0.00  0.00    +0.204 A 
BRANCH  17  13
ATOM      3  N   UNL     1      -1.969 -10.103  13.929  0.00  0.00    -0.305 NA
ATOM     13  C   UNL     1      -3.080 -10.780  14.618  0.00  0.00    +0.143 C 
ATOM     14  C   UNL     1      -2.889 -10.461  16.109  0.00  0.00    +0.029 C 
ATOM     15  C   UNL     1      -1.612  -9.637  16.173  0.00  0.00    +0.017 C 
ATOM     16  C   UNL     1      -0.883 -10.006  14.899  0.00  0.00    +0.081 C 
ATOM     24  H   UNL     1      -2.259  -9.154  13.686  0.00  0.00    +0.123 HD
ENDBRANCH  17  13
ENDBRANCH  20  19
BRANCH  18   1
ATOM      1  O   UNL     1      -9.280  -8.819   8.570  0.00  0.00    -0.473 OA
BRANCH   1   7
ATOM      7  C   UNL     1      -9.441  -7.451   8.209  0.00  0.00    +0.175 C 
ATOM      8  C   UNL     1      -8.124  -6.707   8.415  0.00  0.00    +0.044 C 
ATOM      9  C   UNL     1     -10.572  -6.833   9.032  0.00  0.00    +0.044 C 
ATOM     10  C   UNL     1      -8.271  -5.215   8.135  0.00  0.00    +0.004 C 
ATOM     11  C   UNL     1     -10.720  -5.342   8.751  0.00  0.00    +0.004 C 
ATOM     12  C   UNL     1      -9.401  -4.598   8.955  0.00  0.00    +0.000 C 
ENDBRANCH   1   7
ENDBRANCH  18   1
TORSDOF 4
ENDMDL
MODEL 4
REMARK VINA RESULT:      -1.9      3.168      4.876
REMARK  Name = 45783594
REMARK  4 active torsions:
REMARK  status: ('A' for Active; 'I' for Inactive)
REMARK    1  A    between atoms: O_1  and  C_7
REMARK    2  A    between atoms: O_1  and  C_18
REMARK    3  A    between atoms: C_13  and  C_17
REMARK    4  A    between atoms: C_19  and  C_20
REMARK                            x       y       z     vdW  Elec       q    Type
REMARK                         _______ _______ _______ _____ _____    ______ ____
ROOT
ATOM      6  N   UNL     1      15.454  -7.832  28.940  0.00  0.00    -0.221 NA
ATOM     18  C   UNL     1      16.120  -7.962  30.109  0.00  0.00    +0.215 A 
ATOM     20  C   UNL     1      16.684  -5.786  28.561  0.00  0.00    +0.041 A 
ATOM     21  C   UNL     1      17.069  -7.060  30.565  0.00  0.00    +0.068 A 
ATOM     22  C   UNL     1      17.350  -5.955  29.771  0.00  0.00    +0.018 A 
ATOM     23  C   UNL     1      15.753  -6.745  28.195  0.00  0.00    +0.126 A 
ENDROOT
BRANCH  20  19
ATOM      2  O   UNL     1      17.405  -2.677  27.054  0.00  0.00    -0.336 OA
ATOM      4  N   UNL     1      16.964  -4.761  26.361  0.00  0.00    -0.190 NA
ATOM      5  N   UNL     1      17.208  -3.440  28.213  0.00  0.00    -0.056 NA
ATOM     17  C   UNL     1      17.241  -3.531  26.010  0.00  0.00    +0.245 A 
ATOM     19  C   UNL     1      16.953  -4.656  27.722  0.00  0.00    +0.204 A 
BRANCH  17  13
ATOM      3  N   UNL     1      16.383  -3.443  23.694  0.00  0.00    -0.305 NA
ATOM     13  C   UNL     1      17.405  -2.943  24.627  0.00  0.00    +0.143 C 
ATOM     14  C   UNL     1      17.285  -1.412  24.583  0.00  0.00    +0.029 C 
ATOM     15  C   UNL     1      16.198  -1.134  23.555  0.00  0.00    +0.017 C 
ATOM     16  C   UNL     1      16.179  -2.388  22.707  0.00  0.00    +0.081 C 
ATOM     24  H   UNL     1      15.505  -3.571  24.201  0.00  0.00    +0.123 HD
ENDBRANCH  17  13
ENDBRANCH  20  19
BRANCH  18   1
ATOM      1  O   UNL     1      15.825  -9.059  30.873  0.00  0.00    -0.473 OA
BRANCH   1   7
ATOM      7  C   UNL     1      14.584  -9.037  31.572  0.00  0.00    +0.175 C 
ATOM      8  C   UNL     1      13.553  -9.867  30.812  0.00  0.00    +0.044 C 
ATOM      9  C   UNL     1      14.122  -7.591  31.751  0.00  0.00    +0.044 C 
ATOM     10  C   UNL     1      12.178  -9.796  31.470  0.00  0.00    +0.004 C 
ATOM     11  C   UNL     1      12.749  -7.519  32.409  0.00  0.00    +0.004 C 
ATOM     12  C   UNL     1      11.717  -8.351  31.650  0.00  0.00    +0.000 C 
ENDBRANCH   1   7
ENDBRANCH  18   1
TORSDOF 4
ENDMDL
MODEL 5
REMARK VINA RESULT:      -1.8     15.612     17.635
REMARK  Name = 45783594
REMARK  4 active torsions:
REMARK  status: ('A' for Active; 'I' for Inactive)
REMARK    1  A    between atoms: O_1  and  C_7
REMARK    2  A    between atoms: O_1  and  C_18
REMARK    3  A    between atoms: C_13  and  C_17
REMARK    4  A    between atoms: C_19  and  C_20
REMARK                            x       y       z     vdW  Elec       q    Type
REMARK                         _______ _______ _______ _____ _____    ______ ____
ROOT
ATOM      6  N   UNL     1      -2.726   2.687  23.398  0.00  0.00    -0.221 NA
ATOM     18  C   UNL     1      -2.611   3.444  24.512  0.00  0.00    +0.215 A 
ATOM     20  C   UNL     1      -0.541   1.779  23.890  0.00  0.00    +0.041 A 
ATOM     21  C   UNL     1      -1.510   3.424  25.353  0.00  0.00    +0.068 A 
ATOM     22  C   UNL     1      -0.459   2.573  25.029  0.00  0.00    +0.018 A 
ATOM     23  C   UNL     1      -1.685   1.872  23.115  0.00  0.00    +0.126 A 
ENDROOT
BRANCH  20  19
ATOM      2  O   UNL     1       1.616  -0.849  22.941  0.00  0.00    -0.336 OA
ATOM      4  N   UNL     1       1.825   1.311  23.494  0.00  0.00    -0.190 NA
ATOM      5  N   UNL     1       0.321  -0.390  23.213  0.00  0.00    -0.056 NA
ATOM     17  C   UNL     1       2.440   0.214  23.132  0.00  0.00    +0.245 A 
ATOM     19  C   UNL     1       0.527   0.892  23.531  0.00  0.00    +0.204 A 
BRANCH  17  13
ATOM      3  N   UNL     1       4.740   1.061  23.448  0.00  0.00    -0.305 NA
ATOM     13  C   UNL     1       3.914  -0.025  22.898  0.00  0.00    +0.143 C 
ATOM     14  C   UNL     1       4.446  -1.312  23.547  0.00  0.00    +0.029 C 
ATOM     15  C   UNL     1       5.611  -0.860  24.415  0.00  0.00    +0.017 C 
ATOM     16  C   UNL     1       6.023   0.461  23.801  0.00  0.00    +0.081 C 
ATOM     24  H   UNL     1       4.307   1.404  24.308  0.00  0.00    +0.123 HD
ENDBRANCH  17  13
ENDBRANCH  20  19
BRANCH  18   1
ATOM      1  O   UNL     1      -3.659   4.274  24.808  0.00  0.00    -0.473 OA
BRANCH   1   7
ATOM      7  C   UNL     1      -4.901   3.651  25.120  0.00  0.00    +0.175 C 
ATOM      8  C   UNL     1      -4.934   3.286  26.602  0.00  0.00    +0.044 C 
ATOM      9  C   UNL     1      -5.096   2.422  24.233  0.00  0.00    +0.044 C 
ATOM     10  C   UNL     1      -6.206   2.527  26.967  0.00  0.00    +0.004 C 
ATOM     11  C   UNL     1      -6.368   1.664  24.596  0.00  0.00    +0.004 C 
ATOM     12  C   UNL     1      -6.401   1.300  26.079  0.00  0.00    +0.000 C 
ENDBRANCH   1   7
ENDBRANCH  18   1
TORSDOF 4
ENDMDL
MODEL 6
REMARK VINA RESULT:      -1.6     15.132     17.196
REMARK  Name = 45783594
REMARK  4 active torsions:
REMARK  status: ('A' for Active; 'I' for Inactive)
REMARK    1  A    between atoms: O_1  and  C_7
REMARK    2  A    between atoms: O_1  and  C_18
REMARK    3  A    between atoms: C_13  and  C_17
REMARK    4  A    between atoms: C_19  and  C_20
REMARK                            x       y       z     vdW  Elec       q    Type
REMARK                         _______ _______ _______ _____ _____    ______ ____
ROOT
ATOM      6  N   UNL     1      -2.808   0.958  23.571  0.00  0.00    -0.221 NA
ATOM     18  C   UNL     1      -3.087   0.122  24.596  0.00  0.00    +0.215 A 
ATOM     20  C   UNL     1      -0.612  -0.046  23.461  0.00  0.00    +0.041 A 
ATOM     21  C   UNL     1      -2.195  -0.811  25.101  0.00  0.00    +0.068 A 
ATOM     22  C   UNL     1      -0.936  -0.890  24.517  0.00  0.00    +0.018 A 
ATOM     23  C   UNL     1      -1.574   0.852  23.029  0.00  0.00    +0.126 A 
ENDROOT
BRANCH  20  19
ATOM      2  O   UNL     1       2.228  -0.271  21.378  0.00  0.00    -0.336 OA
ATOM      4  N   UNL     1       1.829   0.014  23.563  0.00  0.00    -0.190 NA
ATOM      5  N   UNL     1       0.836  -0.279  21.523  0.00  0.00    -0.056 NA
ATOM     17  C   UNL     1       2.736  -0.096  22.625  0.00  0.00    +0.245 A 
ATOM     19  C   UNL     1       0.678  -0.105  22.839  0.00  0.00    +0.204 A 
BRANCH  17  13
ATOM      3  N   UNL     1       4.700   1.121  23.504  0.00  0.00    -0.305 NA
ATOM     13  C   UNL     1       4.242  -0.051  22.740  0.00  0.00    +0.143 C 
ATOM     14  C   UNL     1       4.848  -1.267  23.457  0.00  0.00    +0.029 C 
ATOM     15  C   UNL     1       5.679  -0.680  24.589  0.00  0.00    +0.017 C 
ATOM     16  C   UNL     1       5.960   0.735  24.131  0.00  0.00    +0.081 C 
ATOM     24  H   UNL     1       4.027   1.317  24.246  0.00  0.00    +0.123 HD
ENDBRANCH  17  13
ENDBRANCH  20  19
BRANCH  18   1
ATOM      1  O   UNL     1      -4.333   0.220  25.155  0.00  0.00    -0.473 OA
BRANCH   1   7
ATOM      7  C   UNL     1      -4.694   1.487  25.697  0.00  0.00    +0.175 C 
ATOM      8  C   UNL     1      -5.952   2.002  25.002  0.00  0.00    +0.044 C 
ATOM      9  C   UNL     1      -3.527   2.462  25.544  0.00  0.00    +0.044 C 
ATOM     10  C   UNL     1      -6.325   3.403  25.481  0.00  0.00    +0.004 C 
ATOM     11  C   UNL     1      -3.898   3.861  26.023  0.00  0.00    +0.004 C 
ATOM     12  C   UNL     1      -5.158   4.376  25.330  0.00  0.00    +0.000 C 
ENDBRANCH   1   7
ENDBRANCH  18   1
TORSDOF 4
ENDMDL
MODEL 7
REMARK VINA RESULT:      -0.1     25.012     27.715
REMARK  Name = 45783594
REMARK  4 active torsions:
REMARK  status: ('A' for Active; 'I' for Inactive)
REMARK    1  A    between atoms: O_1  and  C_7
REMARK    2  A    between atoms: O_1  and  C_18
REMARK    3  A    between atoms: C_13  and  C_17
REMARK    4  A    between atoms: C_19  and  C_20
REMARK                            x       y       z     vdW  Elec       q    Type
REMARK                         _______ _______ _______ _____ _____    ______ ____
ROOT
ATOM      6  N   UNL     1      -6.267  -7.574  10.334  0.00  0.00    -0.221 NA
ATOM     18  C   UNL     1      -7.321  -7.827   9.527  0.00  0.00    +0.215 A 
ATOM     20  C   UNL     1      -7.256  -9.069  11.955  0.00  0.00    +0.041 A 
ATOM     21  C   UNL     1      -8.365  -8.677   9.858  0.00  0.00    +0.068 A 
ATOM     22  C   UNL     1      -8.325  -9.305  11.097  0.00  0.00    +0.018 A 
ATOM     23  C   UNL     1      -6.262  -8.203  11.530  0.00  0.00    +0.126 A 
ENDROOT
BRANCH  20  19
ATOM      2  O   UNL     1      -7.716 -10.761  15.019  0.00  0.00    -0.336 OA
ATOM      4  N   UNL     1      -6.028  -9.737  13.960  0.00  0.00    -0.190 NA
ATOM      5  N   UNL     1      -8.242 -10.294  13.807  0.00  0.00    -0.056 NA
ATOM     17  C   UNL     1      -6.409 -10.389  15.029  0.00  0.00    +0.245 A 
ATOM     19  C   UNL     1      -7.187  -9.703  13.239  0.00  0.00    +0.204 A 
BRANCH  17  13
ATOM      3  N   UNL     1      -4.470  -9.873  16.472  0.00  0.00    -0.305 NA
ATOM     13  C   UNL     1      -5.607 -10.780  16.249  0.00  0.00    +0.143 C 
ATOM     14  C   UNL     1      -6.411 -10.756  17.557  0.00  0.00    +0.029 C 
ATOM     15  C   UNL     1      -5.623  -9.843  18.485  0.00  0.00    +0.017 C 
ATOM     16  C   UNL     1      -4.223  -9.872  17.910  0.00  0.00    +0.081 C 
ATOM     24  H   UNL     1      -4.742  -8.927  16.200  0.00  0.00    +0.123 HD
ENDBRANCH  17  13
ENDBRANCH  20  19
BRANCH  18   1
ATOM      1  O   UNL     1      -7.339  -7.196   8.312  0.00  0.00    -0.473 OA
BRANCH   1   7
ATOM      7  C   UNL     1      -8.337  -6.198   8.124  0.00  0.00    +0.175 C 
ATOM      8  C   UNL     1      -7.851  -4.871   8.703  0.00  0.00    +0.044 C 
ATOM      9  C   UNL     1      -9.645  -6.650   8.773  0.00  0.00    +0.044 C 
ATOM     10  C   UNL     1      -8.925  -3.791   8.613  0.00  0.00    +0.004 C 
ATOM     11  C   UNL     1     -10.719  -5.572   8.683  0.00  0.00    +0.004 C 
ATOM     12  C   UNL     1     -10.232  -4.245   9.260  0.00  0.00    +0.000 C 
ENDBRANCH   1   7
ENDBRANCH  18   1
TORSDOF 4
ENDMDL
MODEL 8
REMARK VINA RESULT:       0.1     14.970     18.459
REMARK  Name = 45783594
REMARK  4 active torsions:
REMARK  status: ('A' for Active; 'I' for Inactive)
REMARK    1  A    between atoms: O_1  and  C_7
REMARK    2  A    between atoms: O_1  and  C_18
REMARK    3  A    between atoms: C_13  and  C_17
REMARK    4  A    between atoms: C_19  and  C_20
REMARK                            x       y       z     vdW  Elec       q    Type
REMARK                         _______ _______ _______ _____ _____    ______ ____
ROOT
ATOM      6  N   UNL     1       1.515   1.853  23.933  0.00  0.00    -0.221 NA
ATOM     18  C   UNL     1       2.057   1.025  23.013  0.00  0.00    +0.215 A 
ATOM     20  C   UNL     1      -0.480   0.491  23.862  0.00  0.00    +0.041 A 
ATOM     21  C   UNL     1       1.403  -0.074  22.478  0.00  0.00    +0.068 A 
ATOM     22  C   UNL     1       0.111  -0.339  22.916  0.00  0.00    +0.018 A 
ATOM     23  C   UNL     1       0.257   1.564  24.335  0.00  0.00    +0.126 A 
ENDROOT
BRANCH  20  19
ATOM      2  O   UNL     1      -3.527  -0.708  25.180  0.00  0.00    -0.336 OA
ATOM      4  N   UNL     1      -2.790   1.190  24.248  0.00  0.00    -0.190 NA
ATOM      5  N   UNL     1      -2.176  -0.922  24.879  0.00  0.00    -0.056 NA
ATOM     17  C   UNL     1      -3.808   0.558  24.775  0.00  0.00    +0.245 A 
ATOM     19  C   UNL     1      -1.811   0.243  24.333  0.00  0.00    +0.204 A 
BRANCH  17  13
ATOM      3  N   UNL     1      -5.598   1.014  26.417  0.00  0.00    -0.305 NA
ATOM     13  C   UNL     1      -5.224   1.037  24.994  0.00  0.00    +0.143 C 
ATOM     14  C   UNL     1      -5.472   2.480  24.529  0.00  0.00    +0.029 C 
ATOM     15  C   UNL     1      -6.036   3.193  25.749  0.00  0.00    +0.017 C 
ATOM     16  C   UNL     1      -6.592   2.068  26.595  0.00  0.00    +0.081 C 
ATOM     24  H   UNL     1      -4.780   1.257  26.978  0.00  0.00    +0.123 HD
ENDBRANCH  17  13
ENDBRANCH  20  19
BRANCH  18   1
ATOM      1  O   UNL     1       3.331   1.308  22.597  0.00  0.00    -0.473 OA
BRANCH   1   7
ATOM      7  C   UNL     1       4.306   0.287  22.781  0.00  0.00    +0.175 C 
ATOM      8  C   UNL     1       3.678  -0.896  23.514  0.00  0.00    +0.044 C 
ATOM      9  C   UNL     1       5.503   0.852  23.545  0.00  0.00    +0.044 C 
ATOM     10  C   UNL     1       4.708  -1.978  23.822  0.00  0.00    +0.004 C 
ATOM     11  C   UNL     1       6.533  -0.228  23.852  0.00  0.00    +0.004 C 
ATOM     12  C   UNL     1       5.905  -1.413  24.584  0.00  0.00    +0.000 C 
ENDBRANCH   1   7
ENDBRANCH  18   1
TORSDOF 4
ENDMDL
