MODEL 1
REMARK VINA RESULT:      -3.0      0.000      0.000
REMARK  Name = 71693657
REMARK  10 active torsions:
REMARK  status: ('A' for Active; 'I' for Inactive)
REMARK    1  A    between atoms: S_1  and  N_8
REMARK    2  A    between atoms: S_1  and  C_19
REMARK    3  A    between atoms: O_3  and  C_12
REMARK    4  A    between atoms: N_7  and  C_15
REMARK    5  A    between atoms: N_8  and  C_20
REMARK    6  A    between atoms: C_9  and  C_12
REMARK    7  A    between atoms: C_10  and  C_11
REMARK    8  A    between atoms: C_18  and  C_19
REMARK    9  A    between atoms: C_18  and  C_23
REMARK   10  A    between atoms: C_18  and  C_24
REMARK                            x       y       z     vdW  Elec       q    Type
REMARK                         _______ _______ _______ _____ _____    ______ ____
ROOT
ATOM     11  C   UNL     1      -1.856   1.116  24.795  0.00  0.00    -0.017 A 
ATOM     16  C   UNL     1      -1.359  -0.028  25.419  0.00  0.00    +0.008 A 
ATOM     17  C   UNL     1      -1.227   1.616  23.655  0.00  0.00    +0.008 A 
ATOM     20  C   UNL     1       0.395  -0.171  23.764  0.00  0.00    +0.048 A 
ATOM     21  C   UNL     1      -0.234  -0.672  24.904  0.00  0.00    +0.025 A 
ATOM     22  C   UNL     1      -0.102   0.973  23.140  0.00  0.00    +0.025 A 
ENDROOT
BRANCH  11  10
ATOM      2  O   UNL     1      -2.895   3.214  25.134  0.00  0.00    -0.361 OA
ATOM      4  O   UNL     1      -6.184   4.416  25.791  0.00  0.00    -0.273 OA
ATOM      7  N   UNL     1      -5.514   2.294  25.101  0.00  0.00    -0.295 N 
ATOM      9  C   UNL     1      -4.404   1.399  24.690  0.00  0.00    +0.134 C 
ATOM     10  C   UNL     1      -3.078   1.815  25.354  0.00  0.00    +0.171 C 
ATOM     13  C   UNL     1      -3.853   3.962  25.845  0.00  0.00    +0.256 C 
ATOM     14  C   UNL     1      -5.295   3.594  25.558  0.00  0.00    +0.242 C 
ATOM     15  C   UNL     1      -6.880   1.882  24.789  0.00  0.00    +0.132 C 
BRANCH   9  12
ATOM     12  C   UNL     1      -4.708  -0.081  24.969  0.00  0.00    +0.181 C 
BRANCH  12   3
ATOM      3  O   UNL     1      -4.357  -0.826  23.822  0.00  0.00    -0.393 OA
ATOM     26  H   UNL     1      -3.506  -0.481  23.503  0.00  0.00    +0.209 HD
ENDBRANCH  12   3
ENDBRANCH   9  12
ENDBRANCH  11  10
BRANCH  20   8
ATOM      8  N   UNL     1       1.546  -0.830  23.238  0.00  0.00    -0.221 N 
ATOM     25  H   UNL     1       1.849  -1.645  23.788  0.00  0.00    +0.173 HD
BRANCH   8   1
ATOM      1  S   UNL     1       2.819   0.139  22.600  0.00  0.00    +0.043 S 
ATOM      5  O   UNL     1       2.822   0.000  21.156  0.00  0.00    -0.155 OA
ATOM      6  O   UNL     1       2.828   1.453  23.213  0.00  0.00    -0.155 OA
BRANCH   1  19
ATOM     19  C   UNL     1       4.230  -0.757  23.208  0.00  0.00    +0.191 C 
BRANCH  19  18
ATOM     18  C   UNL     1       5.472   0.123  23.366  0.00  0.00    +0.006 C 
ATOM     23  C   UNL     1       5.651   0.509  24.836  0.00  0.00    +0.009 C 
ATOM     24  C   UNL     1       6.736  -0.575  22.861  0.00  0.00    +0.009 C 
ENDBRANCH  19  18
ENDBRANCH   1  19
ENDBRANCH   8   1
ENDBRANCH  20   8
TORSDOF 7
ENDMDL
MODEL 2
REMARK VINA RESULT:      -1.6      1.522      2.360
REMARK  Name = 71693657
REMARK  10 active torsions:
REMARK  status: ('A' for Active; 'I' for Inactive)
REMARK    1  A    between atoms: S_1  and  N_8
REMARK    2  A    between atoms: S_1  and  C_19
REMARK    3  A    between atoms: O_3  and  C_12
REMARK    4  A    between atoms: N_7  and  C_15
REMARK    5  A    between atoms: N_8  and  C_20
REMARK    6  A    between atoms: C_9  and  C_12
REMARK    7  A    between atoms: C_10  and  C_11
REMARK    8  A    between atoms: C_18  and  C_19
REMARK    9  A    between atoms: C_18  and  C_23
REMARK   10  A    between atoms: C_18  and  C_24
REMARK                            x       y       z     vdW  Elec       q    Type
REMARK                         _______ _______ _______ _____ _____    ______ ____
ROOT
ATOM     11  C   UNL     1      -1.875   1.557  24.202  0.00  0.00    -0.017 A 
ATOM     16  C   UNL     1      -1.310   0.366  23.745  0.00  0.00    +0.008 A 
ATOM     17  C   UNL     1      -1.068   2.672  24.422  0.00  0.00    +0.008 A 
ATOM     20  C   UNL     1       0.870   1.407  23.731  0.00  0.00    +0.048 A 
ATOM     21  C   UNL     1       0.063   0.292  23.510  0.00  0.00    +0.025 A 
ATOM     22  C   UNL     1       0.304   2.598  24.187  0.00  0.00    +0.025 A 
ENDROOT
BRANCH  11  10
ATOM      2  O   UNL     1      -3.675   0.651  25.442  0.00  0.00    -0.361 OA
ATOM      4  O   UNL     1      -6.970   1.651  26.361  0.00  0.00    -0.273 OA
ATOM      7  N   UNL     1      -5.251   2.936  25.452  0.00  0.00    -0.295 N 
ATOM      9  C   UNL     1      -3.844   3.004  24.988  0.00  0.00    +0.134 C 
ATOM     10  C   UNL     1      -3.367   1.638  24.457  0.00  0.00    +0.171 C 
ATOM     13  C   UNL     1      -5.068   0.476  25.555  0.00  0.00    +0.256 C 
ATOM     14  C   UNL     1      -5.850   1.740  25.851  0.00  0.00    +0.242 C 
ATOM     15  C   UNL     1      -5.946   4.192  25.724  0.00  0.00    +0.132 C 
BRANCH   9  12
ATOM     12  C   UNL     1      -3.624   4.099  23.934  0.00  0.00    +0.181 C 
BRANCH  12   3
ATOM      3  O   UNL     1      -4.058   3.603  22.685  0.00  0.00    -0.393 OA
ATOM     26  H   UNL     1      -3.329   3.733  22.055  0.00  0.00    +0.209 HD
ENDBRANCH  12   3
ENDBRANCH   9  12
ENDBRANCH  11  10
BRANCH  20   8
ATOM      8  N   UNL     1       2.275   1.330  23.489  0.00  0.00    -0.221 N 
ATOM     25  H   UNL     1       2.709   2.232  23.254  0.00  0.00    +0.173 HD
BRANCH   8   1
ATOM      1  S   UNL     1       2.876  -0.025  22.612  0.00  0.00    +0.043 S 
ATOM      5  O   UNL     1       2.819  -1.191  23.473  0.00  0.00    -0.155 OA
ATOM      6  O   UNL     1       2.317  -0.067  21.276  0.00  0.00    -0.155 OA
BRANCH   1  19
ATOM     19  C   UNL     1       4.591   0.429  22.472  0.00  0.00    +0.191 C 
BRANCH  19  18
ATOM     18  C   UNL     1       5.478  -0.265  23.509  0.00  0.00    +0.006 C 
ATOM     23  C   UNL     1       6.856  -0.546  22.908  0.00  0.00    +0.009 C 
ATOM     24  C   UNL     1       5.632   0.570  24.781  0.00  0.00    +0.009 C 
ENDBRANCH  19  18
ENDBRANCH   1  19
ENDBRANCH   8   1
ENDBRANCH  20   8
TORSDOF 7
ENDMDL
MODEL 3
REMARK VINA RESULT:       0.2      2.582      7.739
REMARK  Name = 71693657
REMARK  10 active torsions:
REMARK  status: ('A' for Active; 'I' for Inactive)
REMARK    1  A    between atoms: S_1  and  N_8
REMARK    2  A    between atoms: S_1  and  C_19
REMARK    3  A    between atoms: O_3  and  C_12
REMARK    4  A    between atoms: N_7  and  C_15
REMARK    5  A    between atoms: N_8  and  C_20
REMARK    6  A    between atoms: C_9  and  C_12
REMARK    7  A    between atoms: C_10  and  C_11
REMARK    8  A    between atoms: C_18  and  C_19
REMARK    9  A    between atoms: C_18  and  C_23
REMARK   10  A    between atoms: C_18  and  C_24
REMARK                            x       y       z     vdW  Elec       q    Type
REMARK                         _______ _______ _______ _____ _____    ______ ____
ROOT
ATOM     11  C   UNL     1       0.168   1.608  23.910  0.00  0.00    -0.017 A 
ATOM     16  C   UNL     1       0.158   1.974  25.255  0.00  0.00    +0.008 A 
ATOM     17  C   UNL     1      -0.980   1.772  23.134  0.00  0.00    +0.008 A 
ATOM     20  C   UNL     1      -2.147   2.668  25.050  0.00  0.00    +0.048 A 
ATOM     21  C   UNL     1      -0.999   2.504  25.826  0.00  0.00    +0.025 A 
ATOM     22  C   UNL     1      -2.137   2.302  23.705  0.00  0.00    +0.025 A 
ENDROOT
BRANCH  11  10
ATOM      2  O   UNL     1       2.442   2.028  23.411  0.00  0.00    -0.361 OA
ATOM      4  O   UNL     1       5.337   0.101  22.634  0.00  0.00    -0.273 OA
ATOM      7  N   UNL     1       3.288  -0.615  23.482  0.00  0.00    -0.295 N 
ATOM      9  C   UNL     1       1.934  -0.253  23.968  0.00  0.00    +0.134 C 
ATOM     10  C   UNL     1       1.424   1.033  23.289  0.00  0.00    +0.171 C 
ATOM     13  C   UNL     1       3.568   1.687  22.637  0.00  0.00    +0.256 C 
ATOM     14  C   UNL     1       4.162   0.325  22.935  0.00  0.00    +0.242 C 
ATOM     15  C   UNL     1       3.803  -1.943  23.808  0.00  0.00    +0.132 C 
BRANCH   9  12
ATOM     12  C   UNL     1       0.921  -1.394  23.792  0.00  0.00    +0.181 C 
BRANCH  12   3
ATOM      3  O   UNL     1       0.184  -1.517  24.991  0.00  0.00    -0.393 OA
ATOM     26  H   UNL     1      -0.518  -0.845  24.967  0.00  0.00    +0.209 HD
ENDBRANCH  12   3
ENDBRANCH   9  12
ENDBRANCH  11  10
BRANCH  20   8
ATOM      8  N   UNL     1      -3.331   3.211  25.635  0.00  0.00    -0.221 N 
ATOM     25  H   UNL     1      -3.267   3.353  26.652  0.00  0.00    +0.173 HD
BRANCH   8   1
ATOM      1  S   UNL     1      -4.854   2.641  25.068  0.00  0.00    +0.043 S 
ATOM      5  O   UNL     1      -5.902   3.356  25.772  0.00  0.00    -0.155 OA
ATOM      6  O   UNL     1      -4.867   2.550  23.622  0.00  0.00    -0.155 OA
BRANCH   1  19
ATOM     19  C   UNL     1      -4.830   0.985  25.720  0.00  0.00    +0.191 C 
BRANCH  19  18
ATOM     18  C   UNL     1      -3.854   0.068  24.980  0.00  0.00    +0.006 C 
ATOM     23  C   UNL     1      -3.087  -0.791  25.987  0.00  0.00    +0.009 C 
ATOM     24  C   UNL     1      -4.568  -0.834  23.973  0.00  0.00    +0.009 C 
ENDBRANCH  19  18
ENDBRANCH   1  19
ENDBRANCH   8   1
ENDBRANCH  20   8
TORSDOF 7
ENDMDL
MODEL 4
REMARK VINA RESULT:       0.4      2.117      2.971
REMARK  Name = 71693657
REMARK  10 active torsions:
REMARK  status: ('A' for Active; 'I' for Inactive)
REMARK    1  A    between atoms: S_1  and  N_8
REMARK    2  A    between atoms: S_1  and  C_19
REMARK    3  A    between atoms: O_3  and  C_12
REMARK    4  A    between atoms: N_7  and  C_15
REMARK    5  A    between atoms: N_8  and  C_20
REMARK    6  A    between atoms: C_9  and  C_12
REMARK    7  A    between atoms: C_10  and  C_11
REMARK    8  A    between atoms: C_18  and  C_19
REMARK    9  A    between atoms: C_18  and  C_23
REMARK   10  A    between atoms: C_18  and  C_24
REMARK                            x       y       z     vdW  Elec       q    Type
REMARK                         _______ _______ _______ _____ _____    ______ ____
ROOT
ATOM     11  C   UNL     1      -1.813   2.495  24.976  0.00  0.00    -0.017 A 
ATOM     16  C   UNL     1      -1.664   2.105  23.645  0.00  0.00    +0.008 A 
ATOM     17  C   UNL     1      -0.708   2.505  25.827  0.00  0.00    +0.008 A 
ATOM     20  C   UNL     1       0.694   1.735  24.016  0.00  0.00    +0.048 A 
ATOM     21  C   UNL     1      -0.411   1.725  23.165  0.00  0.00    +0.025 A 
ATOM     22  C   UNL     1       0.546   2.125  25.347  0.00  0.00    +0.025 A 
ENDROOT
BRANCH  11  10
ATOM      2  O   UNL     1      -3.352   4.283  25.153  0.00  0.00    -0.361 OA
ATOM      4  O   UNL     1      -6.840   4.665  25.773  0.00  0.00    -0.273 OA
ATOM      7  N   UNL     1      -5.650   2.729  25.255  0.00  0.00    -0.295 N 
ATOM      9  C   UNL     1      -4.349   2.112  24.900  0.00  0.00    +0.134 C 
ATOM     10  C   UNL     1      -3.174   2.908  25.498  0.00  0.00    +0.171 C 
ATOM     13  C   UNL     1      -4.470   4.823  25.818  0.00  0.00    +0.256 C 
ATOM     14  C   UNL     1      -5.771   4.078  25.593  0.00  0.00    +0.242 C 
ATOM     15  C   UNL     1      -6.867   1.959  25.009  0.00  0.00    +0.132 C 
BRANCH   9  12
ATOM     12  C   UNL     1      -4.267   0.635  25.312  0.00  0.00    +0.181 C 
BRANCH  12   3
ATOM      3  O   UNL     1      -4.175  -0.145  24.138  0.00  0.00    -0.393 OA
ATOM     26  H   UNL     1      -3.812   0.426  23.440  0.00  0.00    +0.209 HD
ENDBRANCH  12   3
ENDBRANCH   9  12
ENDBRANCH  11  10
BRANCH  20   8
ATOM      8  N   UNL     1       1.977   1.346  23.524  0.00  0.00    -0.221 N 
ATOM     25  H   UNL     1       2.464   2.085  23.000  0.00  0.00    +0.173 HD
BRANCH   8   1
ATOM      1  S   UNL     1       2.156  -0.245  22.889  0.00  0.00    +0.043 S 
ATOM      5  O   UNL     1       1.313  -0.370  21.716  0.00  0.00    -0.155 OA
ATOM      6  O   UNL     1       3.553  -0.628  22.836  0.00  0.00    -0.155 OA
BRANCH   1  19
ATOM     19  C   UNL     1       1.381  -1.187  24.185  0.00  0.00    +0.191 C 
BRANCH  19  18
ATOM     18  C   UNL     1      -0.146  -1.075  24.171  0.00  0.00    +0.006 C 
ATOM     23  C   UNL     1      -0.744  -2.243  23.385  0.00  0.00    +0.009 C 
ATOM     24  C   UNL     1      -0.730  -1.053  25.584  0.00  0.00    +0.009 C 
ENDBRANCH  19  18
ENDBRANCH   1  19
ENDBRANCH   8   1
ENDBRANCH  20   8
TORSDOF 7
ENDMDL
