MODEL 1
REMARK VINA RESULT:      -4.0      0.000      0.000
REMARK  Name = 51137933
REMARK  5 active torsions:
REMARK  status: ('A' for Active; 'I' for Inactive)
REMARK    1  A    between atoms: O_5  and  C_22
REMARK    2  A    between atoms: O_5  and  C_28
REMARK    3  A    between atoms: C_11  and  C_15
REMARK    4  A    between atoms: C_17  and  C_19
REMARK    5  A    between atoms: C_18  and  C_23
REMARK                            x       y       z     vdW  Elec       q    Type
REMARK                         _______ _______ _______ _____ _____    ______ ____
ROOT
ATOM      6  N   UNL     1      17.052  -6.037  27.652  0.00  0.00    -0.299 N 
ATOM      8  N   UNL     1      16.898  -4.590  25.848  0.00  0.00    -0.210 NA
ATOM      9  N   UNL     1      17.310  -6.943  25.534  0.00  0.00    -0.223 NA
ATOM     11  C   UNL     1      16.580  -5.695  29.956  0.00  0.00    +0.095 C 
ATOM     12  C   UNL     1      17.400  -6.978  29.782  0.00  0.00    +0.033 C 
ATOM     13  C   UNL     1      16.831  -4.964  28.623  0.00  0.00    +0.121 C 
ATOM     14  C   UNL     1      17.237  -7.330  28.303  0.00  0.00    +0.109 C 
ATOM     16  C   UNL     1      17.088  -5.849  26.287  0.00  0.00    +0.218 A 
ATOM     18  C   UNL     1      16.940  -4.442  24.507  0.00  0.00    +0.149 A 
ATOM     20  C   UNL     1      17.338  -6.724  24.203  0.00  0.00    +0.116 A 
ATOM     21  C   UNL     1      17.159  -5.483  23.627  0.00  0.00    +0.052 A 
ENDROOT
BRANCH  11  15
ATOM      4  O   UNL     1      14.828  -7.293  30.594  0.00  0.00    -0.420 OA
ATOM      7  N   UNL     1      14.102  -5.189  30.369  0.00  0.00    -0.112 NA
ATOM     10  N   UNL     1      13.024  -5.977  30.728  0.00  0.00    -0.107 NA
ATOM     15  C   UNL     1      15.133  -5.999  30.303  0.00  0.00    +0.222 A 
ATOM     17  C   UNL     1      13.494  -7.196  30.847  0.00  0.00    +0.252 A 
BRANCH  17  19
ATOM     19  C   UNL     1      12.832  -8.420  31.197  0.00  0.00    +0.080 A 
ATOM     22  C   UNL     1      13.088  -9.598  30.497  0.00  0.00    +0.132 A 
ATOM     24  C   UNL     1      11.920  -8.420  32.253  0.00  0.00    +0.017 A 
ATOM     25  C   UNL     1      12.434 -10.777  30.851  0.00  0.00    +0.046 A 
ATOM     26  C   UNL     1      11.265  -9.600  32.608  0.00  0.00    +0.001 A 
ATOM     27  C   UNL     1      11.521 -10.779  31.906  0.00  0.00    +0.004 A 
BRANCH  22   5
ATOM      5  O   UNL     1      13.975  -9.627  29.460  0.00  0.00    -0.494 OA
ATOM     28  C   UNL     1      15.073 -10.528  29.574  0.00  0.00    +0.277 C 
ENDBRANCH  22   5
ENDBRANCH  17  19
ENDBRANCH  11  15
BRANCH  18  23
ATOM      1  F   UNL     1      17.348  -2.866  22.774  0.00  0.00    -0.164 F 
ATOM      2  F   UNL     1      15.421  -2.746  23.774  0.00  0.00    -0.164 F 
ATOM      3  F   UNL     1      17.214  -2.084  24.799  0.00  0.00    -0.164 F 
ATOM     23  C   UNL     1      16.733  -3.063  23.977  0.00  0.00    +0.434 C 
ENDBRANCH  18  23
TORSDOF 4
ENDMDL
MODEL 2
REMARK VINA RESULT:      -2.4      1.628      2.121
REMARK  Name = 51137933
REMARK  5 active torsions:
REMARK  status: ('A' for Active; 'I' for Inactive)
REMARK    1  A    between atoms: O_5  and  C_22
REMARK    2  A    between atoms: O_5  and  C_28
REMARK    3  A    between atoms: C_11  and  C_15
REMARK    4  A    between atoms: C_17  and  C_19
REMARK    5  A    between atoms: C_18  and  C_23
REMARK                            x       y       z     vdW  Elec       q    Type
REMARK                         _______ _______ _______ _____ _____    ______ ____
ROOT
ATOM      6  N   UNL     1      15.938  -6.936  28.769  0.00  0.00    -0.299 N 
ATOM      8  N   UNL     1      16.303  -5.542  26.955  0.00  0.00    -0.210 NA
ATOM      9  N   UNL     1      16.055  -7.923  26.676  0.00  0.00    -0.223 NA
ATOM     11  C   UNL     1      15.445  -6.429  31.038  0.00  0.00    +0.095 C 
ATOM     12  C   UNL     1      15.881  -7.893  30.920  0.00  0.00    +0.033 C 
ATOM     13  C   UNL     1      15.969  -5.824  29.721  0.00  0.00    +0.121 C 
ATOM     14  C   UNL     1      15.713  -8.216  29.436  0.00  0.00    +0.109 C 
ATOM     16  C   UNL     1      16.105  -6.795  27.409  0.00  0.00    +0.218 A 
ATOM     18  C   UNL     1      16.464  -5.440  25.619  0.00  0.00    +0.149 A 
ATOM     20  C   UNL     1      16.223  -7.748  25.348  0.00  0.00    +0.116 A 
ATOM     21  C   UNL     1      16.433  -6.519  24.758  0.00  0.00    +0.052 A 
ENDROOT
BRANCH  11  15
ATOM      4  O   UNL     1      13.272  -7.464  31.526  0.00  0.00    -0.420 OA
ATOM      7  N   UNL     1      13.195  -5.236  31.331  0.00  0.00    -0.112 NA
ATOM     10  N   UNL     1      11.917  -5.686  31.604  0.00  0.00    -0.107 NA
ATOM     15  C   UNL     1      13.953  -6.308  31.295  0.00  0.00    +0.222 A 
ATOM     17  C   UNL     1      12.009  -6.991  31.709  0.00  0.00    +0.252 A 
BRANCH  17  19
ATOM     19  C   UNL     1      11.003  -7.977  31.982  0.00  0.00    +0.080 A 
ATOM     22  C   UNL     1      11.281  -9.337  31.848  0.00  0.00    +0.132 A 
ATOM     24  C   UNL     1       9.735  -7.559  32.385  0.00  0.00    +0.017 A 
ATOM     25  C   UNL     1      10.290 -10.281  32.117  0.00  0.00    +0.046 A 
ATOM     26  C   UNL     1       8.743  -8.503  32.654  0.00  0.00    +0.001 A 
ATOM     27  C   UNL     1       9.020  -9.864  32.519  0.00  0.00    +0.004 A 
BRANCH  22   5
ATOM      5  O   UNL     1      12.512  -9.773  31.456  0.00  0.00    -0.494 OA
ATOM     28  C   UNL     1      13.142 -10.754  32.276  0.00  0.00    +0.277 C 
ENDBRANCH  22   5
ENDBRANCH  17  19
ENDBRANCH  11  15
BRANCH  18  23
ATOM      1  F   UNL     1      15.516  -3.405  24.836  0.00  0.00    -0.164 F 
ATOM      2  F   UNL     1      17.405  -3.260  25.901  0.00  0.00    -0.164 F 
ATOM      3  F   UNL     1      17.359  -4.057  23.885  0.00  0.00    -0.164 F 
ATOM     23  C   UNL     1      16.684  -4.069  25.072  0.00  0.00    +0.434 C 
ENDBRANCH  18  23
TORSDOF 4
ENDMDL
MODEL 3
REMARK VINA RESULT:      -1.5      1.370      2.199
REMARK  Name = 51137933
REMARK  5 active torsions:
REMARK  status: ('A' for Active; 'I' for Inactive)
REMARK    1  A    between atoms: O_5  and  C_22
REMARK    2  A    between atoms: O_5  and  C_28
REMARK    3  A    between atoms: C_11  and  C_15
REMARK    4  A    between atoms: C_17  and  C_19
REMARK    5  A    between atoms: C_18  and  C_23
REMARK                            x       y       z     vdW  Elec       q    Type
REMARK                         _______ _______ _______ _____ _____    ______ ____
ROOT
ATOM      6  N   UNL     1      16.955  -5.672  26.498  0.00  0.00    -0.299 N 
ATOM      8  N   UNL     1      16.734  -3.740  25.238  0.00  0.00    -0.210 NA
ATOM      9  N   UNL     1      17.048  -5.888  24.192  0.00  0.00    -0.223 NA
ATOM     11  C   UNL     1      16.640  -6.048  28.823  0.00  0.00    +0.095 C 
ATOM     12  C   UNL     1      17.405  -7.225  28.209  0.00  0.00    +0.033 C 
ATOM     13  C   UNL     1      16.830  -4.946  27.763  0.00  0.00    +0.121 C 
ATOM     14  C   UNL     1      17.138  -7.104  26.709  0.00  0.00    +0.109 C 
ATOM     16  C   UNL     1      16.910  -5.075  25.256  0.00  0.00    +0.218 A 
ATOM     18  C   UNL     1      16.696  -3.188  24.007  0.00  0.00    +0.149 A 
ATOM     20  C   UNL     1      17.000  -5.271  22.993  0.00  0.00    +0.116 A 
ATOM     21  C   UNL     1      16.825  -3.911  22.838  0.00  0.00    +0.052 A 
ENDROOT
BRANCH  11  15
ATOM      4  O   UNL     1      15.034  -7.447  30.046  0.00  0.00    -0.420 OA
ATOM      7  N   UNL     1      14.082  -5.913  28.725  0.00  0.00    -0.112 NA
ATOM     10  N   UNL     1      13.074  -6.624  29.349  0.00  0.00    -0.107 NA
ATOM     15  C   UNL     1      15.209  -6.427  29.162  0.00  0.00    +0.222 A 
ATOM     17  C   UNL     1      13.676  -7.509  30.109  0.00  0.00    +0.252 A 
BRANCH  17  19
ATOM     19  C   UNL     1      13.133  -8.511  30.980  0.00  0.00    +0.080 A 
ATOM     22  C   UNL     1      11.993  -8.255  31.742  0.00  0.00    +0.132 A 
ATOM     24  C   UNL     1      13.762  -9.753  31.060  0.00  0.00    +0.017 A 
ATOM     25  C   UNL     1      11.481  -9.242  32.584  0.00  0.00    +0.046 A 
ATOM     26  C   UNL     1      13.249 -10.741  31.902  0.00  0.00    +0.001 A 
ATOM     27  C   UNL     1      12.109 -10.485  32.665  0.00  0.00    +0.004 A 
BRANCH  22   5
ATOM      5  O   UNL     1      11.359  -7.050  31.684  0.00  0.00    -0.494 OA
ATOM     28  C   UNL     1      11.464  -6.208  32.830  0.00  0.00    +0.277 C 
ENDBRANCH  22   5
ENDBRANCH  17  19
ENDBRANCH  11  15
BRANCH  18  23
ATOM      1  F   UNL     1      15.266  -1.365  23.473  0.00  0.00    -0.164 F 
ATOM      2  F   UNL     1      16.624  -1.087  25.147  0.00  0.00    -0.164 F 
ATOM      3  F   UNL     1      17.392  -1.079  23.118  0.00  0.00    -0.164 F 
ATOM     23  C   UNL     1      16.501  -1.710  23.939  0.00  0.00    +0.434 C 
ENDBRANCH  18  23
TORSDOF 4
ENDMDL
