MODEL 1
REMARK VINA RESULT:       3.3      0.000      0.000
REMARK  Name = 11886259
REMARK  7 active torsions:
REMARK  status: ('A' for Active; 'I' for Inactive)
REMARK    1  A    between atoms: O_3  and  C_19
REMARK    2  A    between atoms: O_3  and  C_24
REMARK    3  A    between atoms: N_5  and  C_15
REMARK    4  A    between atoms: N_6  and  C_16
REMARK    5  A    between atoms: N_10  and  C_33
REMARK    6  A    between atoms: C_20  and  C_21
REMARK    7  A    between atoms: C_27  and  C_32
REMARK                            x       y       z     vdW  Elec       q    Type
REMARK                         _______ _______ _______ _____ _____    ______ ____
ROOT
ATOM      1  O   UNL     1      -3.575  -1.031  23.195  0.00  0.00    -0.370 OA
ATOM      2  O   UNL     1      -2.298  -0.846  26.037  0.00  0.00    -0.370 OA
ATOM     13  C   UNL     1      -2.574   0.133  25.017  0.00  0.00    +0.176 C 
ATOM     14  C   UNL     1      -2.316  -0.536  23.681  0.00  0.00    +0.171 C 
ATOM     15  C   UNL     1      -4.056   0.454  25.004  0.00  0.00    +0.171 C 
ATOM     16  C   UNL     1      -1.393  -1.691  24.011  0.00  0.00    +0.130 C 
ATOM     17  C   UNL     1      -4.628  -0.613  24.076  0.00  0.00    +0.190 C 
ATOM     18  C   UNL     1      -1.843  -2.056  25.416  0.00  0.00    +0.185 C 
ENDROOT
BRANCH  15   5
ATOM      5  N   UNL     1      -4.327   1.838  24.606  0.00  0.00    -0.187 N 
ATOM      7  N   UNL     1      -5.566   2.336  24.655  0.00  0.00    -0.041 NA
ATOM      8  N   UNL     1      -4.135   3.877  23.918  0.00  0.00    -0.071 NA
ATOM      9  N   UNL     1      -5.444   3.588  24.232  0.00  0.00    -0.020 NA
ATOM     19  C   UNL     1      -3.461   2.777  24.159  0.00  0.00    +0.342 A 
BRANCH  19   3
ATOM      3  O   UNL     1      -2.164   2.595  23.997  0.00  0.00    -0.423 OA
BRANCH   3  24
ATOM     24  C   UNL     1      -1.270   2.600  25.060  0.00  0.00    +0.132 A 
ATOM     28  C   UNL     1      -1.708   3.021  26.301  0.00  0.00    +0.048 A 
ATOM     29  C   UNL     1       0.029   2.184  24.846  0.00  0.00    +0.048 A 
ATOM     30  C   UNL     1      -0.811   3.026  27.369  0.00  0.00    +0.031 A 
ATOM     31  C   UNL     1       0.927   2.189  25.913  0.00  0.00    +0.031 A 
ATOM     33  C   UNL     1       0.506   2.610  27.176  0.00  0.00    +0.067 A 
BRANCH  33  10
ATOM     10  N   UNL     1       1.395   2.615  28.235  0.00  0.00    -0.220 N 
ATOM     11  N   UNL     1       2.660   3.053  28.102  0.00  0.00    -0.154 NA
ATOM     12  N   UNL     1       2.241   2.358  30.240  0.00  0.00    -0.222 NA
ATOM     34  C   UNL     1       1.159   2.202  29.514  0.00  0.00    +0.225 A 
ATOM     35  C   UNL     1       3.127   2.877  29.340  0.00  0.00    +0.245 A 
ENDBRANCH  33  10
ENDBRANCH   3  24
ENDBRANCH  19   3
ENDBRANCH  15   5
BRANCH  16   6
ATOM      4  O   UNL     1       0.144  -0.668  21.797  0.00  0.00    -0.270 OA
ATOM      6  N   UNL     1      -0.002  -1.242  24.039  0.00  0.00    -0.304 N 
ATOM     20  C   UNL     1       0.651  -0.764  22.912  0.00  0.00    +0.244 C 
ATOM     36  H   UNL     1       0.511  -1.402  24.900  0.00  0.00    +0.149 HD
BRANCH  20  21
ATOM     21  C   UNL     1       2.072  -0.374  23.100  0.00  0.00    +0.037 A 
ATOM     22  C   UNL     1       2.947  -1.289  23.649  0.00  0.00    +0.013 A 
ATOM     23  C   UNL     1       2.471   0.890  22.720  0.00  0.00    +0.013 A 
ATOM     25  C   UNL     1       4.281  -0.923  23.825  0.00  0.00    +0.004 A 
ATOM     26  C   UNL     1       3.805   1.256  22.897  0.00  0.00    +0.004 A 
ATOM     27  C   UNL     1       4.711   0.350  23.449  0.00  0.00    -0.050 A 
ATOM     32  C   UNL     1       6.138   0.741  23.638  0.00  0.00    +0.044 C 
ENDBRANCH  20  21
ENDBRANCH  16   6
TORSDOF 6
ENDMDL
