MODEL 1
REMARK VINA RESULT:      -1.7      0.000      0.000
REMARK  Name = 26745197
REMARK  8 active torsions:
REMARK  status: ('A' for Active; 'I' for Inactive)
REMARK    1  A    between atoms: O_3  and  C_26
REMARK    2  A    between atoms: O_3  and  C_27
REMARK    3  A    between atoms: N_7  and  C_18
REMARK    4  A    between atoms: N_8  and  C_17
REMARK    5  A    between atoms: C_9  and  C_14
REMARK    6  A    between atoms: C_17  and  C_19
REMARK    7  A    between atoms: C_17  and  C_20
REMARK    8  A    between atoms: C_18  and  C_21
REMARK                            x       y       z     vdW  Elec       q    Type
REMARK                         _______ _______ _______ _____ _____    ______ ____
ROOT
ATOM      2  O   UNL     1      -2.085   3.175  25.944  0.00  0.00    -0.253 OA
ATOM      4  N   UNL     1      -2.754   1.167  24.964  0.00  0.00    -0.268 N 
ATOM      5  N   UNL     1      -4.278  -2.077  23.834  0.00  0.00    -0.347 N 
ATOM      6  N   UNL     1      -2.550  -3.025  24.884  0.00  0.00    -0.240 NA
ATOM      8  N   UNL     1      -4.142   3.086  24.922  0.00  0.00    -0.297 N 
ATOM      9  C   UNL     1      -1.408   0.565  25.176  0.00  0.00    +0.170 C 
ATOM     10  C   UNL     1      -1.418  -0.899  25.661  0.00  0.00    +0.089 C 
ATOM     11  C   UNL     1      -3.787   0.390  24.217  0.00  0.00    +0.165 C 
ATOM     12  C   UNL     1      -2.475  -1.663  24.973  0.00  0.00    +0.066 A 
ATOM     13  C   UNL     1      -3.529  -1.056  24.338  0.00  0.00    +0.056 A 
ATOM     15  C   UNL     1      -2.933   2.524  25.324  0.00  0.00    +0.303 C 
ATOM     16  C   UNL     1      -3.648  -3.244  24.190  0.00  0.00    +0.197 A 
ATOM     28  H   UNL     1      -5.134  -1.996  23.301  0.00  0.00    +0.167 HD
ATOM     30  H   UNL     1      -4.753   2.582  24.290  0.00  0.00    +0.150 HD
ENDROOT
BRANCH   9  14
ATOM      1  O   UNL     1      -1.036   1.536  23.024  0.00  0.00    -0.274 OA
ATOM      7  N   UNL     1       0.375  -0.168  23.750  0.00  0.00    -0.310 N 
ATOM     14  C   UNL     1      -0.683   0.718  23.870  0.00  0.00    +0.234 C 
ATOM     29  H   UNL     1       0.560  -0.826  24.501  0.00  0.00    +0.149 HD
BRANCH   7  18
ATOM     18  C   UNL     1       1.218  -0.239  22.579  0.00  0.00    +0.139 C 
BRANCH  18  21
ATOM     21  C   UNL     1       2.677  -0.206  22.934  0.00  0.00    -0.030 A 
ATOM     22  C   UNL     1       3.431   0.938  22.677  0.00  0.00    +0.009 A 
ATOM     23  C   UNL     1       3.277  -1.320  23.521  0.00  0.00    +0.009 A 
ATOM     24  C   UNL     1       4.785   0.970  23.007  0.00  0.00    +0.046 A 
ATOM     25  C   UNL     1       4.631  -1.289  23.852  0.00  0.00    +0.046 A 
ATOM     26  C   UNL     1       5.386  -0.144  23.594  0.00  0.00    +0.120 A 
BRANCH  26   3
ATOM      3  O   UNL     1       6.707  -0.115  23.917  0.00  0.00    -0.495 OA
ATOM     27  C   UNL     1       7.632  -0.533  22.914  0.00  0.00    +0.277 C 
ENDBRANCH  26   3
ENDBRANCH  18  21
ENDBRANCH   7  18
ENDBRANCH   9  14
BRANCH   8  17
ATOM     17  C   UNL     1      -4.479   4.463  25.201  0.00  0.00    +0.068 C 
ATOM     19  C   UNL     1      -5.968   4.594  25.499  0.00  0.00    +0.027 C 
ATOM     20  C   UNL     1      -4.069   5.361  24.040  0.00  0.00    +0.027 C 
ENDBRANCH   8  17
TORSDOF 5
ENDMDL
MODEL 2
REMARK VINA RESULT:       1.4      3.192      7.361
REMARK  Name = 26745197
REMARK  8 active torsions:
REMARK  status: ('A' for Active; 'I' for Inactive)
REMARK    1  A    between atoms: O_3  and  C_26
REMARK    2  A    between atoms: O_3  and  C_27
REMARK    3  A    between atoms: N_7  and  C_18
REMARK    4  A    between atoms: N_8  and  C_17
REMARK    5  A    between atoms: C_9  and  C_14
REMARK    6  A    between atoms: C_17  and  C_19
REMARK    7  A    between atoms: C_17  and  C_20
REMARK    8  A    between atoms: C_18  and  C_21
REMARK                            x       y       z     vdW  Elec       q    Type
REMARK                         _______ _______ _______ _____ _____    ______ ____
ROOT
ATOM      2  O   UNL     1       1.465   3.332  26.531  0.00  0.00    -0.253 OA
ATOM      4  N   UNL     1       0.093   1.514  26.030  0.00  0.00    -0.268 N 
ATOM      5  N   UNL     1      -1.656  -1.766  25.476  0.00  0.00    -0.347 N 
ATOM      6  N   UNL     1      -0.963  -1.551  23.363  0.00  0.00    -0.240 NA
ATOM      8  N   UNL     1       0.581   2.114  28.268  0.00  0.00    -0.297 N 
ATOM      9  C   UNL     1       0.076   1.871  24.584  0.00  0.00    +0.170 C 
ATOM     10  C   UNL     1       0.210   0.677  23.616  0.00  0.00    +0.089 C 
ATOM     11  C   UNL     1      -0.746   0.376  26.506  0.00  0.00    +0.165 C 
ATOM     12  C   UNL     1      -0.568  -0.475  24.108  0.00  0.00    +0.066 A 
ATOM     13  C   UNL     1      -0.978  -0.585  25.413  0.00  0.00    +0.056 A 
ATOM     15  C   UNL     1       0.767   2.389  26.916  0.00  0.00    +0.303 C 
ATOM     16  C   UNL     1      -1.619  -2.311  24.216  0.00  0.00    +0.197 A 
ATOM     28  H   UNL     1      -2.101  -2.167  26.291  0.00  0.00    +0.167 HD
ATOM     30  H   UNL     1      -0.110   1.434  28.560  0.00  0.00    +0.150 HD
ENDROOT
BRANCH   9  14
ATOM      1  O   UNL     1      -1.531   3.569  25.084  0.00  0.00    -0.274 OA
ATOM      7  N   UNL     1      -1.937   2.123  23.306  0.00  0.00    -0.310 N 
ATOM     14  C   UNL     1      -1.203   2.628  24.366  0.00  0.00    +0.234 C 
ATOM     29  H   UNL     1      -1.586   1.318  22.795  0.00  0.00    +0.149 HD
BRANCH   7  18
ATOM     18  C   UNL     1      -3.217   2.660  22.903  0.00  0.00    +0.139 C 
BRANCH  18  21
ATOM     21  C   UNL     1      -4.246   2.533  23.989  0.00  0.00    -0.030 A 
ATOM     22  C   UNL     1      -4.676   1.271  24.398  0.00  0.00    +0.009 A 
ATOM     23  C   UNL     1      -4.772   3.678  24.588  0.00  0.00    +0.009 A 
ATOM     24  C   UNL     1      -5.632   1.154  25.407  0.00  0.00    +0.046 A 
ATOM     25  C   UNL     1      -5.728   3.561  25.597  0.00  0.00    +0.046 A 
ATOM     26  C   UNL     1      -6.158   2.298  26.007  0.00  0.00    +0.120 A 
BRANCH  26   3
ATOM      3  O   UNL     1      -7.090   2.184  26.991  0.00  0.00    -0.495 OA
ATOM     27  C   UNL     1      -7.006   1.038  27.837  0.00  0.00    +0.277 C 
ENDBRANCH  26   3
ENDBRANCH  18  21
ENDBRANCH   7  18
ENDBRANCH   9  14
BRANCH   8  17
ATOM     17  C   UNL     1       1.190   2.916  29.305  0.00  0.00    +0.068 C 
ATOM     19  C   UNL     1       2.702   2.958  29.123  0.00  0.00    +0.027 C 
ATOM     20  C   UNL     1       0.816   2.384  30.683  0.00  0.00    +0.027 C 
ENDBRANCH   8  17
TORSDOF 5
ENDMDL
MODEL 3
REMARK VINA RESULT:       1.6      2.108      7.853
REMARK  Name = 26745197
REMARK  8 active torsions:
REMARK  status: ('A' for Active; 'I' for Inactive)
REMARK    1  A    between atoms: O_3  and  C_26
REMARK    2  A    between atoms: O_3  and  C_27
REMARK    3  A    between atoms: N_7  and  C_18
REMARK    4  A    between atoms: N_8  and  C_17
REMARK    5  A    between atoms: C_9  and  C_14
REMARK    6  A    between atoms: C_17  and  C_19
REMARK    7  A    between atoms: C_17  and  C_20
REMARK    8  A    between atoms: C_18  and  C_21
REMARK                            x       y       z     vdW  Elec       q    Type
REMARK                         _______ _______ _______ _____ _____    ______ ____
ROOT
ATOM      2  O   UNL     1       2.979   0.658  22.084  0.00  0.00    -0.253 OA
ATOM      4  N   UNL     1       1.324  -0.296  23.422  0.00  0.00    -0.268 N 
ATOM      5  N   UNL     1      -1.174  -2.379  25.304  0.00  0.00    -0.347 N 
ATOM      6  N   UNL     1      -2.654  -1.569  23.841  0.00  0.00    -0.240 NA
ATOM      8  N   UNL     1       3.614  -0.813  23.731  0.00  0.00    -0.297 N 
ATOM      9  C   UNL     1       0.280   0.590  22.837  0.00  0.00    +0.170 C 
ATOM     10  C   UNL     1      -1.065  -0.101  22.528  0.00  0.00    +0.089 C 
ATOM     11  C   UNL     1       0.954  -1.213  24.540  0.00  0.00    +0.165 C 
ATOM     12  C   UNL     1      -1.411  -1.055  23.599  0.00  0.00    +0.066 A 
ATOM     13  C   UNL     1      -0.481  -1.540  24.484  0.00  0.00    +0.056 A 
ATOM     15  C   UNL     1       2.663  -0.097  23.009  0.00  0.00    +0.303 C 
ATOM     16  C   UNL     1      -2.478  -2.364  24.877  0.00  0.00    +0.197 A 
ATOM     28  H   UNL     1      -0.803  -2.913  26.080  0.00  0.00    +0.167 HD
ATOM     30  H   UNL     1       3.349  -1.305  24.575  0.00  0.00    +0.150 HD
ENDROOT
BRANCH   9  14
ATOM      1  O   UNL     1       0.907   1.906  24.732  0.00  0.00    -0.274 OA
ATOM      7  N   UNL     1      -1.010   2.484  23.545  0.00  0.00    -0.310 N 
ATOM     14  C   UNL     1       0.117   1.724  23.809  0.00  0.00    +0.234 C 
ATOM     29  H   UNL     1      -1.615   2.226  22.771  0.00  0.00    +0.149 HD
BRANCH   7  18
ATOM     18  C   UNL     1      -1.404   3.619  24.346  0.00  0.00    +0.139 C 
BRANCH  18  21
ATOM     21  C   UNL     1      -2.767   3.436  24.949  0.00  0.00    -0.030 A 
ATOM     22  C   UNL     1      -3.160   4.216  26.035  0.00  0.00    +0.009 A 
ATOM     23  C   UNL     1      -3.640   2.484  24.421  0.00  0.00    +0.009 A 
ATOM     24  C   UNL     1      -4.426   4.046  26.595  0.00  0.00    +0.046 A 
ATOM     25  C   UNL     1      -4.907   2.313  24.980  0.00  0.00    +0.046 A 
ATOM     26  C   UNL     1      -5.300   3.094  26.068  0.00  0.00    +0.120 A 
BRANCH  26   3
ATOM      3  O   UNL     1      -6.535   2.928  26.612  0.00  0.00    -0.495 OA
ATOM     27  C   UNL     1      -6.856   1.631  27.114  0.00  0.00    +0.277 C 
ENDBRANCH  26   3
ENDBRANCH  18  21
ENDBRANCH   7  18
ENDBRANCH   9  14
BRANCH   8  17
ATOM     17  C   UNL     1       5.028  -0.717  23.446  0.00  0.00    +0.068 C 
ATOM     19  C   UNL     1       5.788  -1.836  24.147  0.00  0.00    +0.027 C 
ATOM     20  C   UNL     1       5.564   0.651  23.850  0.00  0.00    +0.027 C 
ENDBRANCH   8  17
TORSDOF 5
ENDMDL
MODEL 4
REMARK VINA RESULT:       1.8     16.156     18.594
REMARK  Name = 26745197
REMARK  8 active torsions:
REMARK  status: ('A' for Active; 'I' for Inactive)
REMARK    1  A    between atoms: O_3  and  C_26
REMARK    2  A    between atoms: O_3  and  C_27
REMARK    3  A    between atoms: N_7  and  C_18
REMARK    4  A    between atoms: N_8  and  C_17
REMARK    5  A    between atoms: C_9  and  C_14
REMARK    6  A    between atoms: C_17  and  C_19
REMARK    7  A    between atoms: C_17  and  C_20
REMARK    8  A    between atoms: C_18  and  C_21
REMARK                            x       y       z     vdW  Elec       q    Type
REMARK                         _______ _______ _______ _____ _____    ______ ____
ROOT
ATOM      2  O   UNL     1      13.042  -8.305  32.159  0.00  0.00    -0.253 OA
ATOM      4  N   UNL     1      14.038  -8.452  30.055  0.00  0.00    -0.268 N 
ATOM      5  N   UNL     1      15.147  -9.054  26.515  0.00  0.00    -0.347 N 
ATOM      6  N   UNL     1      16.554 -10.535  27.418  0.00  0.00    -0.240 NA
ATOM      8  N   UNL     1      11.960  -7.359  30.366  0.00  0.00    -0.297 N 
ATOM      9  C   UNL     1      15.287  -9.016  30.638  0.00  0.00    +0.170 C 
ATOM     10  C   UNL     1      15.912 -10.180  29.841  0.00  0.00    +0.089 C 
ATOM     11  C   UNL     1      13.991  -8.151  28.595  0.00  0.00    +0.165 C 
ATOM     12  C   UNL     1      15.817  -9.920  28.391  0.00  0.00    +0.066 A 
ATOM     13  C   UNL     1      14.941  -9.006  27.862  0.00  0.00    +0.056 A 
ATOM     15  C   UNL     1      13.013  -8.059  30.949  0.00  0.00    +0.303 C 
ATOM     16  C   UNL     1      16.128  -9.989  26.298  0.00  0.00    +0.197 A 
ATOM     28  H   UNL     1      14.672  -8.507  25.809  0.00  0.00    +0.167 HD
ATOM     30  H   UNL     1      12.028  -7.040  29.408  0.00  0.00    +0.150 HD
ENDROOT
BRANCH   9  14
ATOM      1  O   UNL     1      17.405  -7.932  30.413  0.00  0.00    -0.274 OA
ATOM      7  N   UNL     1      15.632  -6.754  31.355  0.00  0.00    -0.310 N 
ATOM     14  C   UNL     1      16.233  -7.858  30.773  0.00  0.00    +0.234 C 
ATOM     29  H   UNL     1      14.660  -6.811  31.644  0.00  0.00    +0.149 HD
BRANCH   7  18
ATOM     18  C   UNL     1      16.332  -5.518  31.616  0.00  0.00    +0.139 C 
BRANCH  18  21
ATOM     21  C   UNL     1      16.618  -4.756  30.353  0.00  0.00    -0.030 A 
ATOM     22  C   UNL     1      16.794  -5.440  29.151  0.00  0.00    +0.009 A 
ATOM     23  C   UNL     1      16.707  -3.364  30.384  0.00  0.00    +0.009 A 
ATOM     24  C   UNL     1      17.059  -4.732  27.979  0.00  0.00    +0.046 A 
ATOM     25  C   UNL     1      16.971  -2.656  29.212  0.00  0.00    +0.046 A 
ATOM     26  C   UNL     1      17.148  -3.340  28.009  0.00  0.00    +0.120 A 
BRANCH  26   3
ATOM      3  O   UNL     1      17.405  -2.649  26.866  0.00  0.00    -0.495 OA
ATOM     27  C   UNL     1      16.284  -2.112  26.164  0.00  0.00    +0.277 C 
ENDBRANCH  26   3
ENDBRANCH  18  21
ENDBRANCH   7  18
ENDBRANCH   9  14
BRANCH   8  17
ATOM     17  C   UNL     1      10.838  -6.877  31.139  0.00  0.00    +0.068 C 
ATOM     19  C   UNL     1      11.272  -5.733  32.047  0.00  0.00    +0.027 C 
ATOM     20  C   UNL     1      10.212  -8.011  31.941  0.00  0.00    +0.027 C 
ENDBRANCH   8  17
TORSDOF 5
ENDMDL
