MODEL 1
REMARK VINA RESULT:       2.5      0.000      0.000
REMARK  Name = 26744624
REMARK  8 active torsions:
REMARK  status: ('A' for Active; 'I' for Inactive)
REMARK    1  A    between atoms: S_2  and  C_23
REMARK    2  A    between atoms: S_2  and  C_26
REMARK    3  A    between atoms: O_4  and  C_13
REMARK    4  A    between atoms: N_8  and  C_15
REMARK    5  A    between atoms: C_11  and  C_16
REMARK    6  A    between atoms: C_15  and  C_17
REMARK    7  A    between atoms: C_20  and  C_24
REMARK    8  A    between atoms: C_24  and  C_25
REMARK                            x       y       z     vdW  Elec       q    Type
REMARK                         _______ _______ _______ _____ _____    ______ ____
ROOT
ATOM      8  N   UNL     1      -3.266  -1.429  23.704  0.00  0.00    -0.285 NA
ATOM     11  C   UNL     1      -2.359  -0.972  24.776  0.00  0.00    +0.149 C 
ATOM     12  C   UNL     1      -2.139  -2.213  25.661  0.00  0.00    +0.061 C 
ATOM     13  C   UNL     1      -2.998  -3.303  25.032  0.00  0.00    +0.130 C 
ATOM     14  C   UNL     1      -4.052  -2.526  24.266  0.00  0.00    +0.116 C 
ENDROOT
BRANCH  11  16
ATOM      5  O   UNL     1      -0.586   0.708  24.865  0.00  0.00    -0.336 OA
ATOM      9  N   UNL     1      -0.323  -0.813  23.244  0.00  0.00    -0.194 NA
ATOM     10  N   UNL     1       0.599   1.049  24.201  0.00  0.00    -0.061 NA
ATOM     16  C   UNL     1      -1.064  -0.399  24.239  0.00  0.00    +0.245 A 
ATOM     20  C   UNL     1       0.686   0.106  23.259  0.00  0.00    +0.176 A 
BRANCH  20  24
ATOM     24  C   UNL     1       1.796   0.064  22.301  0.00  0.00    +0.116 C 
BRANCH  24  25
ATOM      1 CL   UNL     1       3.821   2.410  22.300  0.00  0.00    -0.083 Cl
ATOM      3  F   UNL     1       6.857  -0.893  24.633  0.00  0.00    -0.205 F 
ATOM     25  C   UNL     1       3.171  -0.164  22.923  0.00  0.00    -0.021 A 
ATOM     27  C   UNL     1       4.134   0.844  22.958  0.00  0.00    +0.047 A 
ATOM     28  C   UNL     1       3.451  -1.418  23.465  0.00  0.00    +0.008 A 
ATOM     29  C   UNL     1       5.379   0.598  23.536  0.00  0.00    +0.058 A 
ATOM     30  C   UNL     1       4.697  -1.664  24.043  0.00  0.00    +0.039 A 
ATOM     31  C   UNL     1       5.661  -0.656  24.079  0.00  0.00    +0.125 A 
ENDBRANCH  24  25
ENDBRANCH  20  24
ENDBRANCH  11  16
BRANCH  13   4
ATOM      4  O   UNL     1      -3.573  -4.126  26.029  0.00  0.00    -0.390 OA
ATOM     32  H   UNL     1      -3.686  -3.582  26.827  0.00  0.00    +0.210 HD
ENDBRANCH  13   4
BRANCH   8  15
ATOM     15  C   UNL     1      -4.111  -0.366  23.175  0.00  0.00    +0.120 C 
BRANCH  15  17
ATOM     17  C   UNL     1      -3.664   0.992  23.647  0.00  0.00    -0.033 A 
ATOM     18  C   UNL     1      -2.826   1.768  22.845  0.00  0.00    +0.007 A 
ATOM     19  C   UNL     1      -4.086   1.476  24.886  0.00  0.00    +0.007 A 
ATOM     21  C   UNL     1      -2.411   3.026  23.282  0.00  0.00    +0.027 A 
ATOM     22  C   UNL     1      -3.671   2.734  25.323  0.00  0.00    +0.027 A 
ATOM     23  C   UNL     1      -2.834   3.508  24.520  0.00  0.00    +0.088 A 
BRANCH  23   2
ATOM      2  S   UNL     1      -2.314   5.083  25.067  0.00  0.00    -0.006 S 
ATOM      6  O   UNL     1      -2.728   6.083  24.092  0.00  0.00    -0.170 OA
ATOM      7  O   UNL     1      -2.710   5.226  26.461  0.00  0.00    -0.170 OA
ATOM     26  C   UNL     1      -0.538   5.007  25.009  0.00  0.00    +0.200 C 
ENDBRANCH  23   2
ENDBRANCH  15  17
ENDBRANCH   8  15
TORSDOF 7
ENDMDL
MODEL 2
REMARK VINA RESULT:       2.6      2.297      5.216
REMARK  Name = 26744624
REMARK  8 active torsions:
REMARK  status: ('A' for Active; 'I' for Inactive)
REMARK    1  A    between atoms: S_2  and  C_23
REMARK    2  A    between atoms: S_2  and  C_26
REMARK    3  A    between atoms: O_4  and  C_13
REMARK    4  A    between atoms: N_8  and  C_15
REMARK    5  A    between atoms: C_11  and  C_16
REMARK    6  A    between atoms: C_15  and  C_17
REMARK    7  A    between atoms: C_20  and  C_24
REMARK    8  A    between atoms: C_24  and  C_25
REMARK                            x       y       z     vdW  Elec       q    Type
REMARK                         _______ _______ _______ _____ _____    ______ ____
ROOT
ATOM      8  N   UNL     1      -2.905   3.616  25.034  0.00  0.00    -0.285 NA
ATOM     11  C   UNL     1      -1.859   3.588  23.992  0.00  0.00    +0.149 C 
ATOM     12  C   UNL     1      -1.031   4.864  24.233  0.00  0.00    +0.061 C 
ATOM     13  C   UNL     1      -1.714   5.564  25.400  0.00  0.00    +0.130 C 
ATOM     14  C   UNL     1      -3.131   5.023  25.358  0.00  0.00    +0.116 C 
ENDROOT
BRANCH  11  16
ATOM      5  O   UNL     1      -0.783   1.806  25.272  0.00  0.00    -0.336 OA
ATOM      9  N   UNL     1      -0.479   1.653  23.058  0.00  0.00    -0.194 NA
ATOM     10  N   UNL     1       0.002   0.665  25.065  0.00  0.00    -0.061 NA
ATOM     16  C   UNL     1      -1.021   2.328  24.040  0.00  0.00    +0.245 A 
ATOM     20  C   UNL     1       0.138   0.642  23.736  0.00  0.00    +0.176 A 
BRANCH  20  24
ATOM     24  C   UNL     1       0.904  -0.404  23.050  0.00  0.00    +0.116 C 
BRANCH  24  25
ATOM      1 CL   UNL     1       2.506  -2.516  24.655  0.00  0.00    -0.083 Cl
ATOM      3  F   UNL     1       6.513   0.261  23.316  0.00  0.00    -0.205 F 
ATOM     25  C   UNL     1       2.420  -0.251  23.140  0.00  0.00    -0.021 A 
ATOM     27  C   UNL     1       3.207  -1.161  23.845  0.00  0.00    +0.047 A 
ATOM     28  C   UNL     1       3.015   0.832  22.494  0.00  0.00    +0.008 A 
ATOM     29  C   UNL     1       4.589  -0.989  23.904  0.00  0.00    +0.058 A 
ATOM     30  C   UNL     1       4.398   1.005  22.554  0.00  0.00    +0.039 A 
ATOM     31  C   UNL     1       5.185   0.094  23.258  0.00  0.00    +0.125 A 
ENDBRANCH  24  25
ENDBRANCH  20  24
ENDBRANCH  11  16
BRANCH  13   4
ATOM      4  O   UNL     1      -1.683   6.968  25.231  0.00  0.00    -0.390 OA
ATOM     32  H   UNL     1      -1.393   7.358  26.073  0.00  0.00    +0.210 HD
ENDBRANCH  13   4
BRANCH   8  15
ATOM     15  C   UNL     1      -4.134   2.943  24.633  0.00  0.00    +0.120 C 
BRANCH  15  17
ATOM     17  C   UNL     1      -3.962   1.448  24.584  0.00  0.00    -0.033 A 
ATOM     18  C   UNL     1      -3.781   0.807  23.358  0.00  0.00    +0.007 A 
ATOM     19  C   UNL     1      -3.984   0.703  25.763  0.00  0.00    +0.007 A 
ATOM     21  C   UNL     1      -3.623  -0.578  23.312  0.00  0.00    +0.027 A 
ATOM     22  C   UNL     1      -3.826  -0.682  25.718  0.00  0.00    +0.027 A 
ATOM     23  C   UNL     1      -3.645  -1.323  24.492  0.00  0.00    +0.088 A 
BRANCH  23   2
ATOM      2  S   UNL     1      -3.447  -3.057  24.434  0.00  0.00    -0.006 S 
ATOM      6  O   UNL     1      -3.445  -3.578  25.793  0.00  0.00    -0.170 OA
ATOM      7  O   UNL     1      -4.393  -3.583  23.460  0.00  0.00    -0.170 OA
ATOM     26  C   UNL     1      -1.808  -3.293  23.785  0.00  0.00    +0.200 C 
ENDBRANCH  23   2
ENDBRANCH  15  17
ENDBRANCH   8  15
TORSDOF 7
ENDMDL
MODEL 3
REMARK VINA RESULT:       3.1      3.833      7.157
REMARK  Name = 26744624
REMARK  8 active torsions:
REMARK  status: ('A' for Active; 'I' for Inactive)
REMARK    1  A    between atoms: S_2  and  C_23
REMARK    2  A    between atoms: S_2  and  C_26
REMARK    3  A    between atoms: O_4  and  C_13
REMARK    4  A    between atoms: N_8  and  C_15
REMARK    5  A    between atoms: C_11  and  C_16
REMARK    6  A    between atoms: C_15  and  C_17
REMARK    7  A    between atoms: C_20  and  C_24
REMARK    8  A    between atoms: C_24  and  C_25
REMARK                            x       y       z     vdW  Elec       q    Type
REMARK                         _______ _______ _______ _____ _____    ______ ____
ROOT
ATOM      8  N   UNL     1       2.108   0.493  22.222  0.00  0.00    -0.285 NA
ATOM     11  C   UNL     1       2.117   0.553  23.698  0.00  0.00    +0.149 C 
ATOM     12  C   UNL     1       3.586   0.826  24.071  0.00  0.00    +0.061 C 
ATOM     13  C   UNL     1       4.331   0.859  22.743  0.00  0.00    +0.130 C 
ATOM     14  C   UNL     1       3.441   0.052  21.816  0.00  0.00    +0.116 C 
ENDROOT
BRANCH  11  16
ATOM      5  O   UNL     1       1.031   1.643  25.596  0.00  0.00    -0.336 OA
ATOM      9  N   UNL     1       0.447   2.482  23.604  0.00  0.00    -0.194 NA
ATOM     10  N   UNL     1       0.117   2.671  25.860  0.00  0.00    -0.061 NA
ATOM     16  C   UNL     1       1.169   1.599  24.245  0.00  0.00    +0.245 A 
ATOM     20  C   UNL     1      -0.181   3.116  24.636  0.00  0.00    +0.176 A 
BRANCH  20  24
ATOM     24  C   UNL     1      -1.126   4.217  24.418  0.00  0.00    +0.116 C 
BRANCH  24  25
ATOM      1 CL   UNL     1      -2.969   2.904  22.301  0.00  0.00    -0.083 Cl
ATOM      3  F   UNL     1      -6.454   3.115  25.958  0.00  0.00    -0.205 F 
ATOM     25  C   UNL     1      -2.570   3.908  24.804  0.00  0.00    -0.021 A 
ATOM     27  C   UNL     1      -3.457   3.319  23.904  0.00  0.00    +0.047 A 
ATOM     28  C   UNL     1      -2.992   4.230  26.094  0.00  0.00    +0.008 A 
ATOM     29  C   UNL     1      -4.769   3.051  24.294  0.00  0.00    +0.058 A 
ATOM     30  C   UNL     1      -4.305   3.961  26.483  0.00  0.00    +0.039 A 
ATOM     31  C   UNL     1      -5.193   3.372  25.584  0.00  0.00    +0.125 A 
ENDBRANCH  24  25
ENDBRANCH  20  24
ENDBRANCH  11  16
BRANCH  13   4
ATOM      4  O   UNL     1       5.615   0.280  22.873  0.00  0.00    -0.390 OA
ATOM     32  H   UNL     1       5.530  -0.492  23.458  0.00  0.00    +0.210 HD
ENDBRANCH  13   4
BRANCH   8  15
ATOM     15  C   UNL     1       1.060  -0.368  21.689  0.00  0.00    +0.120 C 
BRANCH  15  17
ATOM     17  C   UNL     1      -0.020  -0.631  22.704  0.00  0.00    -0.033 A 
ATOM     18  C   UNL     1      -1.189   0.130  22.691  0.00  0.00    +0.007 A 
ATOM     19  C   UNL     1       0.148  -1.635  23.658  0.00  0.00    +0.007 A 
ATOM     21  C   UNL     1      -2.189  -0.112  23.632  0.00  0.00    +0.027 A 
ATOM     22  C   UNL     1      -0.853  -1.878  24.599  0.00  0.00    +0.027 A 
ATOM     23  C   UNL     1      -2.022  -1.117  24.586  0.00  0.00    +0.088 A 
BRANCH  23   2
ATOM      2  S   UNL     1      -3.275  -1.420  25.764  0.00  0.00    -0.006 S 
ATOM      6  O   UNL     1      -3.897  -2.704  25.472  0.00  0.00    -0.170 OA
ATOM      7  O   UNL     1      -2.716  -1.172  27.085  0.00  0.00    -0.170 OA
ATOM     26  C   UNL     1      -4.495  -0.167  25.443  0.00  0.00    +0.200 C 
ENDBRANCH  23   2
ENDBRANCH  15  17
ENDBRANCH   8  15
TORSDOF 7
ENDMDL
MODEL 4
REMARK VINA RESULT:       3.4      3.488      6.403
REMARK  Name = 26744624
REMARK  8 active torsions:
REMARK  status: ('A' for Active; 'I' for Inactive)
REMARK    1  A    between atoms: S_2  and  C_23
REMARK    2  A    between atoms: S_2  and  C_26
REMARK    3  A    between atoms: O_4  and  C_13
REMARK    4  A    between atoms: N_8  and  C_15
REMARK    5  A    between atoms: C_11  and  C_16
REMARK    6  A    between atoms: C_15  and  C_17
REMARK    7  A    between atoms: C_20  and  C_24
REMARK    8  A    between atoms: C_24  and  C_25
REMARK                            x       y       z     vdW  Elec       q    Type
REMARK                         _______ _______ _______ _____ _____    ______ ____
ROOT
ATOM      8  N   UNL     1       1.556   0.820  23.294  0.00  0.00    -0.285 NA
ATOM     11  C   UNL     1       1.556  -0.644  23.096  0.00  0.00    +0.149 C 
ATOM     12  C   UNL     1       3.025  -1.066  23.281  0.00  0.00    +0.061 C 
ATOM     13  C   UNL     1       3.780   0.233  23.535  0.00  0.00    +0.130 C 
ATOM     14  C   UNL     1       2.887   1.290  22.913  0.00  0.00    +0.116 C 
ENDROOT
BRANCH  11  16
ATOM      5  O   UNL     1       1.196  -2.098  25.027  0.00  0.00    -0.336 OA
ATOM      9  N   UNL     1      -0.691  -1.382  24.058  0.00  0.00    -0.194 NA
ATOM     10  N   UNL     1       0.145  -2.659  25.762  0.00  0.00    -0.061 NA
ATOM     16  C   UNL     1       0.617  -1.361  24.043  0.00  0.00    +0.245 A 
ATOM     20  C   UNL     1      -0.935  -2.190  25.130  0.00  0.00    +0.176 A 
BRANCH  20  24
ATOM     24  C   UNL     1      -2.296  -2.527  25.561  0.00  0.00    +0.116 C 
BRANCH  24  25
ATOM      1 CL   UNL     1      -4.218  -2.996  23.176  0.00  0.00    -0.083 Cl
ATOM      3  F   UNL     1      -6.148   1.479  24.521  0.00  0.00    -0.205 F 
ATOM     25  C   UNL     1      -3.346  -1.463  25.255  0.00  0.00    -0.021 A 
ATOM     27  C   UNL     1      -4.245  -1.604  24.198  0.00  0.00    +0.047 A 
ATOM     28  C   UNL     1      -3.394  -0.329  26.066  0.00  0.00    +0.008 A 
ATOM     29  C   UNL     1      -5.191  -0.611  23.950  0.00  0.00    +0.058 A 
ATOM     30  C   UNL     1      -4.341   0.665  25.817  0.00  0.00    +0.039 A 
ATOM     31  C   UNL     1      -5.240   0.524  24.760  0.00  0.00    +0.125 A 
ENDBRANCH  24  25
ENDBRANCH  20  24
ENDBRANCH  11  16
BRANCH  13   4
ATOM      4  O   UNL     1       5.056   0.199  22.925  0.00  0.00    -0.390 OA
ATOM     32  H   UNL     1       5.049  -0.520  22.271  0.00  0.00    +0.210 HD
ENDBRANCH  13   4
BRANCH   8  15
ATOM     15  C   UNL     1       0.502   1.499  22.553  0.00  0.00    +0.120 C 
BRANCH  15  17
ATOM     17  C   UNL     1      -0.458   2.211  23.469  0.00  0.00    -0.033 A 
ATOM     18  C   UNL     1      -1.820   2.238  23.166  0.00  0.00    +0.007 A 
ATOM     19  C   UNL     1       0.013   2.842  24.620  0.00  0.00    +0.007 A 
ATOM     21  C   UNL     1      -2.709   2.897  24.014  0.00  0.00    +0.027 A 
ATOM     22  C   UNL     1      -0.877   3.502  25.469  0.00  0.00    +0.027 A 
ATOM     23  C   UNL     1      -2.238   3.529  25.165  0.00  0.00    +0.088 A 
BRANCH  23   2
ATOM      2  S   UNL     1      -3.352   4.354  26.227  0.00  0.00    -0.006 S 
ATOM      6  O   UNL     1      -3.365   3.678  27.517  0.00  0.00    -0.170 OA
ATOM      7  O   UNL     1      -3.060   5.779  26.161  0.00  0.00    -0.170 OA
ATOM     26  C   UNL     1      -4.947   4.089  25.486  0.00  0.00    +0.200 C 
ENDBRANCH  23   2
ENDBRANCH  15  17
ENDBRANCH   8  15
TORSDOF 7
ENDMDL
MODEL 5
REMARK VINA RESULT:       3.7      3.913      7.223
REMARK  Name = 26744624
REMARK  8 active torsions:
REMARK  status: ('A' for Active; 'I' for Inactive)
REMARK    1  A    between atoms: S_2  and  C_23
REMARK    2  A    between atoms: S_2  and  C_26
REMARK    3  A    between atoms: O_4  and  C_13
REMARK    4  A    between atoms: N_8  and  C_15
REMARK    5  A    between atoms: C_11  and  C_16
REMARK    6  A    between atoms: C_15  and  C_17
REMARK    7  A    between atoms: C_20  and  C_24
REMARK    8  A    between atoms: C_24  and  C_25
REMARK                            x       y       z     vdW  Elec       q    Type
REMARK                         _______ _______ _______ _____ _____    ______ ____
ROOT
ATOM      8  N   UNL     1       1.993   0.575  22.275  0.00  0.00    -0.285 NA
ATOM     11  C   UNL     1       1.991   0.637  23.751  0.00  0.00    +0.149 C 
ATOM     12  C   UNL     1       3.452   0.941  24.133  0.00  0.00    +0.061 C 
ATOM     13  C   UNL     1       4.205   0.986  22.809  0.00  0.00    +0.130 C 
ATOM     14  C   UNL     1       3.337   0.159  21.879  0.00  0.00    +0.116 C 
ENDROOT
BRANCH  11  16
ATOM      5  O   UNL     1       1.014   1.846  25.636  0.00  0.00    -0.336 OA
ATOM      9  N   UNL     1       0.166   2.419  23.645  0.00  0.00    -0.194 NA
ATOM     10  N   UNL     1       0.049   2.828  25.892  0.00  0.00    -0.061 NA
ATOM     16  C   UNL     1       1.019   1.665  24.289  0.00  0.00    +0.245 A 
ATOM     20  C   UNL     1      -0.406   3.115  24.669  0.00  0.00    +0.176 A 
BRANCH  20  24
ATOM     24  C   UNL     1      -1.457   4.114  24.445  0.00  0.00    +0.116 C 
BRANCH  24  25
ATOM      1 CL   UNL     1      -2.951   4.539  27.126  0.00  0.00    -0.083 Cl
ATOM      3  F   UNL     1      -6.734   2.114  24.805  0.00  0.00    -0.205 F 
ATOM     25  C   UNL     1      -2.882   3.585  24.573  0.00  0.00    -0.021 A 
ATOM     27  C   UNL     1      -3.617   3.738  25.748  0.00  0.00    +0.047 A 
ATOM     28  C   UNL     1      -3.448   2.936  23.475  0.00  0.00    +0.008 A 
ATOM     29  C   UNL     1      -4.918   3.242  25.827  0.00  0.00    +0.058 A 
ATOM     30  C   UNL     1      -4.749   2.440  23.554  0.00  0.00    +0.039 A 
ATOM     31  C   UNL     1      -5.484   2.593  24.730  0.00  0.00    +0.125 A 
ENDBRANCH  24  25
ENDBRANCH  20  24
ENDBRANCH  11  16
BRANCH  13   4
ATOM      4  O   UNL     1       5.500   0.432  22.950  0.00  0.00    -0.390 OA
ATOM     32  H   UNL     1       5.758   0.527  23.882  0.00  0.00    +0.210 HD
ENDBRANCH  13   4
BRANCH   8  15
ATOM     15  C   UNL     1       0.966  -0.308  21.737  0.00  0.00    +0.120 C 
BRANCH  15  17
ATOM     17  C   UNL     1      -0.089  -0.630  22.761  0.00  0.00    -0.033 A 
ATOM     18  C   UNL     1       0.160  -1.594  23.739  0.00  0.00    +0.007 A 
ATOM     19  C   UNL     1      -1.315   0.035  22.734  0.00  0.00    +0.007 A 
ATOM     21  C   UNL     1      -0.818  -1.892  24.688  0.00  0.00    +0.027 A 
ATOM     22  C   UNL     1      -2.293  -0.263  23.683  0.00  0.00    +0.027 A 
ATOM     23  C   UNL     1      -2.043  -1.227  24.660  0.00  0.00    +0.088 A 
BRANCH  23   2
ATOM      2  S   UNL     1      -3.267  -1.601  25.849  0.00  0.00    -0.006 S 
ATOM      6  O   UNL     1      -3.818  -2.918  25.561  0.00  0.00    -0.170 OA
ATOM      7  O   UNL     1      -2.712  -1.323  27.166  0.00  0.00    -0.170 OA
ATOM     26  C   UNL     1      -4.560  -0.419  25.540  0.00  0.00    +0.200 C 
ENDBRANCH  23   2
ENDBRANCH  15  17
ENDBRANCH   8  15
TORSDOF 7
ENDMDL
MODEL 6
REMARK VINA RESULT:       4.0      3.596      6.874
REMARK  Name = 26744624
REMARK  8 active torsions:
REMARK  status: ('A' for Active; 'I' for Inactive)
REMARK    1  A    between atoms: S_2  and  C_23
REMARK    2  A    between atoms: S_2  and  C_26
REMARK    3  A    between atoms: O_4  and  C_13
REMARK    4  A    between atoms: N_8  and  C_15
REMARK    5  A    between atoms: C_11  and  C_16
REMARK    6  A    between atoms: C_15  and  C_17
REMARK    7  A    between atoms: C_20  and  C_24
REMARK    8  A    between atoms: C_24  and  C_25
REMARK                            x       y       z     vdW  Elec       q    Type
REMARK                         _______ _______ _______ _____ _____    ______ ____
ROOT
ATOM      8  N   UNL     1      -2.732   4.118  24.385  0.00  0.00    -0.285 NA
ATOM     11  C   UNL     1      -4.019   4.101  25.110  0.00  0.00    +0.149 C 
ATOM     12  C   UNL     1      -4.916   5.087  24.340  0.00  0.00    +0.061 C 
ATOM     13  C   UNL     1      -4.032   5.641  23.230  0.00  0.00    +0.130 C 
ATOM     14  C   UNL     1      -2.626   5.434  23.759  0.00  0.00    +0.116 C 
ENDROOT
BRANCH  11  16
ATOM      5  O   UNL     1      -5.924   2.641  25.568  0.00  0.00    -0.336 OA
ATOM      9  N   UNL     1      -4.059   1.551  24.978  0.00  0.00    -0.194 NA
ATOM     10  N   UNL     1      -6.248   1.279  25.585  0.00  0.00    -0.061 NA
ATOM     16  C   UNL     1      -4.618   2.713  25.201  0.00  0.00    +0.245 A 
ATOM     20  C   UNL     1      -5.098   0.702  25.227  0.00  0.00    +0.176 A 
BRANCH  20  24
ATOM     24  C   UNL     1      -4.962  -0.754  25.109  0.00  0.00    +0.116 C 
BRANCH  24  25
ATOM      1 CL   UNL     1      -4.212  -3.226  23.398  0.00  0.00    -0.083 Cl
ATOM      3  F   UNL     1       0.382  -2.578  25.408  0.00  0.00    -0.205 F 
ATOM     25  C   UNL     1      -3.527  -1.270  25.169  0.00  0.00    -0.021 A 
ATOM     27  C   UNL     1      -3.116  -2.378  24.428  0.00  0.00    +0.047 A 
ATOM     28  C   UNL     1      -2.618  -0.604  25.991  0.00  0.00    +0.008 A 
ATOM     29  C   UNL     1      -1.796  -2.819  24.508  0.00  0.00    +0.058 A 
ATOM     30  C   UNL     1      -1.298  -1.046  26.071  0.00  0.00    +0.039 A 
ATOM     31  C   UNL     1      -0.886  -2.153  25.330  0.00  0.00    +0.125 A 
ENDBRANCH  24  25
ENDBRANCH  20  24
ENDBRANCH  11  16
BRANCH  13   4
ATOM      4  O   UNL     1      -4.311   7.009  23.002  0.00  0.00    -0.390 OA
ATOM     32  H   UNL     1      -4.758   7.077  22.141  0.00  0.00    +0.210 HD
ENDBRANCH  13   4
BRANCH   8  15
ATOM     15  C   UNL     1      -1.588   3.824  25.240  0.00  0.00    +0.120 C 
BRANCH  15  17
ATOM     17  C   UNL     1      -0.659   2.823  24.607  0.00  0.00    -0.033 A 
ATOM     18  C   UNL     1      -1.162   1.865  23.726  0.00  0.00    +0.007 A 
ATOM     19  C   UNL     1       0.705   2.853  24.899  0.00  0.00    +0.007 A 
ATOM     21  C   UNL     1      -0.301   0.937  23.140  0.00  0.00    +0.027 A 
ATOM     22  C   UNL     1       1.566   1.925  24.313  0.00  0.00    +0.027 A 
ATOM     23  C   UNL     1       1.062   0.968  23.433  0.00  0.00    +0.088 A 
BRANCH  23   2
ATOM      2  S   UNL     1       2.139  -0.195  22.698  0.00  0.00    -0.006 S 
ATOM      6  O   UNL     1       2.402  -1.264  23.651  0.00  0.00    -0.170 OA
ATOM      7  O   UNL     1       1.618  -0.516  21.377  0.00  0.00    -0.170 OA
ATOM     26  C   UNL     1       3.665   0.693  22.481  0.00  0.00    +0.200 C 
ENDBRANCH  23   2
ENDBRANCH  15  17
ENDBRANCH   8  15
TORSDOF 7
ENDMDL
MODEL 7
REMARK VINA RESULT:       4.9      1.465      1.950
REMARK  Name = 26744624
REMARK  8 active torsions:
REMARK  status: ('A' for Active; 'I' for Inactive)
REMARK    1  A    between atoms: S_2  and  C_23
REMARK    2  A    between atoms: S_2  and  C_26
REMARK    3  A    between atoms: O_4  and  C_13
REMARK    4  A    between atoms: N_8  and  C_15
REMARK    5  A    between atoms: C_11  and  C_16
REMARK    6  A    between atoms: C_15  and  C_17
REMARK    7  A    between atoms: C_20  and  C_24
REMARK    8  A    between atoms: C_24  and  C_25
REMARK                            x       y       z     vdW  Elec       q    Type
REMARK                         _______ _______ _______ _____ _____    ______ ____
ROOT
ATOM      8  N   UNL     1      -3.000  -1.838  23.952  0.00  0.00    -0.285 NA
ATOM     11  C   UNL     1      -2.221  -1.016  24.901  0.00  0.00    +0.149 C 
ATOM     12  C   UNL     1      -1.920  -1.959  26.081  0.00  0.00    +0.061 C 
ATOM     13  C   UNL     1      -2.609  -3.270  25.725  0.00  0.00    +0.130 C 
ATOM     14  C   UNL     1      -3.691  -2.849  24.750  0.00  0.00    +0.116 C 
ENDROOT
BRANCH  11  16
ATOM      5  O   UNL     1      -0.509   0.725  24.809  0.00  0.00    -0.336 OA
ATOM      9  N   UNL     1      -0.245  -0.897  23.289  0.00  0.00    -0.194 NA
ATOM     10  N   UNL     1       0.639   1.058  24.080  0.00  0.00    -0.061 NA
ATOM     16  C   UNL     1      -0.967  -0.439  24.279  0.00  0.00    +0.245 A 
ATOM     20  C   UNL     1       0.729   0.055  23.203  0.00  0.00    +0.176 A 
BRANCH  20  24
ATOM     24  C   UNL     1       1.807  -0.016  22.211  0.00  0.00    +0.116 C 
BRANCH  24  25
ATOM      1 CL   UNL     1       2.635  -2.325  24.105  0.00  0.00    -0.083 Cl
ATOM      3  F   UNL     1       7.054   0.123  24.314  0.00  0.00    -0.205 F 
ATOM     25  C   UNL     1       3.217  -0.006  22.795  0.00  0.00    -0.021 A 
ATOM     27  C   UNL     1       3.660  -1.011  23.655  0.00  0.00    +0.047 A 
ATOM     28  C   UNL     1       4.069   1.042  22.447  0.00  0.00    +0.008 A 
ATOM     29  C   UNL     1       4.956  -0.967  24.167  0.00  0.00    +0.058 A 
ATOM     30  C   UNL     1       5.365   1.085  22.960  0.00  0.00    +0.039 A 
ATOM     31  C   UNL     1       5.809   0.080  23.820  0.00  0.00    +0.125 A 
ENDBRANCH  24  25
ENDBRANCH  20  24
ENDBRANCH  11  16
BRANCH  13   4
ATOM      4  O   UNL     1      -3.151  -3.882  26.880  0.00  0.00    -0.390 OA
ATOM     32  H   UNL     1      -3.884  -4.452  26.591  0.00  0.00    +0.210 HD
ENDBRANCH  13   4
BRANCH   8  15
ATOM     15  C   UNL     1      -3.923  -1.056  23.139  0.00  0.00    +0.120 C 
BRANCH  15  17
ATOM     17  C   UNL     1      -4.085   0.345  23.667  0.00  0.00    -0.033 A 
ATOM     18  C   UNL     1      -4.929   0.588  24.751  0.00  0.00    +0.007 A 
ATOM     19  C   UNL     1      -3.392   1.400  23.073  0.00  0.00    +0.007 A 
ATOM     21  C   UNL     1      -5.079   1.886  25.239  0.00  0.00    +0.027 A 
ATOM     22  C   UNL     1      -3.542   2.698  23.561  0.00  0.00    +0.027 A 
ATOM     23  C   UNL     1      -4.386   2.940  24.645  0.00  0.00    +0.088 A 
BRANCH  23   2
ATOM      2  S   UNL     1      -4.576   4.564  25.257  0.00  0.00    -0.006 S 
ATOM      6  O   UNL     1      -4.105   5.507  24.251  0.00  0.00    -0.170 OA
ATOM      7  O   UNL     1      -5.926   4.688  25.788  0.00  0.00    -0.170 OA
ATOM     26  C   UNL     1      -3.442   4.657  26.625  0.00  0.00    +0.200 C 
ENDBRANCH  23   2
ENDBRANCH  15  17
ENDBRANCH   8  15
TORSDOF 7
ENDMDL
MODEL 8
REMARK VINA RESULT:       5.7      3.224      4.248
REMARK  Name = 26744624
REMARK  8 active torsions:
REMARK  status: ('A' for Active; 'I' for Inactive)
REMARK    1  A    between atoms: S_2  and  C_23
REMARK    2  A    between atoms: S_2  and  C_26
REMARK    3  A    between atoms: O_4  and  C_13
REMARK    4  A    between atoms: N_8  and  C_15
REMARK    5  A    between atoms: C_11  and  C_16
REMARK    6  A    between atoms: C_15  and  C_17
REMARK    7  A    between atoms: C_20  and  C_24
REMARK    8  A    between atoms: C_24  and  C_25
REMARK                            x       y       z     vdW  Elec       q    Type
REMARK                         _______ _______ _______ _____ _____    ______ ____
ROOT
ATOM      8  N   UNL     1      -3.167  -2.177  23.988  0.00  0.00    -0.285 NA
ATOM     11  C   UNL     1      -2.501  -1.383  25.039  0.00  0.00    +0.149 C 
ATOM     12  C   UNL     1      -2.161  -2.401  26.144  0.00  0.00    +0.061 C 
ATOM     13  C   UNL     1      -2.716  -3.728  25.642  0.00  0.00    +0.130 C 
ATOM     14  C   UNL     1      -3.795  -3.313  24.660  0.00  0.00    +0.116 C 
ENDROOT
BRANCH  11  16
ATOM      5  O   UNL     1      -0.404  -1.369  23.784  0.00  0.00    -0.336 OA
ATOM      9  N   UNL     1      -0.934   0.605  24.700  0.00  0.00    -0.194 NA
ATOM     10  N   UNL     1       0.626  -0.487  23.433  0.00  0.00    -0.061 NA
ATOM     16  C   UNL     1      -1.281  -0.646  24.529  0.00  0.00    +0.245 A 
ATOM     20  C   UNL     1       0.242   0.654  24.010  0.00  0.00    +0.176 A 
BRANCH  20  24
ATOM     24  C   UNL     1       1.037   1.883  23.908  0.00  0.00    +0.116 C 
BRANCH  24  25
ATOM      1 CL   UNL     1       0.146   2.301  26.847  0.00  0.00    -0.083 Cl
ATOM      3  F   UNL     1      -1.737   6.661  25.113  0.00  0.00    -0.205 F 
ATOM     25  C   UNL     1       0.285   3.163  24.264  0.00  0.00    -0.021 A 
ATOM     27  C   UNL     1      -0.148   3.420  25.565  0.00  0.00    +0.047 A 
ATOM     28  C   UNL     1       0.036   4.088  23.250  0.00  0.00    +0.008 A 
ATOM     29  C   UNL     1      -0.830   4.602  25.851  0.00  0.00    +0.058 A 
ATOM     30  C   UNL     1      -0.647   5.269  23.537  0.00  0.00    +0.039 A 
ATOM     31  C   UNL     1      -1.080   5.527  24.838  0.00  0.00    +0.125 A 
ENDBRANCH  24  25
ENDBRANCH  20  24
ENDBRANCH  11  16
BRANCH  13   4
ATOM      4  O   UNL     1      -3.245  -4.488  26.713  0.00  0.00    -0.390 OA
ATOM     32  H   UNL     1      -2.544  -5.089  27.018  0.00  0.00    +0.210 HD
ENDBRANCH  13   4
BRANCH   8  15
ATOM     15  C   UNL     1      -4.125  -1.405  23.206  0.00  0.00    +0.120 C 
BRANCH  15  17
ATOM     17  C   UNL     1      -4.289  -0.008  23.743  0.00  0.00    -0.033 A 
ATOM     18  C   UNL     1      -3.607   1.052  23.146  0.00  0.00    +0.007 A 
ATOM     19  C   UNL     1      -5.124   0.227  24.836  0.00  0.00    +0.007 A 
ATOM     21  C   UNL     1      -3.758   2.346  23.643  0.00  0.00    +0.027 A 
ATOM     22  C   UNL     1      -5.275   1.522  25.333  0.00  0.00    +0.027 A 
ATOM     23  C   UNL     1      -4.592   2.581  24.736  0.00  0.00    +0.088 A 
BRANCH  23   2
ATOM      2  S   UNL     1      -4.781   4.202  25.358  0.00  0.00    -0.006 S 
ATOM      6  O   UNL     1      -4.217   5.144  24.401  0.00  0.00    -0.170 OA
ATOM      7  O   UNL     1      -6.161   4.356  25.795  0.00  0.00    -0.170 OA
ATOM     26  C   UNL     1      -3.743   4.245  26.801  0.00  0.00    +0.200 C 
ENDBRANCH  23   2
ENDBRANCH  15  17
ENDBRANCH   8  15
TORSDOF 7
ENDMDL
MODEL 9
REMARK VINA RESULT:       5.8      4.160      6.482
REMARK  Name = 26744624
REMARK  8 active torsions:
REMARK  status: ('A' for Active; 'I' for Inactive)
REMARK    1  A    between atoms: S_2  and  C_23
REMARK    2  A    between atoms: S_2  and  C_26
REMARK    3  A    between atoms: O_4  and  C_13
REMARK    4  A    between atoms: N_8  and  C_15
REMARK    5  A    between atoms: C_11  and  C_16
REMARK    6  A    between atoms: C_15  and  C_17
REMARK    7  A    between atoms: C_20  and  C_24
REMARK    8  A    between atoms: C_24  and  C_25
REMARK                            x       y       z     vdW  Elec       q    Type
REMARK                         _______ _______ _______ _____ _____    ______ ____
ROOT
ATOM      8  N   UNL     1      -0.651   5.260  24.621  0.00  0.00    -0.285 NA
ATOM     11  C   UNL     1      -0.758   3.902  24.051  0.00  0.00    +0.149 C 
ATOM     12  C   UNL     1       0.297   3.863  22.930  0.00  0.00    +0.061 C 
ATOM     13  C   UNL     1       0.912   5.256  22.917  0.00  0.00    +0.130 C 
ATOM     14  C   UNL     1      -0.161   6.123  23.548  0.00  0.00    +0.116 C 
ENDROOT
BRANCH  11  16
ATOM      5  O   UNL     1       0.254   3.125  26.135  0.00  0.00    -0.336 OA
ATOM      9  N   UNL     1      -1.039   1.602  25.124  0.00  0.00    -0.194 NA
ATOM     10  N   UNL     1       0.294   1.983  26.944  0.00  0.00    -0.061 NA
ATOM     16  C   UNL     1      -0.552   2.816  25.086  0.00  0.00    +0.245 A 
ATOM     20  C   UNL     1      -0.492   1.130  26.282  0.00  0.00    +0.176 A 
BRANCH  20  24
ATOM     24  C   UNL     1      -0.749  -0.230  26.769  0.00  0.00    +0.116 C 
BRANCH  24  25
ATOM      1 CL   UNL     1       0.368  -1.326  24.095  0.00  0.00    -0.083 Cl
ATOM      3  F   UNL     1      -4.255  -3.308  23.574  0.00  0.00    -0.205 F 
ATOM     25  C   UNL     1      -1.672  -1.064  25.885  0.00  0.00    -0.021 A 
ATOM     27  C   UNL     1      -1.240  -1.590  24.668  0.00  0.00    +0.047 A 
ATOM     28  C   UNL     1      -2.976  -1.296  26.323  0.00  0.00    +0.008 A 
ATOM     29  C   UNL     1      -2.112  -2.348  23.887  0.00  0.00    +0.058 A 
ATOM     30  C   UNL     1      -3.848  -2.054  25.542  0.00  0.00    +0.039 A 
ATOM     31  C   UNL     1      -3.416  -2.581  24.324  0.00  0.00    +0.125 A 
ENDBRANCH  24  25
ENDBRANCH  20  24
ENDBRANCH  11  16
BRANCH  13   4
ATOM      4  O   UNL     1       1.205   5.664  21.594  0.00  0.00    -0.390 OA
ATOM     32  H   UNL     1       0.696   5.094  20.993  0.00  0.00    +0.210 HD
ENDBRANCH  13   4
BRANCH   8  15
ATOM     15  C   UNL     1      -1.904   5.745  25.186  0.00  0.00    +0.120 C 
BRANCH  15  17
ATOM     17  C   UNL     1      -2.970   4.682  25.179  0.00  0.00    -0.033 A 
ATOM     18  C   UNL     1      -3.447   4.166  26.384  0.00  0.00    +0.007 A 
ATOM     19  C   UNL     1      -3.482   4.212  23.969  0.00  0.00    +0.007 A 
ATOM     21  C   UNL     1      -4.435   3.181  26.379  0.00  0.00    +0.027 A 
ATOM     22  C   UNL     1      -4.469   3.227  23.963  0.00  0.00    +0.027 A 
ATOM     23  C   UNL     1      -4.946   2.712  25.169  0.00  0.00    +0.088 A 
BRANCH  23   2
ATOM      2  S   UNL     1      -6.182   1.478  25.162  0.00  0.00    -0.006 S 
ATOM      6  O   UNL     1      -7.352   1.985  24.458  0.00  0.00    -0.170 OA
ATOM      7  O   UNL     1      -5.566   0.230  24.736  0.00  0.00    -0.170 OA
ATOM     26  C   UNL     1      -6.641   1.304  26.872  0.00  0.00    +0.200 C 
ENDBRANCH  23   2
ENDBRANCH  15  17
ENDBRANCH   8  15
TORSDOF 7
ENDMDL
