MODEL 1
REMARK VINA RESULT:       8.6      0.000      0.000
REMARK  Name = 11939785
REMARK  6 active torsions:
REMARK  status: ('A' for Active; 'I' for Inactive)
REMARK    1  A    between atoms: N_5  and  C_13
REMARK    2  A    between atoms: N_6  and  C_14
REMARK    3  A    between atoms: N_10  and  C_31
REMARK    4  A    between atoms: N_10  and  C_32
REMARK    5  A    between atoms: N_10  and  C_33
REMARK    6  A    between atoms: C_23  and  C_26
REMARK                            x       y       z     vdW  Elec       q    Type
REMARK                         _______ _______ _______ _____ _____    ______ ____
ROOT
ATOM      1  O   UNL     1      -2.383   3.368  24.298  0.00  0.00    -0.370 OA
ATOM      2  O   UNL     1      -5.112   3.213  25.803  0.00  0.00    -0.370 OA
ATOM     11  C   UNL     1      -3.792   2.725  26.102  0.00  0.00    +0.171 C 
ATOM     12  C   UNL     1      -3.172   2.274  24.794  0.00  0.00    +0.171 C 
ATOM     13  C   UNL     1      -2.903   3.859  26.560  0.00  0.00    +0.131 C 
ATOM     14  C   UNL     1      -4.356   2.028  23.888  0.00  0.00    +0.130 C 
ATOM     15  C   UNL     1      -2.421   4.445  25.245  0.00  0.00    +0.185 C 
ATOM     16  C   UNL     1      -5.383   3.017  24.408  0.00  0.00    +0.185 C 
ENDROOT
BRANCH  13   5
ATOM      3  O   UNL     1      -0.219   3.727  25.726  0.00  0.00    -0.253 OA
ATOM      4  O   UNL     1       2.615   2.418  29.542  0.00  0.00    -0.377 OA
ATOM      5  N   UNL     1      -1.797   3.368  27.352  0.00  0.00    -0.292 N 
ATOM      7  N   UNL     1       0.469   2.826  27.749  0.00  0.00    -0.281 N 
ATOM     17  C   UNL     1      -0.497   3.336  26.864  0.00  0.00    +0.303 C 
ATOM     19  C   UNL     1       1.831   2.596  27.263  0.00  0.00    +0.137 C 
ATOM     20  C   UNL     1       0.224   2.342  29.115  0.00  0.00    +0.137 C 
ATOM     21  C   UNL     1       2.859   3.053  28.286  0.00  0.00    +0.179 C 
ATOM     22  C   UNL     1       1.336   2.790  30.057  0.00  0.00    +0.179 C 
ATOM     34  H   UNL     1      -2.034   2.891  28.212  0.00  0.00    +0.151 HD
ENDBRANCH  13   5
BRANCH  14   6
ATOM      6  N   UNL     1      -4.835   0.674  24.057  0.00  0.00    -0.306 N 
ATOM      8  N   UNL     1      -2.670  -0.224  23.933  0.00  0.00    -0.214 NA
ATOM      9  N   UNL     1      -4.587  -1.652  24.248  0.00  0.00    -0.223 NA
ATOM     18  C   UNL     1      -4.005  -0.434  24.081  0.00  0.00    +0.216 A 
ATOM     23  C   UNL     1      -1.892  -1.326  23.961  0.00  0.00    +0.076 A 
ATOM     24  C   UNL     1      -3.748  -2.710  24.265  0.00  0.00    +0.116 A 
ATOM     25  C   UNL     1      -2.380  -2.606  24.125  0.00  0.00    +0.048 A 
ATOM     35  H   UNL     1      -5.822   0.511  24.220  0.00  0.00    +0.149 HD
BRANCH  23  26
ATOM     26  C   UNL     1      -0.478  -1.081  23.803  0.00  0.00    +0.001 A 
ATOM     27  C   UNL     1      -0.028  -0.136  22.880  0.00  0.00    +0.012 A 
ATOM     28  C   UNL     1       0.446  -1.793  24.572  0.00  0.00    +0.012 A 
ATOM     29  C   UNL     1       1.339   0.099  22.726  0.00  0.00    +0.024 A 
ATOM     30  C   UNL     1       1.812  -1.559  24.420  0.00  0.00    +0.024 A 
ATOM     31  C   UNL     1       2.259  -0.613  23.496  0.00  0.00    +0.029 A 
BRANCH  31  10
ATOM     10  N   UNL     1       3.640  -0.376  23.341  0.00  0.00    -0.336 N 
ATOM     32  C   UNL     1       4.609  -1.333  23.838  0.00  0.00    +0.129 C 
ATOM     33  C   UNL     1       4.109   0.834  22.697  0.00  0.00    +0.129 C 
ENDBRANCH  31  10
ENDBRANCH  23  26
ENDBRANCH  14   6
TORSDOF 4
ENDMDL
MODEL 2
REMARK VINA RESULT:      11.8      2.250      5.622
REMARK  Name = 11939785
REMARK  6 active torsions:
REMARK  status: ('A' for Active; 'I' for Inactive)
REMARK    1  A    between atoms: N_5  and  C_13
REMARK    2  A    between atoms: N_6  and  C_14
REMARK    3  A    between atoms: N_10  and  C_31
REMARK    4  A    between atoms: N_10  and  C_32
REMARK    5  A    between atoms: N_10  and  C_33
REMARK    6  A    between atoms: C_23  and  C_26
REMARK                            x       y       z     vdW  Elec       q    Type
REMARK                         _______ _______ _______ _____ _____    ______ ____
ROOT
ATOM      1  O   UNL     1      -2.380  -1.595  25.866  0.00  0.00    -0.370 OA
ATOM      2  O   UNL     1      -4.079  -1.827  23.260  0.00  0.00    -0.370 OA
ATOM     11  C   UNL     1      -2.772  -1.297  23.540  0.00  0.00    +0.171 C 
ATOM     12  C   UNL     1      -2.838  -0.633  24.901  0.00  0.00    +0.171 C 
ATOM     13  C   UNL     1      -1.777  -2.420  23.725  0.00  0.00    +0.131 C 
ATOM     14  C   UNL     1      -4.307  -0.347  25.103  0.00  0.00    +0.130 C 
ATOM     15  C   UNL     1      -1.973  -2.790  25.184  0.00  0.00    +0.185 C 
ATOM     16  C   UNL     1      -4.974  -1.462  24.320  0.00  0.00    +0.185 C 
ENDROOT
BRANCH  13   5
ATOM      3  O   UNL     1      -0.966   0.261  23.458  0.00  0.00    -0.253 OA
ATOM      4  O   UNL     1       3.954   0.462  23.214  0.00  0.00    -0.377 OA
ATOM      5  N   UNL     1      -0.427  -1.969  23.476  0.00  0.00    -0.292 N 
ATOM      7  N   UNL     1       1.246  -0.340  23.108  0.00  0.00    -0.281 N 
ATOM     17  C   UNL     1      -0.108  -0.622  23.356  0.00  0.00    +0.303 C 
ATOM     19  C   UNL     1       1.644   1.035  22.799  0.00  0.00    +0.137 C 
ATOM     20  C   UNL     1       2.327  -1.327  22.973  0.00  0.00    +0.137 C 
ATOM     21  C   UNL     1       2.928   1.407  23.522  0.00  0.00    +0.179 C 
ATOM     22  C   UNL     1       3.594  -0.843  23.669  0.00  0.00    +0.179 C 
ATOM     34  H   UNL     1       0.247  -2.679  23.222  0.00  0.00    +0.151 HD
ENDBRANCH  13   5
BRANCH  14   6
ATOM      6  N   UNL     1      -4.644   0.938  24.530  0.00  0.00    -0.306 N 
ATOM      8  N   UNL     1      -2.820   1.999  25.558  0.00  0.00    -0.214 NA
ATOM      9  N   UNL     1      -4.337   3.233  24.149  0.00  0.00    -0.223 NA
ATOM     18  C   UNL     1      -3.911   2.091  24.752  0.00  0.00    +0.216 A 
ATOM     23  C   UNL     1      -2.131   3.141  25.753  0.00  0.00    +0.076 A 
ATOM     24  C   UNL     1      -3.600   4.338  24.389  0.00  0.00    +0.116 A 
ATOM     25  C   UNL     1      -2.477   4.352  25.189  0.00  0.00    +0.048 A 
ATOM     35  H   UNL     1      -5.424   1.007  23.886  0.00  0.00    +0.149 HD
BRANCH  23  26
ATOM     26  C   UNL     1      -0.976   3.021  26.611  0.00  0.00    +0.001 A 
ATOM     27  C   UNL     1       0.301   2.910  26.058  0.00  0.00    +0.012 A 
ATOM     28  C   UNL     1      -1.133   3.012  27.999  0.00  0.00    +0.012 A 
ATOM     29  C   UNL     1       1.416   2.791  26.887  0.00  0.00    +0.024 A 
ATOM     30  C   UNL     1      -0.018   2.894  28.829  0.00  0.00    +0.024 A 
ATOM     31  C   UNL     1       1.257   2.783  28.273  0.00  0.00    +0.029 A 
BRANCH  31  10
ATOM     10  N   UNL     1       2.385   2.664  29.112  0.00  0.00    -0.336 N 
ATOM     32  C   UNL     1       2.337   1.819  30.289  0.00  0.00    +0.129 C 
ATOM     33  C   UNL     1       3.599   3.396  28.816  0.00  0.00    +0.129 C 
ENDBRANCH  31  10
ENDBRANCH  23  26
ENDBRANCH  14   6
TORSDOF 4
ENDMDL
