MODEL 1
REMARK VINA RESULT:       3.8      0.000      0.000
REMARK  Name = 25313127
REMARK  9 active torsions:
REMARK  status: ('A' for Active; 'I' for Inactive)
REMARK    1  A    between atoms: O_5  and  C_23
REMARK    2  A    between atoms: N_8  and  C_16
REMARK    3  A    between atoms: N_9  and  C_25
REMARK    4  A    between atoms: C_10  and  C_14
REMARK    5  A    between atoms: C_11  and  C_17
REMARK    6  A    between atoms: C_14  and  C_16
REMARK    7  A    between atoms: C_17  and  C_23
REMARK    8  A    between atoms: C_20  and  C_24
REMARK    9  A    between atoms: C_32  and  C_36
REMARK                            x       y       z     vdW  Elec       q    Type
REMARK                         _______ _______ _______ _____ _____    ______ ____
ROOT
ATOM      4  O   UNL     1      -5.957   1.438  26.781  0.00  0.00    -0.270 OA
ATOM      7  N   UNL     1      -5.143   2.546  24.888  0.00  0.00    -0.297 N 
ATOM     10  C   UNL     1      -3.250   3.564  23.642  0.00  0.00    +0.011 C 
ATOM     11  C   UNL     1      -3.789   4.962  24.041  0.00  0.00    +0.006 C 
ATOM     12  C   UNL     1      -4.402   2.543  23.620  0.00  0.00    +0.112 C 
ATOM     13  C   UNL     1      -4.597   4.904  25.349  0.00  0.00    +0.023 C 
ATOM     15  C   UNL     1      -5.692   3.844  25.275  0.00  0.00    +0.108 C 
ATOM     20  C   UNL     1      -5.343   1.438  25.715  0.00  0.00    +0.247 C 
ENDROOT
BRANCH  20  24
ATOM     24  C   UNL     1      -4.776   0.153  25.295  0.00  0.00    +0.037 A 
ATOM     26  C   UNL     1      -5.125  -0.394  24.060  0.00  0.00    +0.013 A 
ATOM     27  C   UNL     1      -3.888  -0.524  26.130  0.00  0.00    +0.013 A 
ATOM     30  C   UNL     1      -4.586  -1.617  23.661  0.00  0.00    +0.013 A 
ATOM     31  C   UNL     1      -3.348  -1.747  25.731  0.00  0.00    +0.013 A 
ATOM     32  C   UNL     1      -3.697  -2.293  24.496  0.00  0.00    +0.055 A 
BRANCH  32  36
ATOM      1  F   UNL     1      -3.582  -4.034  22.859  0.00  0.00    -0.166 F 
ATOM      2  F   UNL     1      -3.400  -4.608  24.948  0.00  0.00    -0.166 F 
ATOM      3  F   UNL     1      -1.761  -3.587  23.949  0.00  0.00    -0.166 F 
ATOM     36  C   UNL     1      -3.121  -3.601  24.070  0.00  0.00    +0.417 C 
ENDBRANCH  32  36
ENDBRANCH  20  24
BRANCH  10  14
ATOM     14  C   UNL     1      -2.109   3.060  24.535  0.00  0.00    +0.020 C 
BRANCH  14  16
ATOM     16  C   UNL     1      -1.975   1.546  24.443  0.00  0.00    +0.085 C 
BRANCH  16   8
ATOM      8  N   UNL     1      -0.711   1.198  23.796  0.00  0.00    -0.299 NA
ATOM      9  N   UNL     1       2.020   0.365  23.690  0.00  0.00    -0.327 N 
ATOM     18  C   UNL     1      -0.346  -0.192  24.095  0.00  0.00    +0.103 C 
ATOM     19  C   UNL     1       0.359   2.102  24.240  0.00  0.00    +0.103 C 
ATOM     21  C   UNL     1       0.948  -0.587  23.379  0.00  0.00    +0.120 C 
ATOM     22  C   UNL     1       1.675   1.784  23.528  0.00  0.00    +0.120 C 
BRANCH   9  25
ATOM     25  C   UNL     1       3.356  -0.012  23.513  0.00  0.00    +0.030 A 
ATOM     28  C   UNL     1       4.277   0.903  23.003  0.00  0.00    +0.023 A 
ATOM     29  C   UNL     1       3.767  -1.301  23.850  0.00  0.00    +0.023 A 
ATOM     33  C   UNL     1       5.610   0.529  22.830  0.00  0.00    +0.002 A 
ATOM     34  C   UNL     1       5.100  -1.676  23.677  0.00  0.00    +0.002 A 
ATOM     35  C   UNL     1       6.020  -0.761  23.168  0.00  0.00    +0.000 A 
ENDBRANCH   9  25
ENDBRANCH  16   8
ENDBRANCH  14  16
ENDBRANCH  10  14
BRANCH  11  17
ATOM     17  C   UNL     1      -2.696   6.026  24.129  0.00  0.00    +0.124 C 
BRANCH  17  23
ATOM      6  O   UNL     1      -0.358   5.571  24.645  0.00  0.00    -0.251 OA
ATOM     23  C   UNL     1      -1.537   5.563  24.966  0.00  0.00    +0.305 C 
BRANCH  23   5
ATOM      5  O   UNL     1      -1.988   5.119  26.168  0.00  0.00    -0.481 OA
ATOM     37  H   UNL     1      -2.364   4.215  26.105  0.00  0.00    +0.295 HD
ENDBRANCH  23   5
ENDBRANCH  17  23
ENDBRANCH  11  17
TORSDOF 9
ENDMDL
MODEL 2
REMARK VINA RESULT:       5.8      3.664      5.776
REMARK  Name = 25313127
REMARK  9 active torsions:
REMARK  status: ('A' for Active; 'I' for Inactive)
REMARK    1  A    between atoms: O_5  and  C_23
REMARK    2  A    between atoms: N_8  and  C_16
REMARK    3  A    between atoms: N_9  and  C_25
REMARK    4  A    between atoms: C_10  and  C_14
REMARK    5  A    between atoms: C_11  and  C_17
REMARK    6  A    between atoms: C_14  and  C_16
REMARK    7  A    between atoms: C_17  and  C_23
REMARK    8  A    between atoms: C_20  and  C_24
REMARK    9  A    between atoms: C_32  and  C_36
REMARK                            x       y       z     vdW  Elec       q    Type
REMARK                         _______ _______ _______ _____ _____    ______ ____
ROOT
ATOM      4  O   UNL     1      -6.439   2.027  24.640  0.00  0.00    -0.270 OA
ATOM      7  N   UNL     1      -4.734   0.570  25.303  0.00  0.00    -0.297 N 
ATOM     10  C   UNL     1      -2.733  -0.793  24.744  0.00  0.00    +0.011 C 
ATOM     11  C   UNL     1      -3.627  -2.059  24.800  0.00  0.00    +0.006 C 
ATOM     12  C   UNL     1      -3.327   0.309  25.639  0.00  0.00    +0.112 C 
ATOM     13  C   UNL     1      -5.096  -1.727  24.488  0.00  0.00    +0.023 C 
ATOM     15  C   UNL     1      -5.609  -0.598  25.378  0.00  0.00    +0.108 C 
ATOM     20  C   UNL     1      -5.265   1.806  24.927  0.00  0.00    +0.247 C 
ENDROOT
BRANCH  20  24
ATOM     24  C   UNL     1      -4.355   2.955  24.862  0.00  0.00    +0.037 A 
ATOM     26  C   UNL     1      -3.744   3.429  26.023  0.00  0.00    +0.013 A 
ATOM     27  C   UNL     1      -4.102   3.575  23.638  0.00  0.00    +0.013 A 
ATOM     30  C   UNL     1      -2.881   4.523  25.960  0.00  0.00    +0.013 A 
ATOM     31  C   UNL     1      -3.237   4.668  23.575  0.00  0.00    +0.013 A 
ATOM     32  C   UNL     1      -2.627   5.142  24.736  0.00  0.00    +0.055 A 
BRANCH  32  36
ATOM      1  F   UNL     1      -1.842   7.179  25.715  0.00  0.00    -0.166 F 
ATOM      2  F   UNL     1      -1.890   7.062  23.545  0.00  0.00    -0.166 F 
ATOM      3  F   UNL     1      -0.383   5.966  24.664  0.00  0.00    -0.166 F 
ATOM     36  C   UNL     1      -1.704   6.311  24.669  0.00  0.00    +0.417 C 
ENDBRANCH  32  36
ENDBRANCH  20  24
BRANCH  10  14
ATOM     14  C   UNL     1      -2.499  -0.259  23.325  0.00  0.00    +0.020 C 
BRANCH  14  16
ATOM     16  C   UNL     1      -1.921   1.149  23.363  0.00  0.00    +0.085 C 
BRANCH  16   8
ATOM      8  N   UNL     1      -0.493   1.108  23.052  0.00  0.00    -0.299 NA
ATOM      9  N   UNL     1       2.219   0.264  23.361  0.00  0.00    -0.327 N 
ATOM     18  C   UNL     1      -0.089  -0.251  22.670  0.00  0.00    +0.103 C 
ATOM     19  C   UNL     1       0.298   1.558  24.205  0.00  0.00    +0.103 C 
ATOM     21  C   UNL     1       1.393  -0.297  22.288  0.00  0.00    +0.120 C 
ATOM     22  C   UNL     1       1.791   1.573  23.874  0.00  0.00    +0.120 C 
BRANCH   9  25
ATOM     25  C   UNL     1       3.579  -0.056  23.431  0.00  0.00    +0.030 A 
ATOM     28  C   UNL     1       3.975  -1.342  23.799  0.00  0.00    +0.023 A 
ATOM     29  C   UNL     1       4.540   0.909  23.130  0.00  0.00    +0.023 A 
ATOM     33  C   UNL     1       5.331  -1.663  23.865  0.00  0.00    +0.002 A 
ATOM     34  C   UNL     1       5.896   0.589  23.196  0.00  0.00    +0.002 A 
ATOM     35  C   UNL     1       6.291  -0.696  23.563  0.00  0.00    +0.000 A 
ENDBRANCH   9  25
ENDBRANCH  16   8
ENDBRANCH  14  16
ENDBRANCH  10  14
BRANCH  11  17
ATOM     17  C   UNL     1      -3.128  -3.189  23.901  0.00  0.00    +0.124 C 
BRANCH  17  23
ATOM      6  O   UNL     1      -0.906  -3.018  24.888  0.00  0.00    -0.251 OA
ATOM     23  C   UNL     1      -1.631  -3.318  23.952  0.00  0.00    +0.305 C 
BRANCH  23   5
ATOM      5  O   UNL     1      -1.176  -3.831  22.779  0.00  0.00    -0.481 OA
ATOM     37  H   UNL     1      -1.906  -3.989  22.142  0.00  0.00    +0.295 HD
ENDBRANCH  23   5
ENDBRANCH  17  23
ENDBRANCH  11  17
TORSDOF 9
ENDMDL
MODEL 3
REMARK VINA RESULT:       7.2      3.401      5.234
REMARK  Name = 25313127
REMARK  9 active torsions:
REMARK  status: ('A' for Active; 'I' for Inactive)
REMARK    1  A    between atoms: O_5  and  C_23
REMARK    2  A    between atoms: N_8  and  C_16
REMARK    3  A    between atoms: N_9  and  C_25
REMARK    4  A    between atoms: C_10  and  C_14
REMARK    5  A    between atoms: C_11  and  C_17
REMARK    6  A    between atoms: C_14  and  C_16
REMARK    7  A    between atoms: C_17  and  C_23
REMARK    8  A    between atoms: C_20  and  C_24
REMARK    9  A    between atoms: C_32  and  C_36
REMARK                            x       y       z     vdW  Elec       q    Type
REMARK                         _______ _______ _______ _____ _____    ______ ____
ROOT
ATOM      4  O   UNL     1      -2.695  -2.118  25.537  0.00  0.00    -0.270 OA
ATOM      7  N   UNL     1      -3.782  -0.619  24.108  0.00  0.00    -0.297 N 
ATOM     10  C   UNL     1      -4.420   1.709  23.517  0.00  0.00    +0.011 C 
ATOM     11  C   UNL     1      -5.849   1.409  24.040  0.00  0.00    +0.006 C 
ATOM     12  C   UNL     1      -3.746   0.405  23.054  0.00  0.00    +0.112 C 
ATOM     13  C   UNL     1      -5.839   0.299  25.105  0.00  0.00    +0.023 C 
ATOM     15  C   UNL     1      -5.119  -0.947  24.599  0.00  0.00    +0.108 C 
ATOM     20  C   UNL     1      -2.670  -1.266  24.651  0.00  0.00    +0.247 C 
ENDROOT
BRANCH  20  24
ATOM     24  C   UNL     1      -1.344  -0.910  24.134  0.00  0.00    +0.037 A 
ATOM     26  C   UNL     1      -1.227  -0.015  23.070  0.00  0.00    +0.013 A 
ATOM     27  C   UNL     1      -0.200  -1.466  24.706  0.00  0.00    +0.013 A 
ATOM     30  C   UNL     1       0.034   0.322  22.578  0.00  0.00    +0.013 A 
ATOM     31  C   UNL     1       1.061  -1.128  24.214  0.00  0.00    +0.013 A 
ATOM     32  C   UNL     1       1.178  -0.234  23.150  0.00  0.00    +0.055 A 
BRANCH  32  36
ATOM      1  F   UNL     1       3.520  -0.711  23.044  0.00  0.00    -0.166 F 
ATOM      2  F   UNL     1       2.919   1.378  23.002  0.00  0.00    -0.166 F 
ATOM      3  F   UNL     1       2.603   0.116  21.261  0.00  0.00    -0.166 F 
ATOM     36  C   UNL     1       2.526   0.127  22.624  0.00  0.00    +0.417 C 
ENDBRANCH  32  36
ENDBRANCH  20  24
BRANCH  10  14
ATOM     14  C   UNL     1      -3.528   2.439  24.529  0.00  0.00    +0.020 C 
BRANCH  14  16
ATOM     16  C   UNL     1      -2.310   3.041  23.843  0.00  0.00    +0.085 C 
BRANCH  16   8
ATOM      8  N   UNL     1      -1.116   2.805  24.655  0.00  0.00    -0.299 NA
ATOM      9  N   UNL     1       0.427   2.721  27.057  0.00  0.00    -0.327 N 
ATOM     18  C   UNL     1      -1.382   1.781  25.673  0.00  0.00    +0.103 C 
ATOM     19  C   UNL     1      -0.678   4.050  25.300  0.00  0.00    +0.103 C 
ATOM     21  C   UNL     1      -0.125   1.484  26.495  0.00  0.00    +0.120 C 
ATOM     22  C   UNL     1       0.602   3.828  26.108  0.00  0.00    +0.120 C 
BRANCH   9  25
ATOM     25  C   UNL     1       1.286   2.659  28.160  0.00  0.00    +0.030 A 
ATOM     28  C   UNL     1       0.835   2.121  29.366  0.00  0.00    +0.023 A 
ATOM     29  C   UNL     1       2.593   3.133  28.054  0.00  0.00    +0.023 A 
ATOM     33  C   UNL     1       1.691   2.057  30.465  0.00  0.00    +0.002 A 
ATOM     34  C   UNL     1       3.450   3.069  29.153  0.00  0.00    +0.002 A 
ATOM     35  C   UNL     1       2.999   2.531  30.357  0.00  0.00    +0.000 A 
ENDBRANCH   9  25
ENDBRANCH  16   8
ENDBRANCH  14  16
ENDBRANCH  10  14
BRANCH  11  17
ATOM     17  C   UNL     1      -6.572   2.650  24.561  0.00  0.00    +0.124 C 
BRANCH  17  23
ATOM      6  O   UNL     1      -5.231   4.089  26.000  0.00  0.00    -0.251 OA
ATOM     23  C   UNL     1      -5.980   3.135  25.854  0.00  0.00    +0.305 C 
BRANCH  23   5
ATOM      5  O   UNL     1      -6.404   2.346  26.876  0.00  0.00    -0.481 OA
ATOM     37  H   UNL     1      -6.930   2.850  27.533  0.00  0.00    +0.295 HD
ENDBRANCH  23   5
ENDBRANCH  17  23
ENDBRANCH  11  17
TORSDOF 9
ENDMDL
MODEL 4
REMARK VINA RESULT:       7.3      3.503      5.470
REMARK  Name = 25313127
REMARK  9 active torsions:
REMARK  status: ('A' for Active; 'I' for Inactive)
REMARK    1  A    between atoms: O_5  and  C_23
REMARK    2  A    between atoms: N_8  and  C_16
REMARK    3  A    between atoms: N_9  and  C_25
REMARK    4  A    between atoms: C_10  and  C_14
REMARK    5  A    between atoms: C_11  and  C_17
REMARK    6  A    between atoms: C_14  and  C_16
REMARK    7  A    between atoms: C_17  and  C_23
REMARK    8  A    between atoms: C_20  and  C_24
REMARK    9  A    between atoms: C_32  and  C_36
REMARK                            x       y       z     vdW  Elec       q    Type
REMARK                         _______ _______ _______ _____ _____    ______ ____
ROOT
ATOM      4  O   UNL     1       0.333   3.665  23.904  0.00  0.00    -0.270 OA
ATOM      7  N   UNL     1      -1.815   3.636  24.832  0.00  0.00    -0.297 N 
ATOM     10  C   UNL     1      -3.772   2.363  25.682  0.00  0.00    +0.011 C 
ATOM     11  C   UNL     1      -4.512   2.694  24.361  0.00  0.00    +0.006 C 
ATOM     12  C   UNL     1      -2.715   3.443  25.977  0.00  0.00    +0.112 C 
ATOM     13  C   UNL     1      -3.526   2.934  23.205  0.00  0.00    +0.023 C 
ATOM     15  C   UNL     1      -2.481   3.982  23.578  0.00  0.00    +0.108 C 
ATOM     20  C   UNL     1      -0.424   3.510  24.861  0.00  0.00    +0.247 C 
ENDROOT
BRANCH  20  24
ATOM     24  C   UNL     1       0.210   3.161  26.137  0.00  0.00    +0.037 A 
ATOM     26  C   UNL     1       1.391   3.792  26.526  0.00  0.00    +0.013 A 
ATOM     27  C   UNL     1      -0.369   2.197  26.963  0.00  0.00    +0.013 A 
ATOM     30  C   UNL     1       1.994   3.459  27.740  0.00  0.00    +0.013 A 
ATOM     31  C   UNL     1       0.232   1.865  28.177  0.00  0.00    +0.013 A 
ATOM     32  C   UNL     1       1.414   2.496  28.565  0.00  0.00    +0.055 A 
BRANCH  32  36
ATOM      1  F   UNL     1       1.200   2.165  30.924  0.00  0.00    -0.166 F 
ATOM      2  F   UNL     1       3.075   2.988  30.193  0.00  0.00    -0.166 F 
ATOM      3  F   UNL     1       2.606   0.889  29.876  0.00  0.00    -0.166 F 
ATOM     36  C   UNL     1       2.058   2.140  29.861  0.00  0.00    +0.417 C 
ENDBRANCH  32  36
ENDBRANCH  20  24
BRANCH  10  14
ATOM     14  C   UNL     1      -3.129   0.970  25.702  0.00  0.00    +0.020 C 
BRANCH  14  16
ATOM     16  C   UNL     1      -3.237   0.302  24.338  0.00  0.00    +0.085 C 
BRANCH  16   8
ATOM      8  N   UNL     1      -1.918  -0.158  23.905  0.00  0.00    -0.299 NA
ATOM      9  N   UNL     1       0.928  -0.068  23.675  0.00  0.00    -0.327 N 
ATOM     18  C   UNL     1      -1.069  -0.451  25.067  0.00  0.00    +0.103 C 
ATOM     19  C   UNL     1      -1.274   0.853  23.058  0.00  0.00    +0.103 C 
ATOM     21  C   UNL     1       0.296  -0.987  24.629  0.00  0.00    +0.120 C 
ATOM     22  C   UNL     1       0.084   0.361  22.552  0.00  0.00    +0.120 C 
BRANCH   9  25
ATOM     25  C   UNL     1       2.312  -0.118  23.476  0.00  0.00    +0.030 A 
ATOM     28  C   UNL     1       2.976   0.975  22.918  0.00  0.00    +0.023 A 
ATOM     29  C   UNL     1       3.028  -1.258  23.838  0.00  0.00    +0.023 A 
ATOM     33  C   UNL     1       4.356   0.927  22.722  0.00  0.00    +0.002 A 
ATOM     34  C   UNL     1       4.408  -1.307  23.642  0.00  0.00    +0.002 A 
ATOM     35  C   UNL     1       5.071  -0.215  23.084  0.00  0.00    +0.000 A 
ENDBRANCH   9  25
ENDBRANCH  16   8
ENDBRANCH  14  16
ENDBRANCH  10  14
BRANCH  11  17
ATOM     17  C   UNL     1      -5.552   1.643  23.973  0.00  0.00    +0.124 C 
BRANCH  17  23
ATOM      6  O   UNL     1      -6.620   1.464  26.157  0.00  0.00    -0.251 OA
ATOM     23  C   UNL     1      -6.697   1.610  24.946  0.00  0.00    +0.305 C 
BRANCH  23   5
ATOM      5  O   UNL     1      -7.869   1.770  24.278  0.00  0.00    -0.481 OA
ATOM     37  H   UNL     1      -8.313   2.611  24.518  0.00  0.00    +0.295 HD
ENDBRANCH  23   5
ENDBRANCH  17  23
ENDBRANCH  11  17
TORSDOF 9
ENDMDL
