MODEL 1
REMARK VINA RESULT:       6.0      0.000      0.000
REMARK  Name = 11867377
REMARK  12 active torsions:
REMARK  status: ('A' for Active; 'I' for Inactive)
REMARK    1  A    between atoms: O_3  and  C_14
REMARK    2  A    between atoms: O_3  and  C_18
REMARK    3  A    between atoms: O_6  and  C_28
REMARK    4  A    between atoms: O_6  and  C_33
REMARK    5  A    between atoms: O_7  and  C_29
REMARK    6  A    between atoms: O_7  and  C_34
REMARK    7  A    between atoms: N_8  and  C_13
REMARK    8  A    between atoms: N_9  and  C_22
REMARK    9  A    between atoms: N_10  and  C_25
REMARK   10  A    between atoms: N_10  and  C_31
REMARK   11  A    between atoms: N_10  and  C_32
REMARK   12  A    between atoms: C_17  and  C_19
REMARK                            x       y       z     vdW  Elec       q    Type
REMARK                         _______ _______ _______ _____ _____    ______ ____
ROOT
ATOM      1  O   UNL     1      -3.660   3.113  24.045  0.00  0.00    -0.368 OA
ATOM      2  O   UNL     1      -3.188   5.264  26.179  0.00  0.00    -0.368 OA
ATOM     11  C   UNL     1      -2.396   4.129  25.775  0.00  0.00    +0.173 C 
ATOM     12  C   UNL     1      -3.365   3.011  25.448  0.00  0.00    +0.192 C 
ATOM     13  C   UNL     1      -1.713   4.413  24.458  0.00  0.00    +0.130 C 
ATOM     14  C   UNL     1      -4.563   3.359  26.298  0.00  0.00    +0.235 C 
ATOM     15  C   UNL     1      -2.811   4.109  23.453  0.00  0.00    +0.185 C 
ATOM     16  C   UNL     1      -4.567   4.869  26.243  0.00  0.00    +0.207 C 
ENDROOT
BRANCH  13   8
ATOM      4  O   UNL     1      -1.682   1.884  23.098  0.00  0.00    -0.270 OA
ATOM      8  N   UNL     1      -0.571   3.553  24.265  0.00  0.00    -0.304 N 
ATOM     17  C   UNL     1      -0.655   2.343  23.591  0.00  0.00    +0.244 C 
ATOM     35  H   UNL     1       0.289   3.813  24.737  0.00  0.00    +0.149 HD
BRANCH  17  19
ATOM     19  C   UNL     1       0.605   1.560  23.499  0.00  0.00    +0.037 A 
ATOM     20  C   UNL     1       0.558   0.169  23.416  0.00  0.00    +0.015 A 
ATOM     21  C   UNL     1       1.835   2.217  23.495  0.00  0.00    +0.015 A 
ATOM     23  C   UNL     1       1.741  -0.565  23.329  0.00  0.00    +0.024 A 
ATOM     24  C   UNL     1       3.018   1.484  23.408  0.00  0.00    +0.024 A 
ATOM     25  C   UNL     1       2.971   0.092  23.326  0.00  0.00    +0.029 A 
BRANCH  25  10
ATOM     10  N   UNL     1       4.166  -0.650  23.240  0.00  0.00    -0.336 N 
ATOM     31  C   UNL     1       4.223  -2.011  23.737  0.00  0.00    +0.129 C 
ATOM     32  C   UNL     1       5.359  -0.058  22.667  0.00  0.00    +0.129 C 
ENDBRANCH  25  10
ENDBRANCH  17  19
ENDBRANCH  13   8
BRANCH  14   3
ATOM      3  O   UNL     1      -5.771   2.807  25.821  0.00  0.00    -0.442 OA
BRANCH   3  18
ATOM      5  O   UNL     1      -6.602   1.122  24.516  0.00  0.00    -0.226 OA
ATOM      9  N   UNL     1      -4.473   0.995  25.482  0.00  0.00    -0.251 N 
ATOM     18  C   UNL     1      -5.693   1.578  25.201  0.00  0.00    +0.405 C 
ATOM     36  H   UNL     1      -3.843   1.531  26.074  0.00  0.00    +0.158 HD
BRANCH   9  22
ATOM     22  C   UNL     1      -3.987  -0.259  25.046  0.00  0.00    +0.043 A 
ATOM     26  C   UNL     1      -2.691  -0.659  25.376  0.00  0.00    +0.069 A 
ATOM     27  C   UNL     1      -4.804  -1.098  24.288  0.00  0.00    +0.069 A 
ATOM     28  C   UNL     1      -4.326  -2.336  23.859  0.00  0.00    +0.125 A 
ATOM     29  C   UNL     1      -2.213  -1.897  24.947  0.00  0.00    +0.125 A 
ATOM     30  C   UNL     1      -3.030  -2.735  24.188  0.00  0.00    +0.091 A 
BRANCH  28   6
ATOM      6  O   UNL     1      -5.123  -3.156  23.119  0.00  0.00    -0.495 OA
ATOM     33  C   UNL     1      -4.486  -4.223  22.419  0.00  0.00    +0.277 C 
ENDBRANCH  28   6
BRANCH  29   7
ATOM      7  O   UNL     1      -0.950  -2.287  25.269  0.00  0.00    -0.495 OA
ATOM     34  C   UNL     1      -0.255  -1.501  26.236  0.00  0.00    +0.277 C 
ENDBRANCH  29   7
ENDBRANCH   9  22
ENDBRANCH   3  18
ENDBRANCH  14   3
TORSDOF 8
ENDMDL
MODEL 2
REMARK VINA RESULT:       6.0      0.086      2.252
REMARK  Name = 11867377
REMARK  12 active torsions:
REMARK  status: ('A' for Active; 'I' for Inactive)
REMARK    1  A    between atoms: O_3  and  C_14
REMARK    2  A    between atoms: O_3  and  C_18
REMARK    3  A    between atoms: O_6  and  C_28
REMARK    4  A    between atoms: O_6  and  C_33
REMARK    5  A    between atoms: O_7  and  C_29
REMARK    6  A    between atoms: O_7  and  C_34
REMARK    7  A    between atoms: N_8  and  C_13
REMARK    8  A    between atoms: N_9  and  C_22
REMARK    9  A    between atoms: N_10  and  C_25
REMARK   10  A    between atoms: N_10  and  C_31
REMARK   11  A    between atoms: N_10  and  C_32
REMARK   12  A    between atoms: C_17  and  C_19
REMARK                            x       y       z     vdW  Elec       q    Type
REMARK                         _______ _______ _______ _____ _____    ______ ____
ROOT
ATOM      1  O   UNL     1      -3.560   3.218  24.006  0.00  0.00    -0.368 OA
ATOM      2  O   UNL     1      -3.106   5.250  26.258  0.00  0.00    -0.368 OA
ATOM     11  C   UNL     1      -2.323   4.121  25.817  0.00  0.00    +0.173 C 
ATOM     12  C   UNL     1      -3.304   3.040  25.409  0.00  0.00    +0.192 C 
ATOM     13  C   UNL     1      -1.601   4.458  24.534  0.00  0.00    +0.130 C 
ATOM     14  C   UNL     1      -4.518   3.368  26.245  0.00  0.00    +0.235 C 
ATOM     15  C   UNL     1      -2.678   4.226  23.488  0.00  0.00    +0.185 C 
ATOM     16  C   UNL     1      -4.492   4.879  26.267  0.00  0.00    +0.207 C 
ENDROOT
BRANCH  13   8
ATOM      4  O   UNL     1      -1.600   1.958  23.119  0.00  0.00    -0.270 OA
ATOM      8  N   UNL     1      -0.470   3.586  24.326  0.00  0.00    -0.304 N 
ATOM     17  C   UNL     1      -0.569   2.392  23.626  0.00  0.00    +0.244 C 
ATOM     35  H   UNL     1       0.391   3.824  24.807  0.00  0.00    +0.149 HD
BRANCH  17  19
ATOM     19  C   UNL     1       0.681   1.594  23.521  0.00  0.00    +0.037 A 
ATOM     20  C   UNL     1       1.917   2.238  23.464  0.00  0.00    +0.015 A 
ATOM     21  C   UNL     1       0.618   0.201  23.481  0.00  0.00    +0.015 A 
ATOM     23  C   UNL     1       3.090   1.489  23.366  0.00  0.00    +0.024 A 
ATOM     24  C   UNL     1       1.790  -0.547  23.383  0.00  0.00    +0.024 A 
ATOM     25  C   UNL     1       3.026   0.097  23.326  0.00  0.00    +0.029 A 
BRANCH  25  10
ATOM     10  N   UNL     1       4.212  -0.659  23.225  0.00  0.00    -0.336 N 
ATOM     31  C   UNL     1       4.267  -2.012  23.744  0.00  0.00    +0.129 C 
ATOM     32  C   UNL     1       5.397  -0.090  22.613  0.00  0.00    +0.129 C 
ENDBRANCH  25  10
ENDBRANCH  17  19
ENDBRANCH  13   8
BRANCH  14   3
ATOM      3  O   UNL     1      -5.722   2.865  25.711  0.00  0.00    -0.442 OA
BRANCH   3  18
ATOM      5  O   UNL     1      -6.628   1.111  24.554  0.00  0.00    -0.226 OA
ATOM      9  N   UNL     1      -4.440   1.038  25.386  0.00  0.00    -0.251 N 
ATOM     18  C   UNL     1      -5.679   1.604  25.153  0.00  0.00    +0.405 C 
ATOM     36  H   UNL     1      -3.777   1.607  25.907  0.00  0.00    +0.158 HD
BRANCH   9  22
ATOM     22  C   UNL     1      -3.978  -0.237  24.988  0.00  0.00    +0.043 A 
ATOM     26  C   UNL     1      -4.809  -1.083  24.253  0.00  0.00    +0.069 A 
ATOM     27  C   UNL     1      -2.689  -0.649  25.330  0.00  0.00    +0.069 A 
ATOM     28  C   UNL     1      -2.232  -1.906  24.937  0.00  0.00    +0.125 A 
ATOM     29  C   UNL     1      -4.351  -2.340  23.859  0.00  0.00    +0.125 A 
ATOM     30  C   UNL     1      -3.063  -2.752  24.201  0.00  0.00    +0.091 A 
BRANCH  28   6
ATOM      6  O   UNL     1      -0.974  -2.309  25.269  0.00  0.00    -0.495 OA
ATOM     33  C   UNL     1      -0.270  -1.517  26.224  0.00  0.00    +0.277 C 
ENDBRANCH  28   6
BRANCH  29   7
ATOM      7  O   UNL     1      -5.161  -3.165  23.141  0.00  0.00    -0.495 OA
ATOM     34  C   UNL     1      -4.531  -4.203  22.391  0.00  0.00    +0.277 C 
ENDBRANCH  29   7
ENDBRANCH   9  22
ENDBRANCH   3  18
ENDBRANCH  14   3
TORSDOF 8
ENDMDL
MODEL 3
REMARK VINA RESULT:       6.5      1.993      5.331
REMARK  Name = 11867377
REMARK  12 active torsions:
REMARK  status: ('A' for Active; 'I' for Inactive)
REMARK    1  A    between atoms: O_3  and  C_14
REMARK    2  A    between atoms: O_3  and  C_18
REMARK    3  A    between atoms: O_6  and  C_28
REMARK    4  A    between atoms: O_6  and  C_33
REMARK    5  A    between atoms: O_7  and  C_29
REMARK    6  A    between atoms: O_7  and  C_34
REMARK    7  A    between atoms: N_8  and  C_13
REMARK    8  A    between atoms: N_9  and  C_22
REMARK    9  A    between atoms: N_10  and  C_25
REMARK   10  A    between atoms: N_10  and  C_31
REMARK   11  A    between atoms: N_10  and  C_32
REMARK   12  A    between atoms: C_17  and  C_19
REMARK                            x       y       z     vdW  Elec       q    Type
REMARK                         _______ _______ _______ _____ _____    ______ ____
ROOT
ATOM      1  O   UNL     1      -2.938  -0.669  25.760  0.00  0.00    -0.368 OA
ATOM      2  O   UNL     1      -3.932  -2.622  23.616  0.00  0.00    -0.368 OA
ATOM     11  C   UNL     1      -2.715  -1.855  23.719  0.00  0.00    +0.173 C 
ATOM     12  C   UNL     1      -3.088  -0.523  24.338  0.00  0.00    +0.192 C 
ATOM     13  C   UNL     1      -1.791  -2.481  24.736  0.00  0.00    +0.130 C 
ATOM     14  C   UNL     1      -4.536  -0.372  23.940  0.00  0.00    +0.235 C 
ATOM     15  C   UNL     1      -2.339  -1.942  26.046  0.00  0.00    +0.185 C 
ATOM     16  C   UNL     1      -5.037  -1.796  24.011  0.00  0.00    +0.207 C 
ENDROOT
BRANCH  13   8
ATOM      4  O   UNL     1      -0.909  -0.145  23.317  0.00  0.00    -0.270 OA
ATOM      8  N   UNL     1      -0.425  -2.064  24.527  0.00  0.00    -0.304 N 
ATOM     17  C   UNL     1      -0.096  -0.914  23.824  0.00  0.00    +0.244 C 
ATOM     35  H   UNL     1       0.304  -2.705  24.824  0.00  0.00    +0.149 HD
BRANCH  17  19
ATOM     19  C   UNL     1       1.356  -0.636  23.674  0.00  0.00    +0.037 A 
ATOM     20  C   UNL     1       1.784   0.609  23.212  0.00  0.00    +0.015 A 
ATOM     21  C   UNL     1       2.291  -1.619  23.996  0.00  0.00    +0.015 A 
ATOM     23  C   UNL     1       3.147   0.869  23.072  0.00  0.00    +0.024 A 
ATOM     24  C   UNL     1       3.654  -1.359  23.856  0.00  0.00    +0.024 A 
ATOM     25  C   UNL     1       4.082  -0.115  23.393  0.00  0.00    +0.029 A 
BRANCH  25  10
ATOM     10  N   UNL     1       5.460   0.149  23.250  0.00  0.00    -0.336 N 
ATOM     31  C   UNL     1       6.250  -0.583  22.279  0.00  0.00    +0.129 C 
ATOM     32  C   UNL     1       6.108   1.145  24.080  0.00  0.00    +0.129 C 
ENDBRANCH  25  10
ENDBRANCH  17  19
ENDBRANCH  13   8
BRANCH  14   3
ATOM      3  O   UNL     1      -5.265   0.490  24.786  0.00  0.00    -0.442 OA
BRANCH   3  18
ATOM      5  O   UNL     1      -5.167   2.482  25.906  0.00  0.00    -0.226 OA
ATOM      9  N   UNL     1      -3.278   1.552  24.881  0.00  0.00    -0.251 N 
ATOM     18  C   UNL     1      -4.606   1.606  25.257  0.00  0.00    +0.405 C 
ATOM     36  H   UNL     1      -2.997   0.738  24.340  0.00  0.00    +0.158 HD
BRANCH   9  22
ATOM     22  C   UNL     1      -2.257   2.490  25.156  0.00  0.00    +0.043 A 
ATOM     26  C   UNL     1      -2.420   3.827  24.790  0.00  0.00    +0.069 A 
ATOM     27  C   UNL     1      -1.087   2.080  25.795  0.00  0.00    +0.069 A 
ATOM     28  C   UNL     1      -0.080   3.005  26.067  0.00  0.00    +0.125 A 
ATOM     29  C   UNL     1      -1.413   4.752  25.063  0.00  0.00    +0.125 A 
ATOM     30  C   UNL     1      -0.243   4.341  25.701  0.00  0.00    +0.091 A 
BRANCH  28   6
ATOM      6  O   UNL     1       1.063   2.606  26.692  0.00  0.00    -0.495 OA
ATOM     33  C   UNL     1       1.044   2.567  28.118  0.00  0.00    +0.277 C 
ENDBRANCH  28   6
BRANCH  29   7
ATOM      7  O   UNL     1      -1.572   6.056  24.707  0.00  0.00    -0.495 OA
ATOM     34  C   UNL     1      -2.670   6.365  23.849  0.00  0.00    +0.277 C 
ENDBRANCH  29   7
ENDBRANCH   9  22
ENDBRANCH   3  18
ENDBRANCH  14   3
TORSDOF 8
ENDMDL
MODEL 4
REMARK VINA RESULT:       6.5      1.976      5.064
REMARK  Name = 11867377
REMARK  12 active torsions:
REMARK  status: ('A' for Active; 'I' for Inactive)
REMARK    1  A    between atoms: O_3  and  C_14
REMARK    2  A    between atoms: O_3  and  C_18
REMARK    3  A    between atoms: O_6  and  C_28
REMARK    4  A    between atoms: O_6  and  C_33
REMARK    5  A    between atoms: O_7  and  C_29
REMARK    6  A    between atoms: O_7  and  C_34
REMARK    7  A    between atoms: N_8  and  C_13
REMARK    8  A    between atoms: N_9  and  C_22
REMARK    9  A    between atoms: N_10  and  C_25
REMARK   10  A    between atoms: N_10  and  C_31
REMARK   11  A    between atoms: N_10  and  C_32
REMARK   12  A    between atoms: C_17  and  C_19
REMARK                            x       y       z     vdW  Elec       q    Type
REMARK                         _______ _______ _______ _____ _____    ______ ____
ROOT
ATOM      1  O   UNL     1      -2.943  -0.696  25.789  0.00  0.00    -0.368 OA
ATOM      2  O   UNL     1      -3.950  -2.603  23.610  0.00  0.00    -0.368 OA
ATOM     11  C   UNL     1      -2.732  -1.838  23.722  0.00  0.00    +0.173 C 
ATOM     12  C   UNL     1      -3.101  -0.519  24.372  0.00  0.00    +0.192 C 
ATOM     13  C   UNL     1      -1.802  -2.486  24.720  0.00  0.00    +0.130 C 
ATOM     14  C   UNL     1      -4.552  -0.360  23.986  0.00  0.00    +0.235 C 
ATOM     15  C   UNL     1      -2.342  -1.975  26.044  0.00  0.00    +0.185 C 
ATOM     16  C   UNL     1      -5.052  -1.785  24.029  0.00  0.00    +0.207 C 
ENDROOT
BRANCH  13   8
ATOM      4  O   UNL     1      -0.927  -0.138  23.317  0.00  0.00    -0.270 OA
ATOM      8  N   UNL     1      -0.437  -2.065  24.512  0.00  0.00    -0.304 N 
ATOM     17  C   UNL     1      -0.112  -0.908  23.817  0.00  0.00    +0.244 C 
ATOM     35  H   UNL     1       0.294  -2.706  24.803  0.00  0.00    +0.149 HD
BRANCH  17  19
ATOM     19  C   UNL     1       1.339  -0.626  23.667  0.00  0.00    +0.037 A 
ATOM     20  C   UNL     1       2.278  -1.601  24.005  0.00  0.00    +0.015 A 
ATOM     21  C   UNL     1       1.764   0.613  23.188  0.00  0.00    +0.015 A 
ATOM     23  C   UNL     1       3.640  -1.337  23.863  0.00  0.00    +0.024 A 
ATOM     24  C   UNL     1       3.125   0.878  23.047  0.00  0.00    +0.024 A 
ATOM     25  C   UNL     1       4.064  -0.097  23.385  0.00  0.00    +0.029 A 
BRANCH  25  10
ATOM     10  N   UNL     1       5.441   0.170  23.244  0.00  0.00    -0.336 N 
ATOM     31  C   UNL     1       6.240  -0.574  22.291  0.00  0.00    +0.129 C 
ATOM     32  C   UNL     1       6.080   1.184  24.061  0.00  0.00    +0.129 C 
ENDBRANCH  25  10
ENDBRANCH  17  19
ENDBRANCH  13   8
BRANCH  14   3
ATOM      3  O   UNL     1      -5.275   0.483  24.855  0.00  0.00    -0.442 OA
BRANCH   3  18
ATOM      5  O   UNL     1      -5.217   2.515  25.903  0.00  0.00    -0.226 OA
ATOM      9  N   UNL     1      -3.308   1.582  24.921  0.00  0.00    -0.251 N 
ATOM     18  C   UNL     1      -4.638   1.627  25.289  0.00  0.00    +0.405 C 
ATOM     36  H   UNL     1      -3.009   0.754  24.411  0.00  0.00    +0.158 HD
BRANCH   9  22
ATOM     22  C   UNL     1      -2.304   2.547  25.167  0.00  0.00    +0.043 A 
ATOM     26  C   UNL     1      -1.112   2.172  25.786  0.00  0.00    +0.069 A 
ATOM     27  C   UNL     1      -2.506   3.875  24.788  0.00  0.00    +0.069 A 
ATOM     28  C   UNL     1      -1.516   4.827  25.029  0.00  0.00    +0.125 A 
ATOM     29  C   UNL     1      -0.122   3.125  26.027  0.00  0.00    +0.125 A 
ATOM     30  C   UNL     1      -0.324   4.452  25.649  0.00  0.00    +0.091 A 
BRANCH  28   6
ATOM      6  O   UNL     1      -1.712   6.123  24.659  0.00  0.00    -0.495 OA
ATOM     33  C   UNL     1      -2.760   6.381  23.725  0.00  0.00    +0.277 C 
ENDBRANCH  28   6
BRANCH  29   7
ATOM      7  O   UNL     1       1.042   2.759  26.630  0.00  0.00    -0.495 OA
ATOM     34  C   UNL     1       0.985   2.459  28.024  0.00  0.00    +0.277 C 
ENDBRANCH  29   7
ENDBRANCH   9  22
ENDBRANCH   3  18
ENDBRANCH  14   3
TORSDOF 8
ENDMDL
