MODEL 1
REMARK VINA RESULT:      -5.0      0.000      0.000
REMARK  Name = 45784183
REMARK  4 active torsions:
REMARK  status: ('A' for Active; 'I' for Inactive)
REMARK    1  A    between atoms: N_3  and  C_9
REMARK    2  A    between atoms: C_5  and  C_10
REMARK    3  A    between atoms: C_9  and  C_11
REMARK    4  A    between atoms: C_18  and  C_23
REMARK                            x       y       z     vdW  Elec       q    Type
REMARK                         _______ _______ _______ _____ _____    ______ ____
ROOT
ATOM      3  N   UNL     1      -5.277 -10.021  10.463  0.00  0.00    -0.297 NA
ATOM      5  C   UNL     1      -6.716 -10.080  12.313  0.00  0.00    +0.090 C 
ATOM      6  C   UNL     1      -6.704  -8.663  11.716  0.00  0.00    +0.029 C 
ATOM      7  C   UNL     1      -5.488 -10.770  11.704  0.00  0.00    +0.097 C 
ATOM      8  C   UNL     1      -5.464  -8.618  10.832  0.00  0.00    +0.085 C 
ENDROOT
BRANCH   5  10
ATOM      2  O   UNL     1      -7.947  -9.946  14.413  0.00  0.00    -0.439 OA
ATOM      4  N   UNL     1      -5.727 -10.336  14.646  0.00  0.00    -0.213 NA
ATOM     10  C   UNL     1      -6.733 -10.133  13.824  0.00  0.00    +0.201 A 
ATOM     12  C   UNL     1      -6.316 -10.280  15.886  0.00  0.00    +0.110 A 
ATOM     13  C   UNL     1      -7.676 -10.041  15.747  0.00  0.00    +0.155 A 
ATOM     16  C   UNL     1      -5.780 -10.420  17.175  0.00  0.00    +0.035 A 
ATOM     17  C   UNL     1      -8.571  -9.926  16.802  0.00  0.00    +0.049 A 
ATOM     18  C   UNL     1      -6.654 -10.309  18.267  0.00  0.00    -0.048 A 
ATOM     19  C   UNL     1      -8.021 -10.068  18.082  0.00  0.00    +0.007 A 
ATOM     23  C   UNL     1      -6.114 -10.453  19.651  0.00  0.00    +0.044 C 
ENDBRANCH   5  10
BRANCH   3   9
ATOM      9  C   UNL     1      -3.967 -10.271   9.880  0.00  0.00    +0.119 C 
BRANCH   9  11
ATOM      1 CL   UNL     1      -1.794 -10.781  14.589  0.00  0.00    -0.084 Cl
ATOM     11  C   UNL     1      -2.854  -9.917  10.830  0.00  0.00    -0.032 A 
ATOM     14  C   UNL     1      -2.841 -10.451  12.119  0.00  0.00    +0.025 A 
ATOM     15  C   UNL     1      -1.836  -9.056  10.422  0.00  0.00    +0.005 A 
ATOM     20  C   UNL     1      -1.810 -10.124  12.999  0.00  0.00    +0.041 A 
ATOM     21  C   UNL     1      -0.805  -8.728  11.301  0.00  0.00    +0.002 A 
ATOM     22  C   UNL     1      -0.791  -9.262  12.590  0.00  0.00    +0.020 A 
ENDBRANCH   9  11
ENDBRANCH   3   9
TORSDOF 3
ENDMDL
MODEL 2
REMARK VINA RESULT:      -4.9     24.740     25.497
REMARK  Name = 45784183
REMARK  4 active torsions:
REMARK  status: ('A' for Active; 'I' for Inactive)
REMARK    1  A    between atoms: N_3  and  C_9
REMARK    2  A    between atoms: C_5  and  C_10
REMARK    3  A    between atoms: C_9  and  C_11
REMARK    4  A    between atoms: C_18  and  C_23
REMARK                            x       y       z     vdW  Elec       q    Type
REMARK                         _______ _______ _______ _____ _____    ______ ____
ROOT
ATOM      3  N   UNL     1      17.403  -6.119  24.866  0.00  0.00    -0.297 NA
ATOM      5  C   UNL     1      17.135  -6.344  27.184  0.00  0.00    +0.090 C 
ATOM      6  C   UNL     1      17.234  -7.737  26.540  0.00  0.00    +0.029 C 
ATOM      7  C   UNL     1      16.853  -5.393  26.013  0.00  0.00    +0.097 C 
ATOM      8  C   UNL     1      16.977  -7.505  25.056  0.00  0.00    +0.085 C 
ENDROOT
BRANCH   5  10
ATOM      2  O   UNL     1      16.305  -5.204  29.172  0.00  0.00    -0.439 OA
ATOM      4  N   UNL     1      15.070  -6.991  28.526  0.00  0.00    -0.213 NA
ATOM     10  C   UNL     1      16.116  -6.230  28.295  0.00  0.00    +0.201 A 
ATOM     12  C   UNL     1      14.513  -6.431  29.650  0.00  0.00    +0.110 A 
ATOM     13  C   UNL     1      15.266  -5.336  30.048  0.00  0.00    +0.155 A 
ATOM     16  C   UNL     1      13.377  -6.779  30.395  0.00  0.00    +0.035 A 
ATOM     17  C   UNL     1      14.982  -4.538  31.149  0.00  0.00    +0.049 A 
ATOM     18  C   UNL     1      13.058  -5.997  31.515  0.00  0.00    -0.048 A 
ATOM     19  C   UNL     1      13.846  -4.900  31.882  0.00  0.00    +0.007 A 
ATOM     23  C   UNL     1      11.855  -6.343  32.329  0.00  0.00    +0.044 C 
ENDBRANCH   5  10
BRANCH   3   9
ATOM      9  C   UNL     1      16.953  -5.569  23.595  0.00  0.00    +0.119 C 
BRANCH   9  11
ATOM      1 CL   UNL     1      15.934  -1.127  26.122  0.00  0.00    -0.084 Cl
ATOM     11  C   UNL     1      16.952  -4.064  23.604  0.00  0.00    -0.032 A 
ATOM     14  C   UNL     1      16.497  -3.374  24.728  0.00  0.00    +0.025 A 
ATOM     15  C   UNL     1      17.405  -3.359  22.489  0.00  0.00    +0.005 A 
ATOM     20  C   UNL     1      16.497  -1.979  24.737  0.00  0.00    +0.041 A 
ATOM     21  C   UNL     1      17.405  -1.965  22.497  0.00  0.00    +0.002 A 
ATOM     22  C   UNL     1      16.952  -1.274  23.621  0.00  0.00    +0.020 A 
ENDBRANCH   9  11
ENDBRANCH   3   9
TORSDOF 3
ENDMDL
MODEL 3
REMARK VINA RESULT:      -4.8     24.373     25.124
REMARK  Name = 45784183
REMARK  4 active torsions:
REMARK  status: ('A' for Active; 'I' for Inactive)
REMARK    1  A    between atoms: N_3  and  C_9
REMARK    2  A    between atoms: C_5  and  C_10
REMARK    3  A    between atoms: C_9  and  C_11
REMARK    4  A    between atoms: C_18  and  C_23
REMARK                            x       y       z     vdW  Elec       q    Type
REMARK                         _______ _______ _______ _____ _____    ______ ____
ROOT
ATOM      3  N   UNL     1      17.391  -6.537  25.325  0.00  0.00    -0.297 NA
ATOM      5  C   UNL     1      16.900  -7.311  27.483  0.00  0.00    +0.090 C 
ATOM      6  C   UNL     1      17.343  -8.491  26.602  0.00  0.00    +0.029 C 
ATOM      7  C   UNL     1      16.580  -6.184  26.492  0.00  0.00    +0.097 C 
ATOM      8  C   UNL     1      17.221  -7.982  25.171  0.00  0.00    +0.085 C 
ENDROOT
BRANCH   5  10
ATOM      2  O   UNL     1      14.943  -6.563  28.729  0.00  0.00    -0.439 OA
ATOM      4  N   UNL     1      15.439  -8.760  28.982  0.00  0.00    -0.213 NA
ATOM     10  C   UNL     1      15.755  -7.613  28.422  0.00  0.00    +0.201 A 
ATOM     12  C   UNL     1      14.325  -8.452  29.726  0.00  0.00    +0.110 A 
ATOM     13  C   UNL     1      14.018  -7.108  29.573  0.00  0.00    +0.155 A 
ATOM     16  C   UNL     1      13.515  -9.242  30.554  0.00  0.00    +0.035 A 
ATOM     17  C   UNL     1      12.951  -6.465  30.186  0.00  0.00    +0.049 A 
ATOM     18  C   UNL     1      12.427  -8.628  31.191  0.00  0.00    -0.048 A 
ATOM     19  C   UNL     1      12.152  -7.267  31.009  0.00  0.00    +0.007 A 
ATOM     23  C   UNL     1      11.545  -9.443  32.078  0.00  0.00    +0.044 C 
ENDBRANCH   5  10
BRANCH   3   9
ATOM      9  C   UNL     1      16.996  -5.802  24.132  0.00  0.00    +0.119 C 
BRANCH   9  11
ATOM      1 CL   UNL     1      15.828  -1.029  22.397  0.00  0.00    -0.084 Cl
ATOM     11  C   UNL     1      16.955  -4.318  24.376  0.00  0.00    -0.032 A 
ATOM     14  C   UNL     1      16.467  -3.461  23.389  0.00  0.00    +0.025 A 
ATOM     15  C   UNL     1      17.405  -3.797  25.590  0.00  0.00    +0.005 A 
ATOM     20  C   UNL     1      16.429  -2.086  23.615  0.00  0.00    +0.041 A 
ATOM     21  C   UNL     1      17.367  -2.422  25.817  0.00  0.00    +0.002 A 
ATOM     22  C   UNL     1      16.879  -1.566  24.830  0.00  0.00    +0.020 A 
ENDBRANCH   9  11
ENDBRANCH   3   9
TORSDOF 3
ENDMDL
MODEL 4
REMARK VINA RESULT:      -4.3      1.591      2.307
REMARK  Name = 45784183
REMARK  4 active torsions:
REMARK  status: ('A' for Active; 'I' for Inactive)
REMARK    1  A    between atoms: N_3  and  C_9
REMARK    2  A    between atoms: C_5  and  C_10
REMARK    3  A    between atoms: C_9  and  C_11
REMARK    4  A    between atoms: C_18  and  C_23
REMARK                            x       y       z     vdW  Elec       q    Type
REMARK                         _______ _______ _______ _____ _____    ______ ____
ROOT
ATOM      3  N   UNL     1      -5.080 -10.035   9.748  0.00  0.00    -0.297 NA
ATOM      5  C   UNL     1      -6.979  -9.900  11.116  0.00  0.00    +0.090 C 
ATOM      6  C   UNL     1      -6.712  -8.530  10.471  0.00  0.00    +0.029 C 
ATOM      7  C   UNL     1      -5.676 -10.685  10.918  0.00  0.00    +0.097 C 
ATOM      8  C   UNL     1      -5.274  -8.602   9.973  0.00  0.00    +0.085 C 
ENDROOT
BRANCH   5  10
ATOM      2  O   UNL     1      -6.439 -10.007  13.491  0.00  0.00    -0.439 OA
ATOM      4  N   UNL     1      -8.633  -9.665  13.038  0.00  0.00    -0.213 NA
ATOM     10  C   UNL     1      -7.422  -9.847  12.561  0.00  0.00    +0.201 A 
ATOM     12  C   UNL     1      -8.446  -9.708  14.399  0.00  0.00    +0.110 A 
ATOM     13  C   UNL     1      -7.104  -9.917  14.680  0.00  0.00    +0.155 A 
ATOM     16  C   UNL     1      -9.350  -9.579  15.464  0.00  0.00    +0.035 A 
ATOM     17  C   UNL     1      -6.568 -10.013  15.957  0.00  0.00    +0.049 A 
ATOM     18  C   UNL     1      -8.846  -9.670  16.770  0.00  0.00    -0.048 A 
ATOM     19  C   UNL     1      -7.482  -9.882  17.009  0.00  0.00    +0.007 A 
ATOM     23  C   UNL     1      -9.782  -9.537  17.925  0.00  0.00    +0.044 C 
ENDBRANCH   5  10
BRANCH   3   9
ATOM      9  C   UNL     1      -3.677 -10.384   9.574  0.00  0.00    +0.119 C 
BRANCH   9  11
ATOM      1 CL   UNL     1       0.305  -7.973  11.917  0.00  0.00    -0.084 Cl
ATOM     11  C   UNL     1      -2.879 -10.135  10.826  0.00  0.00    -0.032 A 
ATOM     14  C   UNL     1      -1.785  -9.270  10.795  0.00  0.00    +0.025 A 
ATOM     15  C   UNL     1      -3.233 -10.769  12.017  0.00  0.00    +0.005 A 
ATOM     20  C   UNL     1      -1.045  -9.039  11.955  0.00  0.00    +0.041 A 
ATOM     21  C   UNL     1      -2.494 -10.539  13.177  0.00  0.00    +0.002 A 
ATOM     22  C   UNL     1      -1.400  -9.674  13.146  0.00  0.00    +0.020 A 
ENDBRANCH   9  11
ENDBRANCH   3   9
TORSDOF 3
ENDMDL
MODEL 5
REMARK VINA RESULT:      -2.2     14.449     16.192
REMARK  Name = 45784183
REMARK  4 active torsions:
REMARK  status: ('A' for Active; 'I' for Inactive)
REMARK    1  A    between atoms: N_3  and  C_9
REMARK    2  A    between atoms: C_5  and  C_10
REMARK    3  A    between atoms: C_9  and  C_11
REMARK    4  A    between atoms: C_18  and  C_23
REMARK                            x       y       z     vdW  Elec       q    Type
REMARK                         _______ _______ _______ _____ _____    ______ ____
ROOT
ATOM      3  N   UNL     1       0.557  -0.767  23.696  0.00  0.00    -0.297 NA
ATOM      5  C   UNL     1      -1.098   0.051  25.141  0.00  0.00    +0.090 C 
ATOM      6  C   UNL     1      -1.462  -1.376  24.698  0.00  0.00    +0.029 C 
ATOM      7  C   UNL     1      -0.016   0.502  24.152  0.00  0.00    +0.097 C 
ATOM      8  C   UNL     1      -0.595  -1.642  23.474  0.00  0.00    +0.085 C 
ENDROOT
BRANCH   5  10
ATOM      2  O   UNL     1      -3.503   0.442  25.214  0.00  0.00    -0.439 OA
ATOM      4  N   UNL     1      -2.240   2.323  25.284  0.00  0.00    -0.213 NA
ATOM     10  C   UNL     1      -2.265   1.010  25.216  0.00  0.00    +0.201 A 
ATOM     12  C   UNL     1      -3.571   2.662  25.330  0.00  0.00    +0.110 A 
ATOM     13  C   UNL     1      -4.347   1.513  25.288  0.00  0.00    +0.155 A 
ATOM     16  C   UNL     1      -4.208   3.909  25.409  0.00  0.00    +0.035 A 
ATOM     17  C   UNL     1      -5.735   1.495  25.318  0.00  0.00    +0.049 A 
ATOM     18  C   UNL     1      -5.610   3.931  25.441  0.00  0.00    -0.048 A 
ATOM     19  C   UNL     1      -6.356   2.747  25.397  0.00  0.00    +0.007 A 
ATOM     23  C   UNL     1      -6.318   5.242  25.525  0.00  0.00    +0.044 C 
ENDBRANCH   5  10
BRANCH   3   9
ATOM      9  C   UNL     1       1.372  -0.610  22.500  0.00  0.00    +0.119 C 
BRANCH   9  11
ATOM      1 CL   UNL     1       6.016  -1.772  24.559  0.00  0.00    -0.084 Cl
ATOM     11  C   UNL     1       2.777  -0.183  22.832  0.00  0.00    -0.032 A 
ATOM     14  C   UNL     1       3.644  -1.071  23.467  0.00  0.00    +0.025 A 
ATOM     15  C   UNL     1       3.211   1.101  22.504  0.00  0.00    +0.005 A 
ATOM     20  C   UNL     1       4.946  -0.677  23.774  0.00  0.00    +0.041 A 
ATOM     21  C   UNL     1       4.513   1.497  22.811  0.00  0.00    +0.002 A 
ATOM     22  C   UNL     1       5.381   0.608  23.445  0.00  0.00    +0.020 A 
ENDBRANCH   9  11
ENDBRANCH   3   9
TORSDOF 3
ENDMDL
MODEL 6
REMARK VINA RESULT:      -1.8     13.674     16.373
REMARK  Name = 45784183
REMARK  4 active torsions:
REMARK  status: ('A' for Active; 'I' for Inactive)
REMARK    1  A    between atoms: N_3  and  C_9
REMARK    2  A    between atoms: C_5  and  C_10
REMARK    3  A    between atoms: C_9  and  C_11
REMARK    4  A    between atoms: C_18  and  C_23
REMARK                            x       y       z     vdW  Elec       q    Type
REMARK                         _______ _______ _______ _____ _____    ______ ____
ROOT
ATOM      3  N   UNL     1      -3.921   2.120  24.961  0.00  0.00    -0.297 NA
ATOM      5  C   UNL     1      -1.682   2.650  24.513  0.00  0.00    +0.090 C 
ATOM      6  C   UNL     1      -2.574   3.188  23.382  0.00  0.00    +0.029 C 
ATOM      7  C   UNL     1      -2.568   1.649  25.265  0.00  0.00    +0.097 C 
ATOM      8  C   UNL     1      -3.895   2.447  23.535  0.00  0.00    +0.085 C 
ENDROOT
BRANCH   5  10
ATOM      2  O   UNL     1      -0.461   0.909  23.322  0.00  0.00    -0.439 OA
ATOM      4  N   UNL     1       0.849   2.491  24.280  0.00  0.00    -0.213 NA
ATOM     10  C   UNL     1      -0.370   2.051  24.059  0.00  0.00    +0.201 A 
ATOM     12  C   UNL     1       1.639   1.566  23.641  0.00  0.00    +0.110 A 
ATOM     13  C   UNL     1       0.840   0.596  23.053  0.00  0.00    +0.155 A 
ATOM     16  C   UNL     1       3.032   1.470  23.508  0.00  0.00    +0.035 A 
ATOM     17  C   UNL     1       1.316  -0.488  22.327  0.00  0.00    +0.049 A 
ATOM     18  C   UNL     1       3.551   0.389  22.781  0.00  0.00    -0.048 A 
ATOM     19  C   UNL     1       2.709  -0.569  22.203  0.00  0.00    +0.007 A 
ATOM     23  C   UNL     1       5.029   0.258  22.620  0.00  0.00    +0.044 C 
ENDBRANCH   5  10
BRANCH   3   9
ATOM      9  C   UNL     1      -4.939   1.131  25.285  0.00  0.00    +0.119 C 
BRANCH   9  11
ATOM      1 CL   UNL     1      -4.555  -3.298  22.565  0.00  0.00    -0.084 Cl
ATOM     11  C   UNL     1      -4.409  -0.273  25.180  0.00  0.00    -0.032 A 
ATOM     14  C   UNL     1      -4.694  -1.045  24.053  0.00  0.00    +0.025 A 
ATOM     15  C   UNL     1      -3.632  -0.805  26.209  0.00  0.00    +0.005 A 
ATOM     20  C   UNL     1      -4.202  -2.346  23.955  0.00  0.00    +0.041 A 
ATOM     21  C   UNL     1      -3.140  -2.106  26.113  0.00  0.00    +0.002 A 
ATOM     22  C   UNL     1      -3.424  -2.877  24.985  0.00  0.00    +0.020 A 
ENDBRANCH   9  11
ENDBRANCH   3   9
TORSDOF 3
ENDMDL
MODEL 7
REMARK VINA RESULT:      -1.8     14.581     16.789
REMARK  Name = 45784183
REMARK  4 active torsions:
REMARK  status: ('A' for Active; 'I' for Inactive)
REMARK    1  A    between atoms: N_3  and  C_9
REMARK    2  A    between atoms: C_5  and  C_10
REMARK    3  A    between atoms: C_9  and  C_11
REMARK    4  A    between atoms: C_18  and  C_23
REMARK                            x       y       z     vdW  Elec       q    Type
REMARK                         _______ _______ _______ _____ _____    ______ ____
ROOT
ATOM      3  N   UNL     1      -4.483  -0.643  24.705  0.00  0.00    -0.297 NA
ATOM      5  C   UNL     1      -2.284  -1.348  24.300  0.00  0.00    +0.090 C 
ATOM      6  C   UNL     1      -2.594  -1.468  25.801  0.00  0.00    +0.029 C 
ATOM      7  C   UNL     1      -3.395  -0.448  23.743  0.00  0.00    +0.097 C 
ATOM      8  C   UNL     1      -3.836  -0.613  26.017  0.00  0.00    +0.085 C 
ENDROOT
BRANCH   5  10
ATOM      2  O   UNL     1      -0.742   0.513  23.981  0.00  0.00    -0.439 OA
ATOM      4  N   UNL     1       0.181  -1.537  23.691  0.00  0.00    -0.213 NA
ATOM     10  C   UNL     1      -0.897  -0.841  23.976  0.00  0.00    +0.201 A 
ATOM     12  C   UNL     1       1.137  -0.570  23.486  0.00  0.00    +0.110 A 
ATOM     13  C   UNL     1       0.575   0.686  23.664  0.00  0.00    +0.155 A 
ATOM     16  C   UNL     1       2.495  -0.664  23.151  0.00  0.00    +0.035 A 
ATOM     17  C   UNL     1       1.262   1.886  23.533  0.00  0.00    +0.049 A 
ATOM     18  C   UNL     1       3.223   0.526  23.010  0.00  0.00    -0.048 A 
ATOM     19  C   UNL     1       2.617   1.775  23.198  0.00  0.00    +0.007 A 
ATOM     23  C   UNL     1       4.671   0.460  22.654  0.00  0.00    +0.044 C 
ENDBRANCH   5  10
BRANCH   3   9
ATOM      9  C   UNL     1      -5.524   0.367  24.577  0.00  0.00    +0.119 C 
BRANCH   9  11
ATOM      1 CL   UNL     1      -1.547   3.727  24.814  0.00  0.00    -0.084 Cl
ATOM     11  C   UNL     1      -5.018   1.741  24.927  0.00  0.00    -0.032 A 
ATOM     14  C   UNL     1      -3.674   2.060  24.731  0.00  0.00    +0.025 A 
ATOM     15  C   UNL     1      -5.892   2.695  25.447  0.00  0.00    +0.005 A 
ATOM     20  C   UNL     1      -3.205   3.333  25.054  0.00  0.00    +0.041 A 
ATOM     21  C   UNL     1      -5.424   3.968  25.771  0.00  0.00    +0.002 A 
ATOM     22  C   UNL     1      -4.081   4.288  25.574  0.00  0.00    +0.020 A 
ENDBRANCH   9  11
ENDBRANCH   3   9
TORSDOF 3
ENDMDL
