MODEL 1
REMARK VINA RESULT:       3.6      0.000      0.000
REMARK  Name = 45783795
REMARK  7 active torsions:
REMARK  status: ('A' for Active; 'I' for Inactive)
REMARK    1  A    between atoms: N_3  and  C_9
REMARK    2  A    between atoms: N_8  and  C_26
REMARK    3  A    between atoms: N_8  and  C_27
REMARK    4  A    between atoms: N_8  and  C_28
REMARK    5  A    between atoms: C_10  and  C_18
REMARK    6  A    between atoms: C_19  and  C_20
REMARK    7  A    between atoms: C_21  and  C_22
REMARK                            x       y       z     vdW  Elec       q    Type
REMARK                         _______ _______ _______ _____ _____    ______ ____
ROOT
ATOM      3  N   UNL     1      -4.456   1.764  25.390  0.00  0.00    -0.288 NA
ATOM     10  C   UNL     1      -3.986   2.342  24.114  0.00  0.00    +0.146 C 
ATOM     11  C   UNL     1      -5.747   2.390  25.677  0.00  0.00    +0.085 C 
ATOM     12  C   UNL     1      -4.623   3.742  24.061  0.00  0.00    +0.030 C 
ATOM     15  C   UNL     1      -5.481   3.836  25.315  0.00  0.00    +0.017 C 
ENDROOT
BRANCH   3   9
ATOM      2  O   UNL     1      -1.540  -3.649  25.343  0.00  0.00    -0.276 OA
ATOM      4  N   UNL     1      -3.346  -2.277  24.841  0.00  0.00    -0.302 N 
ATOM      9  C   UNL     1      -4.545   0.306  25.363  0.00  0.00    +0.060 C 
ATOM     13  C   UNL     1      -3.503  -0.302  26.309  0.00  0.00    +0.038 C 
ATOM     14  C   UNL     1      -4.336  -0.208  23.933  0.00  0.00    +0.038 C 
ATOM     16  C   UNL     1      -3.514  -1.828  26.225  0.00  0.00    +0.109 C 
ATOM     17  C   UNL     1      -4.330  -1.736  23.895  0.00  0.00    +0.109 C 
ATOM     19  C   UNL     1      -2.333  -3.181  24.523  0.00  0.00    +0.212 C 
ATOM     20  C   UNL     1      -2.224  -3.592  23.076  0.00  0.00    +0.109 C 
ENDBRANCH   3   9
BRANCH  10  18
ATOM      1  O   UNL     1      -1.894   3.604  24.142  0.00  0.00    -0.336 OA
ATOM      5  N   UNL     1      -1.629   1.403  23.825  0.00  0.00    -0.190 NA
ATOM      6  N   UNL     1      -0.515   3.392  24.018  0.00  0.00    -0.056 NA
ATOM     18  C   UNL     1      -2.476   2.383  24.016  0.00  0.00    +0.245 A 
ATOM     21  C   UNL     1      -0.439   2.070  23.833  0.00  0.00    +0.204 A 
BRANCH  21  22
ATOM      7  N   UNL     1       3.207   1.507  23.365  0.00  0.00    -0.240 NA
ATOM     22  C   UNL     1       0.810   1.386  23.655  0.00  0.00    +0.041 A 
ATOM     23  C   UNL     1       0.865  -0.001  23.598  0.00  0.00    +0.016 A 
ATOM     24  C   UNL     1       1.998   2.088  23.535  0.00  0.00    +0.124 A 
ATOM     25  C   UNL     1       2.090  -0.637  23.424  0.00  0.00    +0.044 A 
ATOM     26  C   UNL     1       3.221   0.155  23.314  0.00  0.00    +0.121 A 
BRANCH  26   8
ATOM      8  N   UNL     1       4.461  -0.506  23.138  0.00  0.00    -0.321 N 
ATOM     27  C   UNL     1       4.678  -1.814  23.717  0.00  0.00    +0.130 C 
ATOM     28  C   UNL     1       5.521   0.125  22.383  0.00  0.00    +0.130 C 
ENDBRANCH  26   8
ENDBRANCH  21  22
ENDBRANCH  10  18
TORSDOF 4
ENDMDL
MODEL 2
REMARK VINA RESULT:       3.6      1.804      4.545
REMARK  Name = 45783795
REMARK  7 active torsions:
REMARK  status: ('A' for Active; 'I' for Inactive)
REMARK    1  A    between atoms: N_3  and  C_9
REMARK    2  A    between atoms: N_8  and  C_26
REMARK    3  A    between atoms: N_8  and  C_27
REMARK    4  A    between atoms: N_8  and  C_28
REMARK    5  A    between atoms: C_10  and  C_18
REMARK    6  A    between atoms: C_19  and  C_20
REMARK    7  A    between atoms: C_21  and  C_22
REMARK                            x       y       z     vdW  Elec       q    Type
REMARK                         _______ _______ _______ _____ _____    ______ ____
ROOT
ATOM      3  N   UNL     1      -3.490  -0.862  23.727  0.00  0.00    -0.288 NA
ATOM     10  C   UNL     1      -2.330  -1.113  24.604  0.00  0.00    +0.146 C 
ATOM     11  C   UNL     1      -4.433  -1.955  23.964  0.00  0.00    +0.085 C 
ATOM     12  C   UNL     1      -2.297  -2.642  24.781  0.00  0.00    +0.030 C 
ATOM     15  C   UNL     1      -3.511  -3.156  24.020  0.00  0.00    +0.017 C 
ENDROOT
BRANCH   3   9
ATOM      2  O   UNL     1      -2.735   5.147  24.790  0.00  0.00    -0.276 OA
ATOM      4  N   UNL     1      -3.941   3.166  24.925  0.00  0.00    -0.302 N 
ATOM      9  C   UNL     1      -4.103   0.448  23.943  0.00  0.00    +0.060 C 
ATOM     13  C   UNL     1      -3.313   1.528  23.193  0.00  0.00    +0.038 C 
ATOM     14  C   UNL     1      -4.152   0.764  25.444  0.00  0.00    +0.038 C 
ATOM     16  C   UNL     1      -3.879   2.917  23.483  0.00  0.00    +0.109 C 
ATOM     17  C   UNL     1      -4.700   2.169  25.690  0.00  0.00    +0.109 C 
ATOM     19  C   UNL     1      -3.338   4.304  25.459  0.00  0.00    +0.212 C 
ATOM     20  C   UNL     1      -3.443   4.488  26.952  0.00  0.00    +0.109 C 
ENDBRANCH   3   9
BRANCH  10  18
ATOM      1  O   UNL     1      -1.157   0.466  23.152  0.00  0.00    -0.336 OA
ATOM      5  N   UNL     1       0.195  -0.933  24.263  0.00  0.00    -0.190 NA
ATOM      6  N   UNL     1       0.147   0.798  22.768  0.00  0.00    -0.056 NA
ATOM     18  C   UNL     1      -1.040  -0.563  24.033  0.00  0.00    +0.245 A 
ATOM     21  C   UNL     1       0.887  -0.069  23.464  0.00  0.00    +0.204 A 
BRANCH  21  22
ATOM      7  N   UNL     1       4.381  -1.313  23.734  0.00  0.00    -0.240 NA
ATOM     22  C   UNL     1       2.320  -0.100  23.387  0.00  0.00    +0.041 A 
ATOM     23  C   UNL     1       3.035   0.994  22.914  0.00  0.00    +0.016 A 
ATOM     24  C   UNL     1       3.033  -1.219  23.781  0.00  0.00    +0.124 A 
ATOM     25  C   UNL     1       4.423   0.936  22.850  0.00  0.00    +0.044 A 
ATOM     26  C   UNL     1       5.043  -0.229  23.268  0.00  0.00    +0.121 A 
BRANCH  26   8
ATOM      8  N   UNL     1       6.457  -0.274  23.197  0.00  0.00    -0.321 N 
ATOM     27  C   UNL     1       7.252   0.736  23.860  0.00  0.00    +0.130 C 
ATOM     28  C   UNL     1       7.115  -1.329  22.457  0.00  0.00    +0.130 C 
ENDBRANCH  26   8
ENDBRANCH  21  22
ENDBRANCH  10  18
TORSDOF 4
ENDMDL
MODEL 3
REMARK VINA RESULT:       3.8      1.726      4.460
REMARK  Name = 45783795
REMARK  7 active torsions:
REMARK  status: ('A' for Active; 'I' for Inactive)
REMARK    1  A    between atoms: N_3  and  C_9
REMARK    2  A    between atoms: N_8  and  C_26
REMARK    3  A    between atoms: N_8  and  C_27
REMARK    4  A    between atoms: N_8  and  C_28
REMARK    5  A    between atoms: C_10  and  C_18
REMARK    6  A    between atoms: C_19  and  C_20
REMARK    7  A    between atoms: C_21  and  C_22
REMARK                            x       y       z     vdW  Elec       q    Type
REMARK                         _______ _______ _______ _____ _____    ______ ____
ROOT
ATOM      3  N   UNL     1      -3.476  -0.843  23.690  0.00  0.00    -0.288 NA
ATOM     10  C   UNL     1      -2.331  -1.101  24.585  0.00  0.00    +0.146 C 
ATOM     11  C   UNL     1      -4.437  -1.921  23.926  0.00  0.00    +0.085 C 
ATOM     12  C   UNL     1      -2.322  -2.628  24.779  0.00  0.00    +0.030 C 
ATOM     15  C   UNL     1      -3.534  -3.134  24.007  0.00  0.00    +0.017 C 
ENDROOT
BRANCH   3   9
ATOM      2  O   UNL     1      -2.660   5.134  24.878  0.00  0.00    -0.276 OA
ATOM      4  N   UNL     1      -3.915   3.179  24.910  0.00  0.00    -0.302 N 
ATOM      9  C   UNL     1      -4.073   0.477  23.884  0.00  0.00    +0.060 C 
ATOM     13  C   UNL     1      -3.214   1.548  23.200  0.00  0.00    +0.038 C 
ATOM     14  C   UNL     1      -4.211   0.776  25.382  0.00  0.00    +0.038 C 
ATOM     16  C   UNL     1      -3.766   2.946  23.472  0.00  0.00    +0.109 C 
ATOM     17  C   UNL     1      -4.743   2.191  25.612  0.00  0.00    +0.109 C 
ATOM     19  C   UNL     1      -3.323   4.297  25.496  0.00  0.00    +0.212 C 
ATOM     20  C   UNL     1      -3.519   4.465  26.982  0.00  0.00    +0.109 C 
ENDBRANCH   3   9
BRANCH  10  18
ATOM      1  O   UNL     1      -1.117   0.453  23.141  0.00  0.00    -0.336 OA
ATOM      5  N   UNL     1       0.200  -0.967  24.267  0.00  0.00    -0.190 NA
ATOM      6  N   UNL     1       0.197   0.761  22.768  0.00  0.00    -0.056 NA
ATOM     18  C   UNL     1      -1.026  -0.575  24.025  0.00  0.00    +0.245 A 
ATOM     21  C   UNL     1       0.915  -0.118  23.473  0.00  0.00    +0.204 A 
BRANCH  21  22
ATOM      7  N   UNL     1       4.431   0.902  22.823  0.00  0.00    -0.240 NA
ATOM     22  C   UNL     1       2.347  -0.174  23.409  0.00  0.00    +0.041 A 
ATOM     23  C   UNL     1       3.040  -1.298  23.842  0.00  0.00    +0.016 A 
ATOM     24  C   UNL     1       3.082   0.890  22.912  0.00  0.00    +0.124 A 
ATOM     25  C   UNL     1       4.429  -1.324  23.766  0.00  0.00    +0.044 A 
ATOM     26  C   UNL     1       5.071  -0.209  23.254  0.00  0.00    +0.121 A 
BRANCH  26   8
ATOM      8  N   UNL     1       6.485  -0.249  23.184  0.00  0.00    -0.321 N 
ATOM     27  C   UNL     1       7.147  -1.268  22.400  0.00  0.00    +0.130 C 
ATOM     28  C   UNL     1       7.277   0.726  23.901  0.00  0.00    +0.130 C 
ENDBRANCH  26   8
ENDBRANCH  21  22
ENDBRANCH  10  18
TORSDOF 4
ENDMDL
MODEL 4
REMARK VINA RESULT:       4.7      1.844      2.706
REMARK  Name = 45783795
REMARK  7 active torsions:
REMARK  status: ('A' for Active; 'I' for Inactive)
REMARK    1  A    between atoms: N_3  and  C_9
REMARK    2  A    between atoms: N_8  and  C_26
REMARK    3  A    between atoms: N_8  and  C_27
REMARK    4  A    between atoms: N_8  and  C_28
REMARK    5  A    between atoms: C_10  and  C_18
REMARK    6  A    between atoms: C_19  and  C_20
REMARK    7  A    between atoms: C_21  and  C_22
REMARK                            x       y       z     vdW  Elec       q    Type
REMARK                         _______ _______ _______ _____ _____    ______ ____
ROOT
ATOM      3  N   UNL     1      -1.743   2.382  25.461  0.00  0.00    -0.288 NA
ATOM     10  C   UNL     1      -1.346   2.508  24.044  0.00  0.00    +0.146 C 
ATOM     11  C   UNL     1      -2.252   3.693  25.866  0.00  0.00    +0.085 C 
ATOM     12  C   UNL     1      -0.971   3.991  23.873  0.00  0.00    +0.030 C 
ATOM     15  C   UNL     1      -1.248   4.630  25.227  0.00  0.00    +0.017 C 
ENDROOT
BRANCH   3   9
ATOM      2  O   UNL     1      -3.304  -3.521  24.740  0.00  0.00    -0.276 OA
ATOM      4  N   UNL     1      -3.818  -1.273  25.020  0.00  0.00    -0.302 N 
ATOM      9  C   UNL     1      -2.717   1.318  25.694  0.00  0.00    +0.060 C 
ATOM     13  C   UNL     1      -1.996   0.017  26.065  0.00  0.00    +0.038 C 
ATOM     14  C   UNL     1      -3.582   1.114  24.443  0.00  0.00    +0.038 C 
ATOM     16  C   UNL     1      -2.990  -1.133  26.219  0.00  0.00    +0.109 C 
ATOM     17  C   UNL     1      -4.545  -0.059  24.628  0.00  0.00    +0.109 C 
ATOM     19  C   UNL     1      -3.897  -2.505  24.370  0.00  0.00    +0.212 C 
ATOM     20  C   UNL     1      -4.768  -2.566  23.141  0.00  0.00    +0.109 C 
ENDBRANCH   3   9
BRANCH  10  18
ATOM      1  O   UNL     1      -0.570   0.393  23.096  0.00  0.00    -0.336 OA
ATOM      5  N   UNL     1       1.075   1.728  23.822  0.00  0.00    -0.190 NA
ATOM      6  N   UNL     1       0.626  -0.292  22.846  0.00  0.00    -0.056 NA
ATOM     18  C   UNL     1      -0.216   1.572  23.671  0.00  0.00    +0.245 A 
ATOM     21  C   UNL     1       1.550   0.559  23.301  0.00  0.00    +0.204 A 
BRANCH  21  22
ATOM      7  N   UNL     1       5.193   1.008  22.707  0.00  0.00    -0.240 NA
ATOM     22  C   UNL     1       2.955   0.273  23.250  0.00  0.00    +0.041 A 
ATOM     23  C   UNL     1       3.452  -0.957  23.666  0.00  0.00    +0.016 A 
ATOM     24  C   UNL     1       3.859   1.213  22.782  0.00  0.00    +0.124 A 
ATOM     25  C   UNL     1       4.819  -1.206  23.604  0.00  0.00    +0.044 A 
ATOM     26  C   UNL     1       5.639  -0.200  23.121  0.00  0.00    +0.121 A 
BRANCH  26   8
ATOM      8  N   UNL     1       7.029  -0.467  23.064  0.00  0.00    -0.321 N 
ATOM     27  C   UNL     1       7.966   0.401  23.742  0.00  0.00    +0.130 C 
ATOM     28  C   UNL     1       7.521  -1.608  22.323  0.00  0.00    +0.130 C 
ENDBRANCH  26   8
ENDBRANCH  21  22
ENDBRANCH  10  18
TORSDOF 4
ENDMDL
MODEL 5
REMARK VINA RESULT:       5.4     13.720     15.951
REMARK  Name = 45783795
REMARK  7 active torsions:
REMARK  status: ('A' for Active; 'I' for Inactive)
REMARK    1  A    between atoms: N_3  and  C_9
REMARK    2  A    between atoms: N_8  and  C_26
REMARK    3  A    between atoms: N_8  and  C_27
REMARK    4  A    between atoms: N_8  and  C_28
REMARK    5  A    between atoms: C_10  and  C_18
REMARK    6  A    between atoms: C_19  and  C_20
REMARK    7  A    between atoms: C_21  and  C_22
REMARK                            x       y       z     vdW  Elec       q    Type
REMARK                         _______ _______ _______ _____ _____    ______ ____
ROOT
ATOM      3  N   UNL     1      -6.016  -9.149  10.954  0.00  0.00    -0.288 NA
ATOM     10  C   UNL     1      -4.992  -9.864  10.166  0.00  0.00    +0.146 C 
ATOM     11  C   UNL     1      -7.036  -8.708  10.003  0.00  0.00    +0.085 C 
ATOM     12  C   UNL     1      -5.061  -9.228   8.767  0.00  0.00    +0.030 C 
ATOM     15  C   UNL     1      -6.193  -8.212   8.847  0.00  0.00    +0.017 C 
ENDROOT
BRANCH   3   9
ATOM      2  O   UNL     1      -9.798  -9.502  15.790  0.00  0.00    -0.276 OA
ATOM      4  N   UNL     1      -7.916 -10.155  14.593  0.00  0.00    -0.302 N 
ATOM      9  C   UNL     1      -6.582  -9.959  12.031  0.00  0.00    +0.060 C 
ATOM     13  C   UNL     1      -8.078  -9.659  12.184  0.00  0.00    +0.038 C 
ATOM     14  C   UNL     1      -5.842  -9.678  13.346  0.00  0.00    +0.038 C 
ATOM     16  C   UNL     1      -8.671 -10.423  13.367  0.00  0.00    +0.109 C 
ATOM     17  C   UNL     1      -6.479 -10.441  14.507  0.00  0.00    +0.109 C 
ATOM     19  C   UNL     1      -8.581  -9.702  15.732  0.00  0.00    +0.212 C 
ATOM     20  C   UNL     1      -7.734  -9.446  16.953  0.00  0.00    +0.109 C 
ENDBRANCH   3   9
BRANCH  10  18
ATOM      1  O   UNL     1      -3.250 -10.781  11.616  0.00  0.00    -0.336 OA
ATOM      5  N   UNL     1      -2.698  -8.844  10.637  0.00  0.00    -0.190 NA
ATOM      6  N   UNL     1      -1.956 -10.477  12.057  0.00  0.00    -0.056 NA
ATOM     18  C   UNL     1      -3.612  -9.769  10.784  0.00  0.00    +0.245 A 
ATOM     21  C   UNL     1      -1.701  -9.321  11.436  0.00  0.00    +0.204 A 
BRANCH  21  22
ATOM      7  N   UNL     1       1.831  -8.294  10.892  0.00  0.00    -0.240 NA
ATOM     22  C   UNL     1      -0.459  -8.619  11.593  0.00  0.00    +0.041 A 
ATOM     23  C   UNL     1      -0.316  -7.621  12.549  0.00  0.00    +0.016 A 
ATOM     24  C   UNL     1       0.634  -8.916  10.796  0.00  0.00    +0.124 A 
ATOM     25  C   UNL     1       0.899  -6.958  12.678  0.00  0.00    +0.044 A 
ATOM     26  C   UNL     1       1.932  -7.328  11.833  0.00  0.00    +0.121 A 
BRANCH  26   8
ATOM      8  N   UNL     1       3.164  -6.643  11.976  0.00  0.00    -0.321 N 
ATOM     27  C   UNL     1       3.184  -5.208  12.155  0.00  0.00    +0.130 C 
ATOM     28  C   UNL     1       4.412  -7.375  11.937  0.00  0.00    +0.130 C 
ENDBRANCH  26   8
ENDBRANCH  21  22
ENDBRANCH  10  18
TORSDOF 4
ENDMDL
MODEL 6
REMARK VINA RESULT:       7.5     13.521     16.419
REMARK  Name = 45783795
REMARK  7 active torsions:
REMARK  status: ('A' for Active; 'I' for Inactive)
REMARK    1  A    between atoms: N_3  and  C_9
REMARK    2  A    between atoms: N_8  and  C_26
REMARK    3  A    between atoms: N_8  and  C_27
REMARK    4  A    between atoms: N_8  and  C_28
REMARK    5  A    between atoms: C_10  and  C_18
REMARK    6  A    between atoms: C_19  and  C_20
REMARK    7  A    between atoms: C_21  and  C_22
REMARK                            x       y       z     vdW  Elec       q    Type
REMARK                         _______ _______ _______ _____ _____    ______ ____
ROOT
ATOM      3  N   UNL     1      -5.902  -8.845  10.178  0.00  0.00    -0.288 NA
ATOM     10  C   UNL     1      -4.810  -9.695   9.661  0.00  0.00    +0.146 C 
ATOM     11  C   UNL     1      -6.373  -8.044   9.048  0.00  0.00    +0.085 C 
ATOM     12  C   UNL     1      -4.213  -8.894   8.490  0.00  0.00    +0.030 C 
ATOM     15  C   UNL     1      -5.072  -7.642   8.385  0.00  0.00    +0.017 C 
ENDROOT
BRANCH   3   9
ATOM      2  O   UNL     1     -10.719  -8.928  13.998  0.00  0.00    -0.276 OA
ATOM      4  N   UNL     1      -8.937  -9.942  12.907  0.00  0.00    -0.302 N 
ATOM      9  C   UNL     1      -6.983  -9.610  10.798  0.00  0.00    +0.060 C 
ATOM     13  C   UNL     1      -8.262  -8.765  10.849  0.00  0.00    +0.038 C 
ATOM     14  C   UNL     1      -6.573 -10.049  12.210  0.00  0.00    +0.038 C 
ATOM     16  C   UNL     1      -9.378  -9.510  11.579  0.00  0.00    +0.109 C 
ATOM     17  C   UNL     1      -7.723 -10.768  12.914  0.00  0.00    +0.109 C 
ATOM     19  C   UNL     1      -9.682  -9.594  14.034  0.00  0.00    +0.212 C 
ATOM     20  C   UNL     1      -9.160 -10.074  15.364  0.00  0.00    +0.109 C 
ENDBRANCH   3   9
BRANCH  10  18
ATOM      1  O   UNL     1      -2.605 -10.545  10.284  0.00  0.00    -0.336 OA
ATOM      5  N   UNL     1      -3.861  -9.901  12.023  0.00  0.00    -0.190 NA
ATOM      6  N   UNL     1      -1.832 -10.774  11.429  0.00  0.00    -0.056 NA
ATOM     18  C   UNL     1      -3.784 -10.031  10.723  0.00  0.00    +0.245 A 
ATOM     21  C   UNL     1      -2.640 -10.369  12.413  0.00  0.00    +0.204 A 
BRANCH  21  22
ATOM      7  N   UNL     1      -0.498 -10.540  15.448  0.00  0.00    -0.240 NA
ATOM     22  C   UNL     1      -2.258 -10.418  13.796  0.00  0.00    +0.041 A 
ATOM     23  C   UNL     1      -3.214 -10.394  14.804  0.00  0.00    +0.016 A 
ATOM     24  C   UNL     1      -0.925 -10.491  14.166  0.00  0.00    +0.124 A 
ATOM     25  C   UNL     1      -2.814 -10.443  16.135  0.00  0.00    +0.044 A 
ATOM     26  C   UNL     1      -1.457 -10.515  16.402  0.00  0.00    +0.121 A 
BRANCH  26   8
ATOM      8  N   UNL     1      -1.064 -10.564  17.762  0.00  0.00    -0.321 N 
ATOM     27  C   UNL     1       0.327 -10.407  18.125  0.00  0.00    +0.130 C 
ATOM     28  C   UNL     1      -2.052 -10.775  18.798  0.00  0.00    +0.130 C 
ENDBRANCH  26   8
ENDBRANCH  21  22
ENDBRANCH  10  18
TORSDOF 4
ENDMDL
