MODEL 1
REMARK VINA RESULT:      -5.9      0.000      0.000
REMARK  Name = 45784166
REMARK  10 active torsions:
REMARK  status: ('A' for Active; 'I' for Inactive)
REMARK    1  A    between atoms: N_4  and  C_14
REMARK    2  A    between atoms: C_7  and  C_11
REMARK    3  A    between atoms: C_8  and  C_14
REMARK    4  A    between atoms: C_10  and  C_15
REMARK    5  A    between atoms: C_11  and  C_16
REMARK    6  A    between atoms: C_11  and  C_17
REMARK    7  A    between atoms: C_12  and  C_18
REMARK    8  A    between atoms: C_15  and  C_19
REMARK    9  A    between atoms: C_20  and  C_22
REMARK   10  A    between atoms: C_21  and  C_23
REMARK                            x       y       z     vdW  Elec       q    Type
REMARK                         _______ _______ _______ _____ _____    ______ ____
ROOT
ATOM      7  C   UNL     1      -1.479   1.726  25.155  0.00  0.00    +0.000 C 
ATOM      8  C   UNL     1      -0.246   2.520  25.659  0.00  0.00    +0.032 C 
ATOM      9  C   UNL     1      -2.143   2.456  23.979  0.00  0.00    +0.012 C 
ATOM     10  C   UNL     1      -2.600   3.877  24.359  0.00  0.00    +0.024 C 
ATOM     12  C   UNL     1      -1.520   4.636  25.102  0.00  0.00    -0.073 C 
ATOM     13  C   UNL     1      -0.469   4.014  25.665  0.00  0.00    -0.022 C 
ATOM     18  C   UNL     1      -1.652   6.133  25.146  0.00  0.00    +0.039 C 
ENDROOT
BRANCH   7  11
ATOM     11  C   UNL     1      -1.104   0.301  24.737  0.00  0.00    -0.013 C 
ATOM     16  C   UNL     1       0.037   0.327  23.724  0.00  0.00    +0.007 C 
ATOM     17  C   UNL     1      -0.723  -0.530  25.958  0.00  0.00    +0.007 C 
ENDBRANCH   7  11
BRANCH   8  14
ATOM     14  C   UNL     1       0.175   2.060  27.058  0.00  0.00    +0.112 C 
BRANCH  14   4
ATOM      3  O   UNL     1       1.261   2.293  29.741  0.00  0.00    -0.276 OA
ATOM      4  N   UNL     1       1.404   2.678  27.448  0.00  0.00    -0.315 N 
ATOM     20  C   UNL     1       1.852   2.746  28.764  0.00  0.00    +0.210 C 
ATOM     22  C   UNL     1       3.188   3.428  28.891  0.00  0.00    +0.109 C 
ATOM     29  H   UNL     1       2.011   3.032  26.714  0.00  0.00    +0.149 HD
ENDBRANCH  14   4
ENDBRANCH   8  14
BRANCH  10  15
ATOM     15  C   UNL     1      -3.902   3.841  25.167  0.00  0.00    +0.105 C 
BRANCH  15  19
ATOM      2  O   UNL     1      -3.853   1.412  24.931  0.00  0.00    -0.420 OA
ATOM      5  N   UNL     1      -5.907   2.297  24.879  0.00  0.00    -0.112 NA
ATOM      6  N   UNL     1      -6.029   0.927  24.736  0.00  0.00    -0.107 NA
ATOM     19  C   UNL     1      -4.622   2.534  24.990  0.00  0.00    +0.218 A 
ATOM     21  C   UNL     1      -4.805   0.452  24.772  0.00  0.00    +0.251 A 
BRANCH  21  23
ATOM      1  F   UNL     1      -3.631  -0.870  26.946  0.00  0.00    -0.205 F 
ATOM     23  C   UNL     1      -4.326  -0.896  24.672  0.00  0.00    +0.074 A 
ATOM     24  C   UNL     1      -3.747  -1.517  25.778  0.00  0.00    +0.136 A 
ATOM     25  C   UNL     1      -4.439  -1.584  23.464  0.00  0.00    +0.016 A 
ATOM     26  C   UNL     1      -3.280  -2.829  25.676  0.00  0.00    +0.039 A 
ATOM     27  C   UNL     1      -3.973  -2.895  23.362  0.00  0.00    +0.001 A 
ATOM     28  C   UNL     1      -3.393  -3.517  24.468  0.00  0.00    +0.003 A 
ENDBRANCH  21  23
ENDBRANCH  15  19
ENDBRANCH  10  15
TORSDOF 6
ENDMDL
MODEL 2
REMARK VINA RESULT:      -5.1      3.829      6.843
REMARK  Name = 45784166
REMARK  10 active torsions:
REMARK  status: ('A' for Active; 'I' for Inactive)
REMARK    1  A    between atoms: N_4  and  C_14
REMARK    2  A    between atoms: C_7  and  C_11
REMARK    3  A    between atoms: C_8  and  C_14
REMARK    4  A    between atoms: C_10  and  C_15
REMARK    5  A    between atoms: C_11  and  C_16
REMARK    6  A    between atoms: C_11  and  C_17
REMARK    7  A    between atoms: C_12  and  C_18
REMARK    8  A    between atoms: C_15  and  C_19
REMARK    9  A    between atoms: C_20  and  C_22
REMARK   10  A    between atoms: C_21  and  C_23
REMARK                            x       y       z     vdW  Elec       q    Type
REMARK                         _______ _______ _______ _____ _____    ______ ____
ROOT
ATOM      7  C   UNL     1      -3.096  -0.324  24.584  0.00  0.00    +0.000 C 
ATOM      8  C   UNL     1      -3.928   0.675  25.427  0.00  0.00    +0.032 C 
ATOM      9  C   UNL     1      -1.606  -0.218  24.942  0.00  0.00    +0.012 C 
ATOM     10  C   UNL     1      -1.051   1.199  24.707  0.00  0.00    +0.024 C 
ATOM     12  C   UNL     1      -1.962   2.264  25.283  0.00  0.00    -0.073 C 
ATOM     13  C   UNL     1      -3.240   2.008  25.611  0.00  0.00    -0.022 C 
ATOM     18  C   UNL     1      -1.356   3.621  25.515  0.00  0.00    +0.039 C 
ENDROOT
BRANCH   7  11
ATOM     11  C   UNL     1      -3.575  -1.766  24.777  0.00  0.00    -0.013 C 
ATOM     16  C   UNL     1      -4.403  -2.217  23.578  0.00  0.00    +0.007 C 
ATOM     17  C   UNL     1      -2.387  -2.697  24.994  0.00  0.00    +0.007 C 
ENDBRANCH   7  11
BRANCH   8  14
ATOM     14  C   UNL     1      -5.315   0.896  24.815  0.00  0.00    +0.112 C 
BRANCH  14   4
ATOM      3  O   UNL     1      -6.234   2.638  26.948  0.00  0.00    -0.276 OA
ATOM      4  N   UNL     1      -5.616   2.292  24.729  0.00  0.00    -0.315 N 
ATOM     20  C   UNL     1      -6.055   3.056  25.807  0.00  0.00    +0.210 C 
ATOM     22  C   UNL     1      -6.273   4.501  25.447  0.00  0.00    +0.109 C 
ATOM     29  H   UNL     1      -5.441   2.762  23.846  0.00  0.00    +0.149 HD
ENDBRANCH  14   4
ENDBRANCH   8  14
BRANCH  10  15
ATOM     15  C   UNL     1      -0.786   1.449  23.218  0.00  0.00    +0.105 C 
BRANCH  15  19
ATOM      2  O   UNL     1       1.530   0.705  23.411  0.00  0.00    -0.420 OA
ATOM      5  N   UNL     1       0.419  -0.196  21.690  0.00  0.00    -0.112 NA
ATOM      6  N   UNL     1       1.705  -0.701  21.679  0.00  0.00    -0.107 NA
ATOM     19  C   UNL     1       0.362   0.619  22.718  0.00  0.00    +0.218 A 
ATOM     21  C   UNL     1       2.318  -0.148  22.700  0.00  0.00    +0.251 A 
BRANCH  21  23
ATOM      1  F   UNL     1       4.183   1.939  22.569  0.00  0.00    -0.205 F 
ATOM     23  C   UNL     1       3.663  -0.301  23.174  0.00  0.00    +0.074 A 
ATOM     24  C   UNL     1       4.560   0.763  23.090  0.00  0.00    +0.136 A 
ATOM     25  C   UNL     1       4.072  -1.518  23.719  0.00  0.00    +0.016 A 
ATOM     26  C   UNL     1       5.869   0.609  23.551  0.00  0.00    +0.039 A 
ATOM     27  C   UNL     1       5.379  -1.672  24.180  0.00  0.00    +0.001 A 
ATOM     28  C   UNL     1       6.278  -0.608  24.096  0.00  0.00    +0.003 A 
ENDBRANCH  21  23
ENDBRANCH  15  19
ENDBRANCH  10  15
TORSDOF 6
ENDMDL
MODEL 3
REMARK VINA RESULT:      -5.0      2.155      2.653
REMARK  Name = 45784166
REMARK  10 active torsions:
REMARK  status: ('A' for Active; 'I' for Inactive)
REMARK    1  A    between atoms: N_4  and  C_14
REMARK    2  A    between atoms: C_7  and  C_11
REMARK    3  A    between atoms: C_8  and  C_14
REMARK    4  A    between atoms: C_10  and  C_15
REMARK    5  A    between atoms: C_11  and  C_16
REMARK    6  A    between atoms: C_11  and  C_17
REMARK    7  A    between atoms: C_12  and  C_18
REMARK    8  A    between atoms: C_15  and  C_19
REMARK    9  A    between atoms: C_20  and  C_22
REMARK   10  A    between atoms: C_21  and  C_23
REMARK                            x       y       z     vdW  Elec       q    Type
REMARK                         _______ _______ _______ _____ _____    ______ ____
ROOT
ATOM      7  C   UNL     1      -1.650   2.144  23.792  0.00  0.00    +0.000 C 
ATOM      8  C   UNL     1      -0.289   2.882  23.861  0.00  0.00    +0.032 C 
ATOM      9  C   UNL     1      -2.771   3.123  23.414  0.00  0.00    +0.012 C 
ATOM     10  C   UNL     1      -2.895   4.283  24.419  0.00  0.00    +0.024 C 
ATOM     12  C   UNL     1      -1.547   4.893  24.744  0.00  0.00    -0.073 C 
ATOM     13  C   UNL     1      -0.393   4.258  24.476  0.00  0.00    -0.022 C 
ATOM     18  C   UNL     1      -1.555   6.271  25.346  0.00  0.00    +0.039 C 
ENDROOT
BRANCH   7  11
ATOM     11  C   UNL     1      -1.616   0.983  22.794  0.00  0.00    -0.013 C 
ATOM     16  C   UNL     1      -1.415  -0.341  23.525  0.00  0.00    +0.007 C 
ATOM     17  C   UNL     1      -2.897   0.954  21.967  0.00  0.00    +0.007 C 
ENDBRANCH   7  11
BRANCH   8  14
ATOM     14  C   UNL     1       0.750   2.057  24.629  0.00  0.00    +0.112 C 
BRANCH  14   4
ATOM      3  O   UNL     1       1.457  -0.356  23.178  0.00  0.00    -0.276 OA
ATOM      4  N   UNL     1       1.914   1.833  23.829  0.00  0.00    -0.315 N 
ATOM     20  C   UNL     1       2.177   0.639  23.164  0.00  0.00    +0.210 C 
ATOM     22  C   UNL     1       3.457   0.682  22.374  0.00  0.00    +0.109 C 
ATOM     29  H   UNL     1       2.552   2.611  23.690  0.00  0.00    +0.149 HD
ENDBRANCH  14   4
ENDBRANCH   8  14
BRANCH  10  15
ATOM     15  C   UNL     1      -3.618   3.834  25.694  0.00  0.00    +0.105 C 
BRANCH  15  19
ATOM      2  O   UNL     1      -3.698   1.428  25.288  0.00  0.00    -0.420 OA
ATOM      5  N   UNL     1      -5.707   2.406  25.402  0.00  0.00    -0.112 NA
ATOM      6  N   UNL     1      -5.902   1.057  25.171  0.00  0.00    -0.107 NA
ATOM     19  C   UNL     1      -4.408   2.577  25.464  0.00  0.00    +0.218 A 
ATOM     21  C   UNL     1      -4.702   0.526  25.112  0.00  0.00    +0.251 A 
BRANCH  21  23
ATOM      1  F   UNL     1      -3.161  -0.877  26.985  0.00  0.00    -0.205 F 
ATOM     23  C   UNL     1      -4.294  -0.831  24.894  0.00  0.00    +0.074 A 
ATOM     24  C   UNL     1      -3.527  -1.494  25.852  0.00  0.00    +0.136 A 
ATOM     25  C   UNL     1      -4.665  -1.488  23.721  0.00  0.00    +0.016 A 
ATOM     26  C   UNL     1      -3.130  -2.815  25.635  0.00  0.00    +0.039 A 
ATOM     27  C   UNL     1      -4.270  -2.808  23.505  0.00  0.00    +0.001 A 
ATOM     28  C   UNL     1      -3.501  -3.471  24.462  0.00  0.00    +0.003 A 
ENDBRANCH  21  23
ENDBRANCH  15  19
ENDBRANCH  10  15
TORSDOF 6
ENDMDL
MODEL 4
REMARK VINA RESULT:      -5.0      2.431      5.699
REMARK  Name = 45784166
REMARK  10 active torsions:
REMARK  status: ('A' for Active; 'I' for Inactive)
REMARK    1  A    between atoms: N_4  and  C_14
REMARK    2  A    between atoms: C_7  and  C_11
REMARK    3  A    between atoms: C_8  and  C_14
REMARK    4  A    between atoms: C_10  and  C_15
REMARK    5  A    between atoms: C_11  and  C_16
REMARK    6  A    between atoms: C_11  and  C_17
REMARK    7  A    between atoms: C_12  and  C_18
REMARK    8  A    between atoms: C_15  and  C_19
REMARK    9  A    between atoms: C_20  and  C_22
REMARK   10  A    between atoms: C_21  and  C_23
REMARK                            x       y       z     vdW  Elec       q    Type
REMARK                         _______ _______ _______ _____ _____    ______ ____
ROOT
ATOM      7  C   UNL     1      -1.247   0.268  24.776  0.00  0.00    +0.000 C 
ATOM      8  C   UNL     1      -0.438  -0.998  24.396  0.00  0.00    +0.032 C 
ATOM      9  C   UNL     1      -2.294  -0.066  25.849  0.00  0.00    +0.012 C 
ATOM     10  C   UNL     1      -3.279  -1.153  25.382  0.00  0.00    +0.024 C 
ATOM     12  C   UNL     1      -2.563  -2.328  24.747  0.00  0.00    -0.073 C 
ATOM     13  C   UNL     1      -1.290  -2.244  24.325  0.00  0.00    -0.022 C 
ATOM     18  C   UNL     1      -3.332  -3.617  24.649  0.00  0.00    +0.039 C 
ENDROOT
BRANCH   7  11
ATOM     11  C   UNL     1      -0.337   1.396  25.272  0.00  0.00    -0.013 C 
ATOM     16  C   UNL     1      -0.386   2.581  24.313  0.00  0.00    +0.007 C 
ATOM     17  C   UNL     1      -0.738   1.824  26.680  0.00  0.00    +0.007 C 
ENDBRANCH   7  11
BRANCH   8  14
ATOM     14  C   UNL     1       0.299  -0.806  23.066  0.00  0.00    +0.112 C 
BRANCH  14   4
ATOM      3  O   UNL     1       2.304  -0.178  21.063  0.00  0.00    -0.276 OA
ATOM      4  N   UNL     1       1.581  -0.208  23.277  0.00  0.00    -0.315 N 
ATOM     20  C   UNL     1       2.487   0.059  22.254  0.00  0.00    +0.210 C 
ATOM     22  C   UNL     1       3.748   0.713  22.750  0.00  0.00    +0.109 C 
ATOM     29  H   UNL     1       1.816   0.092  24.219  0.00  0.00    +0.149 HD
ENDBRANCH  14   4
ENDBRANCH   8  14
BRANCH  10  15
ATOM     15  C   UNL     1      -4.332  -0.572  24.432  0.00  0.00    +0.105 C 
BRANCH  15  19
ATOM      2  O   UNL     1      -3.754   1.799  24.446  0.00  0.00    -0.420 OA
ATOM      5  N   UNL     1      -5.728   1.331  25.389  0.00  0.00    -0.112 NA
ATOM      6  N   UNL     1      -5.531   2.698  25.466  0.00  0.00    -0.107 NA
ATOM     19  C   UNL     1      -4.668   0.849  24.786  0.00  0.00    +0.218 A 
ATOM     21  C   UNL     1      -4.367   2.925  24.904  0.00  0.00    +0.251 A 
BRANCH  21  23
ATOM      1  F   UNL     1      -2.465   3.858  26.739  0.00  0.00    -0.205 F 
ATOM     23  C   UNL     1      -3.654   4.153  24.700  0.00  0.00    +0.074 A 
ATOM     24  C   UNL     1      -2.716   4.582  25.639  0.00  0.00    +0.136 A 
ATOM     25  C   UNL     1      -3.903   4.919  23.561  0.00  0.00    +0.016 A 
ATOM     26  C   UNL     1      -2.026   5.778  25.438  0.00  0.00    +0.039 A 
ATOM     27  C   UNL     1      -3.213   6.114  23.360  0.00  0.00    +0.001 A 
ATOM     28  C   UNL     1      -2.274   6.544  24.299  0.00  0.00    +0.003 A 
ENDBRANCH  21  23
ENDBRANCH  15  19
ENDBRANCH  10  15
TORSDOF 6
ENDMDL
MODEL 5
REMARK VINA RESULT:      -4.5      2.561      5.876
REMARK  Name = 45784166
REMARK  10 active torsions:
REMARK  status: ('A' for Active; 'I' for Inactive)
REMARK    1  A    between atoms: N_4  and  C_14
REMARK    2  A    between atoms: C_7  and  C_11
REMARK    3  A    between atoms: C_8  and  C_14
REMARK    4  A    between atoms: C_10  and  C_15
REMARK    5  A    between atoms: C_11  and  C_16
REMARK    6  A    between atoms: C_11  and  C_17
REMARK    7  A    between atoms: C_12  and  C_18
REMARK    8  A    between atoms: C_15  and  C_19
REMARK    9  A    between atoms: C_20  and  C_22
REMARK   10  A    between atoms: C_21  and  C_23
REMARK                            x       y       z     vdW  Elec       q    Type
REMARK                         _______ _______ _______ _____ _____    ______ ____
ROOT
ATOM      7  C   UNL     1      -4.046   2.092  25.272  0.00  0.00    +0.000 C 
ATOM      8  C   UNL     1      -3.863   2.189  23.736  0.00  0.00    +0.032 C 
ATOM      9  C   UNL     1      -3.771   3.452  25.932  0.00  0.00    +0.012 C 
ATOM     10  C   UNL     1      -2.348   3.963  25.642  0.00  0.00    +0.024 C 
ATOM     12  C   UNL     1      -1.994   3.840  24.173  0.00  0.00    -0.073 C 
ATOM     13  C   UNL     1      -2.690   3.053  23.335  0.00  0.00    -0.022 C 
ATOM     18  C   UNL     1      -0.847   4.679  23.681  0.00  0.00    +0.039 C 
ENDROOT
BRANCH   7  11
ATOM     11  C   UNL     1      -5.450   1.608  25.647  0.00  0.00    -0.013 C 
ATOM     16  C   UNL     1      -5.959   2.352  26.878  0.00  0.00    +0.007 C 
ATOM     17  C   UNL     1      -6.406   1.788  24.473  0.00  0.00    +0.007 C 
ENDBRANCH   7  11
BRANCH   8  14
ATOM     14  C   UNL     1      -3.713   0.800  23.108  0.00  0.00    +0.112 C 
BRANCH  14   4
ATOM      3  O   UNL     1      -4.669  -1.914  23.499  0.00  0.00    -0.276 OA
ATOM      4  N   UNL     1      -3.261  -0.150  24.077  0.00  0.00    -0.315 N 
ATOM     20  C   UNL     1      -3.778  -1.437  24.197  0.00  0.00    +0.210 C 
ATOM     22  C   UNL     1      -3.105  -2.236  25.281  0.00  0.00    +0.109 C 
ATOM     29  H   UNL     1      -2.478   0.111  24.669  0.00  0.00    +0.149 HD
ENDBRANCH  14   4
ENDBRANCH   8  14
BRANCH  10  15
ATOM     15  C   UNL     1      -1.314   3.246  26.518  0.00  0.00    +0.105 C 
BRANCH  15  19
ATOM      2  O   UNL     1       0.178   2.141  24.935  0.00  0.00    -0.420 OA
ATOM      5  N   UNL     1      -1.182   0.748  26.037  0.00  0.00    -0.112 NA
ATOM      6  N   UNL     1      -0.400  -0.007  25.183  0.00  0.00    -0.107 NA
ATOM     19  C   UNL     1      -0.810   1.993  25.859  0.00  0.00    +0.218 A 
ATOM     21  C   UNL     1       0.379   0.847  24.560  0.00  0.00    +0.251 A 
BRANCH  21  23
ATOM      1  F   UNL     1      -0.012  -0.897  22.401  0.00  0.00    -0.205 F 
ATOM     23  C   UNL     1       1.389   0.633  23.564  0.00  0.00    +0.074 A 
ATOM     24  C   UNL     1       1.154  -0.244  22.505  0.00  0.00    +0.136 A 
ATOM     25  C   UNL     1       2.608   1.303  23.658  0.00  0.00    +0.016 A 
ATOM     26  C   UNL     1       2.141  -0.451  21.540  0.00  0.00    +0.039 A 
ATOM     27  C   UNL     1       3.594   1.097  22.693  0.00  0.00    +0.001 A 
ATOM     28  C   UNL     1       3.360   0.219  21.634  0.00  0.00    +0.003 A 
ENDBRANCH  21  23
ENDBRANCH  15  19
ENDBRANCH  10  15
TORSDOF 6
ENDMDL
MODEL 6
REMARK VINA RESULT:      -3.9      2.441      3.248
REMARK  Name = 45784166
REMARK  10 active torsions:
REMARK  status: ('A' for Active; 'I' for Inactive)
REMARK    1  A    between atoms: N_4  and  C_14
REMARK    2  A    between atoms: C_7  and  C_11
REMARK    3  A    between atoms: C_8  and  C_14
REMARK    4  A    between atoms: C_10  and  C_15
REMARK    5  A    between atoms: C_11  and  C_16
REMARK    6  A    between atoms: C_11  and  C_17
REMARK    7  A    between atoms: C_12  and  C_18
REMARK    8  A    between atoms: C_15  and  C_19
REMARK    9  A    between atoms: C_20  and  C_22
REMARK   10  A    between atoms: C_21  and  C_23
REMARK                            x       y       z     vdW  Elec       q    Type
REMARK                         _______ _______ _______ _____ _____    ______ ____
ROOT
ATOM      7  C   UNL     1      -2.832   2.622  23.849  0.00  0.00    +0.000 C 
ATOM      8  C   UNL     1      -1.525   2.941  24.619  0.00  0.00    +0.032 C 
ATOM      9  C   UNL     1      -3.819   3.794  23.962  0.00  0.00    +0.012 C 
ATOM     10  C   UNL     1      -4.179   4.113  25.424  0.00  0.00    +0.024 C 
ATOM     12  C   UNL     1      -2.949   4.179  26.306  0.00  0.00    -0.073 C 
ATOM     13  C   UNL     1      -1.769   3.661  25.924  0.00  0.00    -0.022 C 
ATOM     18  C   UNL     1      -3.096   4.894  27.621  0.00  0.00    +0.039 C 
ENDROOT
BRANCH   7  11
ATOM     11  C   UNL     1      -2.560   2.312  22.374  0.00  0.00    -0.013 C 
ATOM     16  C   UNL     1      -2.552   0.805  22.140  0.00  0.00    +0.007 C 
ATOM     17  C   UNL     1      -3.600   2.990  21.487  0.00  0.00    +0.007 C 
ENDBRANCH   7  11
BRANCH   8  14
ATOM     14  C   UNL     1      -0.713   1.668  24.882  0.00  0.00    +0.112 C 
BRANCH  14   4
ATOM      3  O   UNL     1       0.619  -0.275  23.184  0.00  0.00    -0.276 OA
ATOM      4  N   UNL     1       0.591   1.768  24.303  0.00  0.00    -0.315 N 
ATOM     20  C   UNL     1       1.157   0.784  23.497  0.00  0.00    +0.210 C 
ATOM     22  C   UNL     1       2.528   1.155  23.001  0.00  0.00    +0.109 C 
ATOM     29  H   UNL     1       1.107   2.632  24.441  0.00  0.00    +0.149 HD
ENDBRANCH  14   4
ENDBRANCH   8  14
BRANCH  10  15
ATOM     15  C   UNL     1      -5.197   3.107  25.974  0.00  0.00    +0.105 C 
BRANCH  15  19
ATOM      2  O   UNL     1      -3.943   1.050  25.581  0.00  0.00    -0.420 OA
ATOM      5  N   UNL     1      -5.879   1.170  24.467  0.00  0.00    -0.112 NA
ATOM      6  N   UNL     1      -5.281  -0.036  24.154  0.00  0.00    -0.107 NA
ATOM     19  C   UNL     1      -5.065   1.769  25.303  0.00  0.00    +0.218 A 
ATOM     21  C   UNL     1      -4.154  -0.063  24.826  0.00  0.00    +0.251 A 
BRANCH  21  23
ATOM      1  F   UNL     1      -4.438  -2.555  23.576  0.00  0.00    -0.205 F 
ATOM     23  C   UNL     1      -3.129  -1.065  24.888  0.00  0.00    +0.074 A 
ATOM     24  C   UNL     1      -3.311  -2.293  24.252  0.00  0.00    +0.136 A 
ATOM     25  C   UNL     1      -1.950  -0.809  25.587  0.00  0.00    +0.016 A 
ATOM     26  C   UNL     1      -2.311  -3.266  24.316  0.00  0.00    +0.039 A 
ATOM     27  C   UNL     1      -0.951  -1.780  25.650  0.00  0.00    +0.001 A 
ATOM     28  C   UNL     1      -1.132  -3.009  25.015  0.00  0.00    +0.003 A 
ENDBRANCH  21  23
ENDBRANCH  15  19
ENDBRANCH  10  15
TORSDOF 6
ENDMDL
MODEL 7
REMARK VINA RESULT:      -3.9      2.872      5.100
REMARK  Name = 45784166
REMARK  10 active torsions:
REMARK  status: ('A' for Active; 'I' for Inactive)
REMARK    1  A    between atoms: N_4  and  C_14
REMARK    2  A    between atoms: C_7  and  C_11
REMARK    3  A    between atoms: C_8  and  C_14
REMARK    4  A    between atoms: C_10  and  C_15
REMARK    5  A    between atoms: C_11  and  C_16
REMARK    6  A    between atoms: C_11  and  C_17
REMARK    7  A    between atoms: C_12  and  C_18
REMARK    8  A    between atoms: C_15  and  C_19
REMARK    9  A    between atoms: C_20  and  C_22
REMARK   10  A    between atoms: C_21  and  C_23
REMARK                            x       y       z     vdW  Elec       q    Type
REMARK                         _______ _______ _______ _____ _____    ______ ____
ROOT
ATOM      7  C   UNL     1      -3.658   2.270  24.354  0.00  0.00    +0.000 C 
ATOM      8  C   UNL     1      -4.527   3.379  25.000  0.00  0.00    +0.032 C 
ATOM      9  C   UNL     1      -4.508   1.023  24.066  0.00  0.00    +0.012 C 
ATOM     10  C   UNL     1      -5.157   0.454  25.341  0.00  0.00    +0.024 C 
ATOM     12  C   UNL     1      -5.810   1.539  26.173  0.00  0.00    -0.073 C 
ATOM     13  C   UNL     1      -5.526   2.840  25.998  0.00  0.00    -0.022 C 
ATOM     18  C   UNL     1      -6.832   1.094  27.184  0.00  0.00    +0.039 C 
ENDROOT
BRANCH   7  11
ATOM     11  C   UNL     1      -2.989   2.752  23.063  0.00  0.00    -0.013 C 
ATOM     16  C   UNL     1      -2.523   1.562  22.229  0.00  0.00    +0.007 C 
ATOM     17  C   UNL     1      -3.947   3.629  22.263  0.00  0.00    +0.007 C 
ENDBRANCH   7  11
BRANCH   8  14
ATOM     14  C   UNL     1      -3.655   4.444  25.673  0.00  0.00    +0.112 C 
BRANCH  14   4
ATOM      3  O   UNL     1      -1.647   6.368  24.840  0.00  0.00    -0.276 OA
ATOM      4  N   UNL     1      -2.269   4.199  25.420  0.00  0.00    -0.315 N 
ATOM     20  C   UNL     1      -1.370   5.185  25.021  0.00  0.00    +0.210 C 
ATOM     22  C   UNL     1       0.030   4.662  24.849  0.00  0.00    +0.109 C 
ATOM     29  H   UNL     1      -1.910   3.266  25.600  0.00  0.00    +0.149 HD
ENDBRANCH  14   4
ENDBRANCH   8  14
BRANCH  10  15
ATOM     15  C   UNL     1      -4.142  -0.340  26.171  0.00  0.00    +0.105 C 
BRANCH  15  19
ATOM      2  O   UNL     1      -1.989  -0.015  25.068  0.00  0.00    -0.420 OA
ATOM      5  N   UNL     1      -2.883  -2.042  24.754  0.00  0.00    -0.112 NA
ATOM      6  N   UNL     1      -1.677  -1.998  24.080  0.00  0.00    -0.107 NA
ATOM     19  C   UNL     1      -3.024  -0.865  25.316  0.00  0.00    +0.218 A 
ATOM     21  C   UNL     1      -1.190  -0.797  24.291  0.00  0.00    +0.251 A 
BRANCH  21  23
ATOM      1  F   UNL     1      -0.280   1.650  25.309  0.00  0.00    -0.205 F 
ATOM     23  C   UNL     1       0.029  -0.193  23.838  0.00  0.00    +0.074 A 
ATOM     24  C   UNL     1       0.446   1.027  24.371  0.00  0.00    +0.136 A 
ATOM     25  C   UNL     1       0.797  -0.828  22.863  0.00  0.00    +0.016 A 
ATOM     26  C   UNL     1       1.633   1.612  23.926  0.00  0.00    +0.039 A 
ATOM     27  C   UNL     1       1.983  -0.244  22.419  0.00  0.00    +0.001 A 
ATOM     28  C   UNL     1       2.401   0.977  22.951  0.00  0.00    +0.003 A 
ENDBRANCH  21  23
ENDBRANCH  15  19
ENDBRANCH  10  15
TORSDOF 6
ENDMDL
MODEL 8
REMARK VINA RESULT:      -3.8      2.280      4.780
REMARK  Name = 45784166
REMARK  10 active torsions:
REMARK  status: ('A' for Active; 'I' for Inactive)
REMARK    1  A    between atoms: N_4  and  C_14
REMARK    2  A    between atoms: C_7  and  C_11
REMARK    3  A    between atoms: C_8  and  C_14
REMARK    4  A    between atoms: C_10  and  C_15
REMARK    5  A    between atoms: C_11  and  C_16
REMARK    6  A    between atoms: C_11  and  C_17
REMARK    7  A    between atoms: C_12  and  C_18
REMARK    8  A    between atoms: C_15  and  C_19
REMARK    9  A    between atoms: C_20  and  C_22
REMARK   10  A    between atoms: C_21  and  C_23
REMARK                            x       y       z     vdW  Elec       q    Type
REMARK                         _______ _______ _______ _____ _____    ______ ____
ROOT
ATOM      7  C   UNL     1      -3.920   3.202  25.719  0.00  0.00    +0.000 C 
ATOM      8  C   UNL     1      -3.805   3.617  24.230  0.00  0.00    +0.032 C 
ATOM      9  C   UNL     1      -3.151   4.187  26.611  0.00  0.00    +0.012 C 
ATOM     10  C   UNL     1      -1.659   4.265  26.241  0.00  0.00    +0.024 C 
ATOM     12  C   UNL     1      -1.456   4.408  24.746  0.00  0.00    -0.073 C 
ATOM     13  C   UNL     1      -2.430   4.126  23.864  0.00  0.00    -0.022 C 
ATOM     18  C   UNL     1      -0.119   4.925  24.290  0.00  0.00    +0.039 C 
ENDROOT
BRANCH   7  11
ATOM     11  C   UNL     1      -5.381   3.120  26.174  0.00  0.00    -0.013 C 
ATOM     16  C   UNL     1      -6.177   4.299  25.622  0.00  0.00    +0.007 C 
ATOM     17  C   UNL     1      -6.001   1.798  25.736  0.00  0.00    +0.007 C 
ENDBRANCH   7  11
BRANCH   8  14
ATOM     14  C   UNL     1      -4.185   2.459  23.301  0.00  0.00    +0.112 C 
BRANCH  14   4
ATOM      3  O   UNL     1      -2.891   2.668  20.711  0.00  0.00    -0.276 OA
ATOM      4  N   UNL     1      -3.019   1.763  22.854  0.00  0.00    -0.315 N 
ATOM     20  C   UNL     1      -2.462   1.923  21.588  0.00  0.00    +0.210 C 
ATOM     22  C   UNL     1      -1.224   1.090  21.387  0.00  0.00    +0.109 C 
ATOM     29  H   UNL     1      -2.537   1.165  23.519  0.00  0.00    +0.149 HD
ENDBRANCH  14   4
ENDBRANCH   8  14
BRANCH  10  15
ATOM     15  C   UNL     1      -0.890   3.057  26.787  0.00  0.00    +0.105 C 
BRANCH  15  19
ATOM      2  O   UNL     1      -1.819   1.016  25.824  0.00  0.00    -0.420 OA
ATOM      5  N   UNL     1       0.061   1.722  24.837  0.00  0.00    -0.112 NA
ATOM      6  N   UNL     1      -0.350   0.568  24.196  0.00  0.00    -0.107 NA
ATOM     19  C   UNL     1      -0.825   1.946  25.778  0.00  0.00    +0.218 A 
ATOM     21  C   UNL     1      -1.451   0.192  24.805  0.00  0.00    +0.251 A 
BRANCH  21  23
ATOM      1  F   UNL     1      -0.588  -2.445  25.205  0.00  0.00    -0.205 F 
ATOM     23  C   UNL     1      -2.309  -0.933  24.567  0.00  0.00    +0.074 A 
ATOM     24  C   UNL     1      -1.840  -2.229  24.779  0.00  0.00    +0.136 A 
ATOM     25  C   UNL     1      -3.615  -0.726  24.123  0.00  0.00    +0.016 A 
ATOM     26  C   UNL     1      -2.679  -3.320  24.545  0.00  0.00    +0.039 A 
ATOM     27  C   UNL     1      -4.453  -1.817  23.890  0.00  0.00    +0.001 A 
ATOM     28  C   UNL     1      -3.985  -3.114  24.100  0.00  0.00    +0.003 A 
ENDBRANCH  21  23
ENDBRANCH  15  19
ENDBRANCH  10  15
TORSDOF 6
ENDMDL
MODEL 9
REMARK VINA RESULT:      -3.6      2.350      5.223
REMARK  Name = 45784166
REMARK  10 active torsions:
REMARK  status: ('A' for Active; 'I' for Inactive)
REMARK    1  A    between atoms: N_4  and  C_14
REMARK    2  A    between atoms: C_7  and  C_11
REMARK    3  A    between atoms: C_8  and  C_14
REMARK    4  A    between atoms: C_10  and  C_15
REMARK    5  A    between atoms: C_11  and  C_16
REMARK    6  A    between atoms: C_11  and  C_17
REMARK    7  A    between atoms: C_12  and  C_18
REMARK    8  A    between atoms: C_15  and  C_19
REMARK    9  A    between atoms: C_20  and  C_22
REMARK   10  A    between atoms: C_21  and  C_23
REMARK                            x       y       z     vdW  Elec       q    Type
REMARK                         _______ _______ _______ _____ _____    ______ ____
ROOT
ATOM      7  C   UNL     1      -4.630   2.261  25.342  0.00  0.00    +0.000 C 
ATOM      8  C   UNL     1      -4.223   2.320  23.848  0.00  0.00    +0.032 C 
ATOM      9  C   UNL     1      -4.741   3.678  25.924  0.00  0.00    +0.012 C 
ATOM     10  C   UNL     1      -3.419   4.460  25.809  0.00  0.00    +0.024 C 
ATOM     12  C   UNL     1      -2.814   4.343  24.424  0.00  0.00    -0.073 C 
ATOM     13  C   UNL     1      -3.195   3.389  23.558  0.00  0.00    -0.022 C 
ATOM     18  C   UNL     1      -1.792   5.378  24.043  0.00  0.00    +0.039 C 
ENDROOT
BRANCH   7  11
ATOM     11  C   UNL     1      -5.952   1.513  25.541  0.00  0.00    -0.013 C 
ATOM     16  C   UNL     1      -6.531   1.815  26.920  0.00  0.00    +0.007 C 
ATOM     17  C   UNL     1      -6.945   1.885  24.445  0.00  0.00    +0.007 C 
ENDBRANCH   7  11
BRANCH   8  14
ATOM     14  C   UNL     1      -3.701   0.964  23.362  0.00  0.00    +0.112 C 
BRANCH  14   4
ATOM      3  O   UNL     1      -4.315  -1.872  23.263  0.00  0.00    -0.276 OA
ATOM      4  N   UNL     1      -3.647   0.025  24.439  0.00  0.00    -0.315 N 
ATOM     20  C   UNL     1      -3.961  -1.325  24.304  0.00  0.00    +0.210 C 
ATOM     22  C   UNL     1      -3.797  -2.092  25.588  0.00  0.00    +0.109 C 
ATOM     29  H   UNL     1      -3.303   0.351  25.338  0.00  0.00    +0.149 HD
ENDBRANCH  14   4
ENDBRANCH   8  14
BRANCH  10  15
ATOM     15  C   UNL     1      -2.420   4.017  26.884  0.00  0.00    +0.105 C 
BRANCH  15  19
ATOM      2  O   UNL     1      -1.680   1.880  25.968  0.00  0.00    -0.420 OA
ATOM      5  N   UNL     1      -0.078   3.439  26.066  0.00  0.00    -0.112 NA
ATOM      6  N   UNL     1       0.476   2.291  25.532  0.00  0.00    -0.107 NA
ATOM     19  C   UNL     1      -1.336   3.154  26.304  0.00  0.00    +0.218 A 
ATOM     21  C   UNL     1      -0.494   1.408  25.493  0.00  0.00    +0.251 A 
BRANCH  21  23
ATOM      1  F   UNL     1      -0.217   0.751  22.782  0.00  0.00    -0.205 F 
ATOM     23  C   UNL     1      -0.499   0.048  25.037  0.00  0.00    +0.074 A 
ATOM     24  C   UNL     1      -0.359  -0.236  23.678  0.00  0.00    +0.136 A 
ATOM     25  C   UNL     1      -0.646  -0.991  25.955  0.00  0.00    +0.016 A 
ATOM     26  C   UNL     1      -0.366  -1.561  23.238  0.00  0.00    +0.039 A 
ATOM     27  C   UNL     1      -0.652  -2.315  25.516  0.00  0.00    +0.001 A 
ATOM     28  C   UNL     1      -0.512  -2.600  24.157  0.00  0.00    +0.003 A 
ENDBRANCH  21  23
ENDBRANCH  15  19
ENDBRANCH  10  15
TORSDOF 6
ENDMDL
MODEL 10
REMARK VINA RESULT:      -3.3      3.731      7.140
REMARK  Name = 45784166
REMARK  10 active torsions:
REMARK  status: ('A' for Active; 'I' for Inactive)
REMARK    1  A    between atoms: N_4  and  C_14
REMARK    2  A    between atoms: C_7  and  C_11
REMARK    3  A    between atoms: C_8  and  C_14
REMARK    4  A    between atoms: C_10  and  C_15
REMARK    5  A    between atoms: C_11  and  C_16
REMARK    6  A    between atoms: C_11  and  C_17
REMARK    7  A    between atoms: C_12  and  C_18
REMARK    8  A    between atoms: C_15  and  C_19
REMARK    9  A    between atoms: C_20  and  C_22
REMARK   10  A    between atoms: C_21  and  C_23
REMARK                            x       y       z     vdW  Elec       q    Type
REMARK                         _______ _______ _______ _____ _____    ______ ____
ROOT
ATOM      7  C   UNL     1      -3.356   1.351  23.985  0.00  0.00    +0.000 C 
ATOM      8  C   UNL     1      -4.675   0.780  24.565  0.00  0.00    +0.032 C 
ATOM      9  C   UNL     1      -2.772   0.394  22.936  0.00  0.00    +0.012 C 
ATOM     10  C   UNL     1      -2.483  -1.002  23.519  0.00  0.00    +0.024 C 
ATOM     12  C   UNL     1      -3.648  -1.524  24.335  0.00  0.00    -0.073 C 
ATOM     13  C   UNL     1      -4.624  -0.715  24.783  0.00  0.00    -0.022 C 
ATOM     18  C   UNL     1      -3.688  -3.005  24.588  0.00  0.00    +0.039 C 
ENDROOT
BRANCH   7  11
ATOM     11  C   UNL     1      -3.563   2.737  23.365  0.00  0.00    -0.013 C 
ATOM     16  C   UNL     1      -2.608   3.748  23.992  0.00  0.00    +0.007 C 
ATOM     17  C   UNL     1      -3.369   2.678  21.853  0.00  0.00    +0.007 C 
ENDBRANCH   7  11
BRANCH   8  14
ATOM     14  C   UNL     1      -5.050   1.475  25.877  0.00  0.00    +0.112 C 
BRANCH  14   4
ATOM      3  O   UNL     1      -4.220   4.199  26.443  0.00  0.00    -0.276 OA
ATOM      4  N   UNL     1      -5.782   2.677  25.624  0.00  0.00    -0.315 N 
ATOM     20  C   UNL     1      -5.307   3.950  25.929  0.00  0.00    +0.210 C 
ATOM     22  C   UNL     1      -6.267   5.040  25.535  0.00  0.00    +0.109 C 
ATOM     29  H   UNL     1      -6.672   2.599  25.140  0.00  0.00    +0.149 HD
ENDBRANCH  14   4
ENDBRANCH   8  14
BRANCH  10  15
ATOM     15  C   UNL     1      -1.191  -1.000  24.344  0.00  0.00    +0.105 C 
BRANCH  15  19
ATOM      2  O   UNL     1       1.223  -0.751  24.089  0.00  0.00    -0.420 OA
ATOM      5  N   UNL     1       0.053  -0.277  22.242  0.00  0.00    -0.112 NA
ATOM      6  N   UNL     1       1.394  -0.095  21.956  0.00  0.00    -0.107 NA
ATOM     19  C   UNL     1       0.001  -0.660  23.496  0.00  0.00    +0.218 A 
ATOM     21  C   UNL     1       2.039  -0.383  23.063  0.00  0.00    +0.251 A 
BRANCH  21  23
ATOM      1  F   UNL     1       3.615   1.901  22.668  0.00  0.00    -0.205 F 
ATOM     23  C   UNL     1       3.443  -0.370  23.353  0.00  0.00    +0.074 A 
ATOM     24  C   UNL     1       4.192   0.788  23.142  0.00  0.00    +0.136 A 
ATOM     25  C   UNL     1       4.060  -1.520  23.846  0.00  0.00    +0.016 A 
ATOM     26  C   UNL     1       5.559   0.795  23.424  0.00  0.00    +0.039 A 
ATOM     27  C   UNL     1       5.426  -1.512  24.129  0.00  0.00    +0.001 A 
ATOM     28  C   UNL     1       6.176  -0.355  23.917  0.00  0.00    +0.003 A 
ENDBRANCH  21  23
ENDBRANCH  15  19
ENDBRANCH  10  15
TORSDOF 6
ENDMDL
