MODEL 1
REMARK VINA RESULT:       6.7      0.000      0.000
REMARK  Name = 7144252
REMARK  7 active torsions:
REMARK  status: ('A' for Active; 'I' for Inactive)
REMARK    1  A    between atoms: O_2  and  C_28
REMARK    2  A    between atoms: O_2  and  C_30
REMARK    3  A    between atoms: O_3  and  C_29
REMARK    4  A    between atoms: O_3  and  C_31
REMARK    5  A    between atoms: N_4  and  C_13
REMARK    6  A    between atoms: C_13  and  C_18
REMARK    7  A    between atoms: C_14  and  C_19
REMARK                            x       y       z     vdW  Elec       q    Type
REMARK                         _______ _______ _______ _____ _____    ______ ____
ROOT
ATOM      1  O   UNL     1      -3.538   5.055  25.474  0.00  0.00    -0.268 OA
ATOM      4  N   UNL     1       0.166   2.080  23.960  0.00  0.00    -0.297 NA
ATOM      5  N   UNL     1      -2.428   2.994  25.559  0.00  0.00    -0.311 N 
ATOM      6  C   UNL     1       0.005   2.804  26.349  0.00  0.00    +0.024 C 
ATOM      7  C   UNL     1      -1.200   0.802  25.622  0.00  0.00    +0.051 C 
ATOM      8  C   UNL     1      -0.402   1.404  26.776  0.00  0.00    +0.017 C 
ATOM      9  C   UNL     1       0.862   2.746  25.068  0.00  0.00    +0.090 C 
ATOM     10  C   UNL     1      -0.312   0.748  24.357  0.00  0.00    +0.094 C 
ATOM     11  C   UNL     1      -1.260   3.645  26.170  0.00  0.00    +0.130 C 
ATOM     12  C   UNL     1      -2.480   1.601  25.354  0.00  0.00    +0.034 A 
ATOM     14  C   UNL     1      -3.629   1.023  24.919  0.00  0.00    +0.002 A 
ATOM     15  C   UNL     1      -3.524   3.836  25.300  0.00  0.00    +0.252 A 
ATOM     16  C   UNL     1      -4.780   1.860  24.636  0.00  0.00    +0.015 A 
ATOM     17  C   UNL     1      -4.753   3.184  24.794  0.00  0.00    +0.071 A 
ENDROOT
BRANCH  14  19
ATOM     19  C   UNL     1      -3.736  -0.437  24.710  0.00  0.00    -0.016 A 
ATOM     22  C   UNL     1      -3.334  -1.311  25.716  0.00  0.00    +0.012 A 
ATOM     23  C   UNL     1      -4.238  -0.928  23.508  0.00  0.00    +0.012 A 
ATOM     26  C   UNL     1      -3.433  -2.688  25.518  0.00  0.00    +0.046 A 
ATOM     27  C   UNL     1      -4.337  -2.305  23.310  0.00  0.00    +0.046 A 
ATOM     29  C   UNL     1      -3.935  -3.185  24.316  0.00  0.00    +0.120 A 
BRANCH  29   3
ATOM      3  O   UNL     1      -4.033  -4.529  24.123  0.00  0.00    -0.495 OA
ATOM     31  C   UNL     1      -3.515  -5.049  22.900  0.00  0.00    +0.277 C 
ENDBRANCH  29   3
ENDBRANCH  14  19
BRANCH   4  13
ATOM     13  C   UNL     1       1.022   1.999  22.779  0.00  0.00    +0.119 C 
BRANCH  13  18
ATOM     18  C   UNL     1       2.215   1.110  23.010  0.00  0.00    -0.033 A 
ATOM     20  C   UNL     1       3.491   1.654  22.967  0.00  0.00    +0.008 A 
ATOM     21  C   UNL     1       2.021  -0.241  23.262  0.00  0.00    +0.008 A 
ATOM     24  C   UNL     1       4.596   0.831  23.181  0.00  0.00    +0.046 A 
ATOM     25  C   UNL     1       3.127  -1.065  23.476  0.00  0.00    +0.046 A 
ATOM     28  C   UNL     1       4.414  -0.530  23.435  0.00  0.00    +0.120 A 
BRANCH  28   2
ATOM      2  O   UNL     1       5.493  -1.332  23.645  0.00  0.00    -0.495 OA
ATOM     30  C   UNL     1       6.779  -0.768  23.398  0.00  0.00    +0.277 C 
ENDBRANCH  28   2
ENDBRANCH  13  18
ENDBRANCH   4  13
TORSDOF 5
ENDMDL
MODEL 2
REMARK VINA RESULT:       7.9      1.576      6.213
REMARK  Name = 7144252
REMARK  7 active torsions:
REMARK  status: ('A' for Active; 'I' for Inactive)
REMARK    1  A    between atoms: O_2  and  C_28
REMARK    2  A    between atoms: O_2  and  C_30
REMARK    3  A    between atoms: O_3  and  C_29
REMARK    4  A    between atoms: O_3  and  C_31
REMARK    5  A    between atoms: N_4  and  C_13
REMARK    6  A    between atoms: C_13  and  C_18
REMARK    7  A    between atoms: C_14  and  C_19
REMARK                            x       y       z     vdW  Elec       q    Type
REMARK                         _______ _______ _______ _____ _____    ______ ____
ROOT
ATOM      1  O   UNL     1      -2.364   6.386  25.488  0.00  0.00    -0.268 OA
ATOM      4  N   UNL     1      -4.009   1.739  24.744  0.00  0.00    -0.297 NA
ATOM      5  N   UNL     1      -2.277   4.369  24.299  0.00  0.00    -0.311 N 
ATOM      6  C   UNL     1      -4.297   3.491  22.983  0.00  0.00    +0.024 C 
ATOM      7  C   UNL     1      -2.225   2.190  23.050  0.00  0.00    +0.051 C 
ATOM      8  C   UNL     1      -3.247   2.827  22.110  0.00  0.00    +0.017 C 
ATOM      9  C   UNL     1      -4.974   2.448  23.896  0.00  0.00    +0.090 C 
ATOM     10  C   UNL     1      -2.932   1.143  23.942  0.00  0.00    +0.094 C 
ATOM     11  C   UNL     1      -3.629   4.617  23.776  0.00  0.00    +0.130 C 
ATOM     12  C   UNL     1      -1.522   3.248  23.905  0.00  0.00    +0.034 A 
ATOM     14  C   UNL     1      -0.227   3.131  24.301  0.00  0.00    +0.002 A 
ATOM     15  C   UNL     1      -1.753   5.380  25.125  0.00  0.00    +0.252 A 
ATOM     16  C   UNL     1       0.347   4.152  25.157  0.00  0.00    +0.015 A 
ATOM     17  C   UNL     1      -0.352   5.210  25.569  0.00  0.00    +0.071 A 
ENDROOT
BRANCH  14  19
ATOM     19  C   UNL     1       0.610   1.982  23.894  0.00  0.00    -0.016 A 
ATOM     22  C   UNL     1       1.924   2.194  23.484  0.00  0.00    +0.012 A 
ATOM     23  C   UNL     1       0.080   0.696  23.923  0.00  0.00    +0.012 A 
ATOM     26  C   UNL     1       2.713   1.111  23.099  0.00  0.00    +0.046 A 
ATOM     27  C   UNL     1       0.869  -0.388  23.539  0.00  0.00    +0.046 A 
ATOM     29  C   UNL     1       2.186  -0.180  23.127  0.00  0.00    +0.120 A 
BRANCH  29   3
ATOM      3  O   UNL     1       2.956  -1.237  22.752  0.00  0.00    -0.495 OA
ATOM     31  C   UNL     1       4.142  -1.478  23.511  0.00  0.00    +0.277 C 
ENDBRANCH  29   3
ENDBRANCH  14  19
BRANCH   4  13
ATOM     13  C   UNL     1      -4.676   0.726  25.560  0.00  0.00    +0.119 C 
BRANCH  13  18
ATOM     18  C   UNL     1      -4.287  -0.670  25.149  0.00  0.00    -0.033 A 
ATOM     20  C   UNL     1      -4.757  -1.185  23.949  0.00  0.00    +0.008 A 
ATOM     21  C   UNL     1      -3.465  -1.422  25.976  0.00  0.00    +0.008 A 
ATOM     24  C   UNL     1      -4.398  -2.478  23.568  0.00  0.00    +0.046 A 
ATOM     25  C   UNL     1      -3.105  -2.715  25.596  0.00  0.00    +0.046 A 
ATOM     28  C   UNL     1      -3.571  -3.243  24.393  0.00  0.00    +0.120 A 
BRANCH  28   2
ATOM      2  O   UNL     1      -3.219  -4.504  24.020  0.00  0.00    -0.495 OA
ATOM     30  C   UNL     1      -2.199  -4.627  23.031  0.00  0.00    +0.277 C 
ENDBRANCH  28   2
ENDBRANCH  13  18
ENDBRANCH   4  13
TORSDOF 5
ENDMDL
MODEL 3
REMARK VINA RESULT:       8.0      1.828      6.065
REMARK  Name = 7144252
REMARK  7 active torsions:
REMARK  status: ('A' for Active; 'I' for Inactive)
REMARK    1  A    between atoms: O_2  and  C_28
REMARK    2  A    between atoms: O_2  and  C_30
REMARK    3  A    between atoms: O_3  and  C_29
REMARK    4  A    between atoms: O_3  and  C_31
REMARK    5  A    between atoms: N_4  and  C_13
REMARK    6  A    between atoms: C_13  and  C_18
REMARK    7  A    between atoms: C_14  and  C_19
REMARK                            x       y       z     vdW  Elec       q    Type
REMARK                         _______ _______ _______ _____ _____    ______ ____
ROOT
ATOM      1  O   UNL     1      -2.649   4.314  28.813  0.00  0.00    -0.268 OA
ATOM      4  N   UNL     1      -4.621   1.688  25.062  0.00  0.00    -0.297 NA
ATOM      5  N   UNL     1      -2.601   3.625  26.575  0.00  0.00    -0.311 N 
ATOM      6  C   UNL     1      -4.507   4.184  24.951  0.00  0.00    +0.024 C 
ATOM      7  C   UNL     1      -2.596   2.863  24.181  0.00  0.00    +0.051 C 
ATOM      8  C   UNL     1      -3.420   4.116  23.891  0.00  0.00    +0.017 C 
ATOM      9  C   UNL     1      -5.394   2.924  24.891  0.00  0.00    +0.090 C 
ATOM     10  C   UNL     1      -3.510   1.618  24.102  0.00  0.00    +0.094 C 
ATOM     11  C   UNL     1      -3.843   4.368  26.317  0.00  0.00    +0.130 C 
ATOM     12  C   UNL     1      -1.912   2.951  25.549  0.00  0.00    +0.034 A 
ATOM     14  C   UNL     1      -0.697   2.396  25.800  0.00  0.00    +0.002 A 
ATOM     15  C   UNL     1      -2.095   3.726  27.884  0.00  0.00    +0.252 A 
ATOM     16  C   UNL     1      -0.145   2.477  27.139  0.00  0.00    +0.015 A 
ATOM     17  C   UNL     1      -0.787   3.083  28.138  0.00  0.00    +0.071 A 
ENDROOT
BRANCH  14  19
ATOM     19  C   UNL     1       0.072   1.698  24.747  0.00  0.00    -0.016 A 
ATOM     22  C   UNL     1      -0.270   0.397  24.389  0.00  0.00    +0.012 A 
ATOM     23  C   UNL     1       1.134   2.345  24.123  0.00  0.00    +0.012 A 
ATOM     26  C   UNL     1       0.457  -0.262  23.398  0.00  0.00    +0.046 A 
ATOM     27  C   UNL     1       1.861   1.686  23.132  0.00  0.00    +0.046 A 
ATOM     29  C   UNL     1       1.522   0.382  22.768  0.00  0.00    +0.120 A 
BRANCH  29   3
ATOM      3  O   UNL     1       2.230  -0.260  21.801  0.00  0.00    -0.495 OA
ATOM     31  C   UNL     1       3.595   0.121  21.633  0.00  0.00    +0.277 C 
ENDBRANCH  29   3
ENDBRANCH  14  19
BRANCH   4  13
ATOM     13  C   UNL     1      -5.482   0.513  24.952  0.00  0.00    +0.119 C 
BRANCH  13  18
ATOM     18  C   UNL     1      -4.691  -0.739  24.681  0.00  0.00    -0.033 A 
ATOM     20  C   UNL     1      -5.019  -1.533  23.591  0.00  0.00    +0.008 A 
ATOM     21  C   UNL     1      -3.644  -1.082  25.526  0.00  0.00    +0.008 A 
ATOM     24  C   UNL     1      -4.287  -2.693  23.340  0.00  0.00    +0.046 A 
ATOM     25  C   UNL     1      -2.911  -2.242  25.275  0.00  0.00    +0.046 A 
ATOM     28  C   UNL     1      -3.232  -3.048  24.183  0.00  0.00    +0.120 A 
BRANCH  28   2
ATOM      2  O   UNL     1      -2.516  -4.180  23.937  0.00  0.00    -0.495 OA
ATOM     30  C   UNL     1      -1.330  -4.040  23.157  0.00  0.00    +0.277 C 
ENDBRANCH  28   2
ENDBRANCH  13  18
ENDBRANCH   4  13
TORSDOF 5
ENDMDL
MODEL 4
REMARK VINA RESULT:       8.6      2.763      5.919
REMARK  Name = 7144252
REMARK  7 active torsions:
REMARK  status: ('A' for Active; 'I' for Inactive)
REMARK    1  A    between atoms: O_2  and  C_28
REMARK    2  A    between atoms: O_2  and  C_30
REMARK    3  A    between atoms: O_3  and  C_29
REMARK    4  A    between atoms: O_3  and  C_31
REMARK    5  A    between atoms: N_4  and  C_13
REMARK    6  A    between atoms: C_13  and  C_18
REMARK    7  A    between atoms: C_14  and  C_19
REMARK                            x       y       z     vdW  Elec       q    Type
REMARK                         _______ _______ _______ _____ _____    ______ ____
ROOT
ATOM      1  O   UNL     1      -0.400  -2.776  25.420  0.00  0.00    -0.268 OA
ATOM      4  N   UNL     1       0.540   2.101  24.989  0.00  0.00    -0.297 NA
ATOM      5  N   UNL     1      -1.007  -0.655  24.631  0.00  0.00    -0.311 N 
ATOM      6  C   UNL     1       0.458   0.634  22.966  0.00  0.00    +0.024 C 
ATOM      7  C   UNL     1      -1.612   1.638  23.801  0.00  0.00    +0.051 C 
ATOM      8  C   UNL     1      -0.855   1.261  22.529  0.00  0.00    +0.017 C 
ATOM      9  C   UNL     1       1.275   1.634  23.809  0.00  0.00    +0.090 C 
ATOM     10  C   UNL     1      -0.773   2.648  24.617  0.00  0.00    +0.094 C 
ATOM     11  C   UNL     1       0.151  -0.658  23.725  0.00  0.00    +0.130 C 
ATOM     12  C   UNL     1      -1.940   0.399  24.641  0.00  0.00    +0.034 A 
ATOM     14  C   UNL     1      -3.069   0.297  25.389  0.00  0.00    +0.002 A 
ATOM     15  C   UNL     1      -1.177  -1.820  25.401  0.00  0.00    +0.252 A 
ATOM     16  C   UNL     1      -3.277  -0.888  26.200  0.00  0.00    +0.015 A 
ATOM     17  C   UNL     1      -2.398  -1.890  26.234  0.00  0.00    +0.071 A 
ENDROOT
BRANCH  14  19
ATOM     19  C   UNL     1      -4.087   1.370  25.413  0.00  0.00    -0.016 A 
ATOM     22  C   UNL     1      -3.720   2.664  25.770  0.00  0.00    +0.012 A 
ATOM     23  C   UNL     1      -5.406   1.078  25.078  0.00  0.00    +0.012 A 
ATOM     26  C   UNL     1      -4.680   3.675  25.794  0.00  0.00    +0.046 A 
ATOM     27  C   UNL     1      -6.366   2.089  25.102  0.00  0.00    +0.046 A 
ATOM     29  C   UNL     1      -6.003   3.389  25.460  0.00  0.00    +0.120 A 
BRANCH  29   3
ATOM      3  O   UNL     1      -6.940   4.375  25.482  0.00  0.00    -0.495 OA
ATOM     31  C   UNL     1      -6.468   5.721  25.415  0.00  0.00    +0.277 C 
ENDBRANCH  29   3
ENDBRANCH  14  19
BRANCH   4  13
ATOM     13  C   UNL     1       1.322   3.082  25.738  0.00  0.00    +0.119 C 
BRANCH  13  18
ATOM     18  C   UNL     1       1.351   2.770  27.211  0.00  0.00    -0.033 A 
ATOM     20  C   UNL     1       0.205   2.290  27.830  0.00  0.00    +0.008 A 
ATOM     21  C   UNL     1       2.522   2.969  27.929  0.00  0.00    +0.008 A 
ATOM     24  C   UNL     1       0.231   2.002  29.195  0.00  0.00    +0.046 A 
ATOM     25  C   UNL     1       2.548   2.681  29.293  0.00  0.00    +0.046 A 
ATOM     28  C   UNL     1       1.404   2.198  29.926  0.00  0.00    +0.120 A 
BRANCH  28   2
ATOM      2  O   UNL     1       1.429   1.915  31.258  0.00  0.00    -0.495 OA
ATOM     30  C   UNL     1       0.330   2.378  32.040  0.00  0.00    +0.277 C 
ENDBRANCH  28   2
ENDBRANCH  13  18
ENDBRANCH   4  13
TORSDOF 5
ENDMDL
