MODEL 1
REMARK VINA RESULT:       6.7      0.000      0.000
REMARK  Name = 25314828
REMARK  8 active torsions:
REMARK  status: ('A' for Active; 'I' for Inactive)
REMARK    1  A    between atoms: O_3  and  C_12
REMARK    2  A    between atoms: O_5  and  C_23
REMARK    3  A    between atoms: O_5  and  C_31
REMARK    4  A    between atoms: N_6  and  C_11
REMARK    5  A    between atoms: N_7  and  C_13
REMARK    6  A    between atoms: N_8  and  C_22
REMARK    7  A    between atoms: N_9  and  C_27
REMARK    8  A    between atoms: C_32  and  C_35
REMARK                            x       y       z     vdW  Elec       q    Type
REMARK                         _______ _______ _______ _____ _____    ______ ____
ROOT
ATOM      1  O   UNL     1      -3.915   3.396  26.690  0.00  0.00    -0.342 OA
ATOM      2  O   UNL     1      -4.814   5.485  26.232  0.00  0.00    -0.347 OA
ATOM     11  C   UNL     1      -4.477   3.934  24.408  0.00  0.00    +0.144 C 
ATOM     12  C   UNL     1      -3.055   4.490  24.169  0.00  0.00    +0.159 C 
ATOM     13  C   UNL     1      -2.108   4.296  25.373  0.00  0.00    +0.136 C 
ATOM     14  C   UNL     1      -4.878   4.092  25.886  0.00  0.00    +0.270 C 
ATOM     15  C   UNL     1      -2.838   4.336  26.732  0.00  0.00    +0.170 C 
ATOM     16  C   UNL     1      -3.602   5.621  26.989  0.00  0.00    +0.196 C 
ENDROOT
BRANCH  13   7
ATOM      4  O   UNL     1      -0.203   3.628  23.341  0.00  0.00    -0.252 OA
ATOM      7  N   UNL     1      -1.384   3.049  25.243  0.00  0.00    -0.291 N 
ATOM      9  N   UNL     1       0.071   1.524  24.345  0.00  0.00    -0.269 N 
ATOM     21  C   UNL     1      -0.469   2.806  24.216  0.00  0.00    +0.304 C 
ATOM     36  H   UNL     1      -1.610   2.293  25.881  0.00  0.00    +0.151 HD
ATOM     38  H   UNL     1      -0.257   0.968  25.130  0.00  0.00    +0.156 HD
BRANCH   9  27
ATOM     27  C   UNL     1       1.028   0.896  23.513  0.00  0.00    +0.036 A 
ATOM     29  C   UNL     1       2.388   1.018  23.797  0.00  0.00    +0.042 A 
ATOM     30  C   UNL     1       0.609   0.155  22.407  0.00  0.00    +0.023 A 
ATOM     32  C   UNL     1       3.330   0.400  22.975  0.00  0.00    +0.054 A 
ATOM     33  C   UNL     1       1.551  -0.463  21.587  0.00  0.00    +0.003 A 
ATOM     34  C   UNL     1       2.912  -0.342  21.870  0.00  0.00    +0.019 A 
BRANCH  32  35
ATOM     10  N   UNL     1       5.855   0.622  23.502  0.00  0.00    -0.191 NA
ATOM     35  C   UNL     1       4.723   0.523  23.266  0.00  0.00    +0.099 C 
ENDBRANCH  32  35
ENDBRANCH   9  27
ENDBRANCH  13   7
BRANCH  11   6
ATOM      6  N   UNL     1      -4.536   2.521  24.027  0.00  0.00    -0.290 NA
ATOM      8  N   UNL     1      -3.767  -0.230  24.086  0.00  0.00    -0.325 N 
ATOM     17  C   UNL     1      -4.853   1.686  25.192  0.00  0.00    +0.104 C 
ATOM     18  C   UNL     1      -3.261   2.094  23.438  0.00  0.00    +0.104 C 
ATOM     19  C   UNL     1      -4.972   0.212  24.795  0.00  0.00    +0.120 C 
ATOM     20  C   UNL     1      -3.328   0.634  22.983  0.00  0.00    +0.120 C 
BRANCH   8  22
ATOM     22  C   UNL     1      -3.465  -1.594  24.014  0.00  0.00    +0.072 A 
ATOM     23  C   UNL     1      -2.206  -2.064  24.389  0.00  0.00    +0.141 A 
ATOM     24  C   UNL     1      -4.436  -2.487  23.561  0.00  0.00    +0.027 A 
ATOM     25  C   UNL     1      -1.919  -3.425  24.311  0.00  0.00    +0.047 A 
ATOM     26  C   UNL     1      -4.149  -3.850  23.484  0.00  0.00    +0.002 A 
ATOM     28  C   UNL     1      -2.890  -4.320  23.859  0.00  0.00    +0.004 A 
BRANCH  23   5
ATOM      5  O   UNL     1      -1.244  -1.207  24.832  0.00  0.00    -0.493 OA
ATOM     31  C   UNL     1      -1.345  -0.765  26.185  0.00  0.00    +0.277 C 
ENDBRANCH  23   5
ENDBRANCH   8  22
ENDBRANCH  11   6
BRANCH  12   3
ATOM      3  O   UNL     1      -3.175   5.893  23.899  0.00  0.00    -0.388 OA
ATOM     37  H   UNL     1      -2.301   6.296  24.044  0.00  0.00    +0.210 HD
ENDBRANCH  12   3
TORSDOF 7
ENDMDL
MODEL 2
REMARK VINA RESULT:       8.9      2.286      7.314
REMARK  Name = 25314828
REMARK  8 active torsions:
REMARK  status: ('A' for Active; 'I' for Inactive)
REMARK    1  A    between atoms: O_3  and  C_12
REMARK    2  A    between atoms: O_5  and  C_23
REMARK    3  A    between atoms: O_5  and  C_31
REMARK    4  A    between atoms: N_6  and  C_11
REMARK    5  A    between atoms: N_7  and  C_13
REMARK    6  A    between atoms: N_8  and  C_22
REMARK    7  A    between atoms: N_9  and  C_27
REMARK    8  A    between atoms: C_32  and  C_35
REMARK                            x       y       z     vdW  Elec       q    Type
REMARK                         _______ _______ _______ _____ _____    ______ ____
ROOT
ATOM      1  O   UNL     1       4.105   0.396  24.629  0.00  0.00    -0.342 OA
ATOM      2  O   UNL     1       5.351   0.848  22.726  0.00  0.00    -0.347 OA
ATOM     11  C   UNL     1       3.042   1.561  22.806  0.00  0.00    +0.144 C 
ATOM     12  C   UNL     1       2.583   0.220  22.190  0.00  0.00    +0.159 C 
ATOM     13  C   UNL     1       2.918  -1.006  23.068  0.00  0.00    +0.136 C 
ATOM     14  C   UNL     1       4.344   1.372  23.606  0.00  0.00    +0.270 C 
ATOM     15  C   UNL     1       4.209  -0.827  23.894  0.00  0.00    +0.170 C 
ATOM     16  C   UNL     1       5.445  -0.545  23.061  0.00  0.00    +0.196 C 
ENDROOT
BRANCH  13   7
ATOM      4  O   UNL     1       0.143  -1.089  22.362  0.00  0.00    -0.252 OA
ATOM      7  N   UNL     1       1.810  -1.305  23.950  0.00  0.00    -0.291 N 
ATOM      9  N   UNL     1      -0.366  -1.641  24.586  0.00  0.00    -0.269 N 
ATOM     21  C   UNL     1       0.481  -1.323  23.520  0.00  0.00    +0.304 C 
ATOM     36  H   UNL     1       2.002  -1.430  24.939  0.00  0.00    +0.151 HD
ATOM     38  H   UNL     1       0.076  -1.808  25.485  0.00  0.00    +0.156 HD
BRANCH   9  27
ATOM     27  C   UNL     1      -1.776  -1.761  24.569  0.00  0.00    +0.036 A 
ATOM     29  C   UNL     1      -2.573  -0.676  24.934  0.00  0.00    +0.042 A 
ATOM     30  C   UNL     1      -2.368  -2.965  24.187  0.00  0.00    +0.023 A 
ATOM     32  C   UNL     1      -3.963  -0.795  24.918  0.00  0.00    +0.054 A 
ATOM     33  C   UNL     1      -3.757  -3.083  24.171  0.00  0.00    +0.003 A 
ATOM     34  C   UNL     1      -4.556  -1.999  24.536  0.00  0.00    +0.019 A 
BRANCH  32  35
ATOM     10  N   UNL     1      -5.445   1.218  25.593  0.00  0.00    -0.191 NA
ATOM     35  C   UNL     1      -4.780   0.316  25.291  0.00  0.00    +0.099 C 
ENDBRANCH  32  35
ENDBRANCH   9  27
ENDBRANCH  13   7
BRANCH  11   6
ATOM      6  N   UNL     1       1.997   2.098  23.679  0.00  0.00    -0.290 NA
ATOM      8  N   UNL     1      -0.657   2.873  24.398  0.00  0.00    -0.325 N 
ATOM     17  C   UNL     1       0.971   1.081  23.939  0.00  0.00    +0.104 C 
ATOM     18  C   UNL     1       1.382   3.286  23.075  0.00  0.00    +0.104 C 
ATOM     19  C   UNL     1      -0.100   1.612  24.897  0.00  0.00    +0.120 C 
ATOM     20  C   UNL     1       0.326   3.890  24.005  0.00  0.00    +0.120 C 
BRANCH   8  22
ATOM     22  C   UNL     1      -1.907   3.307  24.853  0.00  0.00    +0.072 A 
ATOM     23  C   UNL     1      -2.999   3.359  23.987  0.00  0.00    +0.141 A 
ATOM     24  C   UNL     1      -2.055   3.693  26.185  0.00  0.00    +0.027 A 
ATOM     25  C   UNL     1      -4.239   3.794  24.453  0.00  0.00    +0.047 A 
ATOM     26  C   UNL     1      -3.295   4.128  26.652  0.00  0.00    +0.002 A 
ATOM     28  C   UNL     1      -4.388   4.179  25.786  0.00  0.00    +0.004 A 
BRANCH  23   5
ATOM      5  O   UNL     1      -2.875   2.988  22.682  0.00  0.00    -0.493 OA
ATOM     31  C   UNL     1      -2.757   1.591  22.414  0.00  0.00    +0.277 C 
ENDBRANCH  23   5
ENDBRANCH   8  22
ENDBRANCH  11   6
BRANCH  12   3
ATOM      3  O   UNL     1       3.241   0.073  20.925  0.00  0.00    -0.388 OA
ATOM     37  H   UNL     1       2.940  -0.765  20.533  0.00  0.00    +0.210 HD
ENDBRANCH  12   3
TORSDOF 7
ENDMDL
MODEL 3
REMARK VINA RESULT:      10.4      0.901      1.571
REMARK  Name = 25314828
REMARK  8 active torsions:
REMARK  status: ('A' for Active; 'I' for Inactive)
REMARK    1  A    between atoms: O_3  and  C_12
REMARK    2  A    between atoms: O_5  and  C_23
REMARK    3  A    between atoms: O_5  and  C_31
REMARK    4  A    between atoms: N_6  and  C_11
REMARK    5  A    between atoms: N_7  and  C_13
REMARK    6  A    between atoms: N_8  and  C_22
REMARK    7  A    between atoms: N_9  and  C_27
REMARK    8  A    between atoms: C_32  and  C_35
REMARK                            x       y       z     vdW  Elec       q    Type
REMARK                         _______ _______ _______ _____ _____    ______ ____
ROOT
ATOM      1  O   UNL     1      -4.078   3.541  26.707  0.00  0.00    -0.342 OA
ATOM      2  O   UNL     1      -5.266   5.399  25.988  0.00  0.00    -0.347 OA
ATOM     11  C   UNL     1      -4.678   3.694  24.377  0.00  0.00    +0.144 C 
ATOM     12  C   UNL     1      -3.349   4.419  24.063  0.00  0.00    +0.159 C 
ATOM     13  C   UNL     1      -2.403   4.522  25.278  0.00  0.00    +0.136 C 
ATOM     14  C   UNL     1      -5.120   3.979  25.824  0.00  0.00    +0.270 C 
ATOM     15  C   UNL     1      -3.151   4.627  26.624  0.00  0.00    +0.170 C 
ATOM     16  C   UNL     1      -4.098   5.808  26.716  0.00  0.00    +0.196 C 
ENDROOT
BRANCH  13   7
ATOM      4  O   UNL     1      -0.847   3.519  23.093  0.00  0.00    -0.252 OA
ATOM      7  N   UNL     1      -1.502   3.389  25.306  0.00  0.00    -0.291 N 
ATOM      9  N   UNL     1       0.003   1.854  24.512  0.00  0.00    -0.269 N 
ATOM     21  C   UNL     1      -0.779   2.966  24.188  0.00  0.00    +0.304 C 
ATOM     36  H   UNL     1      -1.454   2.833  26.154  0.00  0.00    +0.151 HD
ATOM     38  H   UNL     1      -0.056   1.519  25.470  0.00  0.00    +0.156 HD
BRANCH   9  27
ATOM     27  C   UNL     1       0.875   1.128  23.666  0.00  0.00    +0.036 A 
ATOM     29  C   UNL     1       2.254   1.197  23.861  0.00  0.00    +0.042 A 
ATOM     30  C   UNL     1       0.353   0.344  22.637  0.00  0.00    +0.023 A 
ATOM     32  C   UNL     1       3.113   0.483  23.026  0.00  0.00    +0.054 A 
ATOM     33  C   UNL     1       1.213  -0.371  21.803  0.00  0.00    +0.003 A 
ATOM     34  C   UNL     1       2.593  -0.302  21.998  0.00  0.00    +0.019 A 
BRANCH  32  35
ATOM     10  N   UNL     1       5.674   0.608  23.387  0.00  0.00    -0.191 NA
ATOM     35  C   UNL     1       4.526   0.552  23.226  0.00  0.00    +0.099 C 
ENDBRANCH  32  35
ENDBRANCH   9  27
ENDBRANCH  13   7
BRANCH  11   6
ATOM      6  N   UNL     1      -4.523   2.252  24.180  0.00  0.00    -0.290 NA
ATOM      8  N   UNL     1      -3.190  -0.271  24.321  0.00  0.00    -0.325 N 
ATOM     17  C   UNL     1      -4.355   1.571  25.470  0.00  0.00    +0.104 C 
ATOM     18  C   UNL     1      -3.372   1.971  23.313  0.00  0.00    +0.104 C 
ATOM     19  C   UNL     1      -4.247   0.056  25.282  0.00  0.00    +0.120 C 
ATOM     20  C   UNL     1      -3.234   0.469  23.054  0.00  0.00    +0.120 C 
BRANCH   8  22
ATOM     22  C   UNL     1      -2.628  -1.553  24.315  0.00  0.00    +0.072 A 
ATOM     23  C   UNL     1      -3.396  -2.663  23.964  0.00  0.00    +0.141 A 
ATOM     24  C   UNL     1      -1.288  -1.714  24.667  0.00  0.00    +0.027 A 
ATOM     25  C   UNL     1      -2.824  -3.934  23.965  0.00  0.00    +0.047 A 
ATOM     26  C   UNL     1      -0.716  -2.986  24.667  0.00  0.00    +0.002 A 
ATOM     28  C   UNL     1      -1.484  -4.097  24.316  0.00  0.00    +0.004 A 
BRANCH  23   5
ATOM      5  O   UNL     1      -4.707  -2.526  23.619  0.00  0.00    -0.493 OA
ATOM     31  C   UNL     1      -5.325  -3.637  22.970  0.00  0.00    +0.277 C 
ENDBRANCH  23   5
ENDBRANCH   8  22
ENDBRANCH  11   6
BRANCH  12   3
ATOM      3  O   UNL     1      -3.670   5.743  23.616  0.00  0.00    -0.388 OA
ATOM     37  H   UNL     1      -2.910   6.072  23.104  0.00  0.00    +0.210 HD
ENDBRANCH  12   3
TORSDOF 7
ENDMDL
