MODEL 1
REMARK VINA RESULT:      -4.3      0.000      0.000
REMARK  Name = 75536600
REMARK  9 active torsions:
REMARK  status: ('A' for Active; 'I' for Inactive)
REMARK    1  A    between atoms: O_3  and  C_9
REMARK    2  A    between atoms: O_5  and  C_21
REMARK    3  A    between atoms: O_5  and  C_25
REMARK    4  A    between atoms: N_6  and  C_8
REMARK    5  A    between atoms: N_6  and  C_13
REMARK    6  A    between atoms: N_7  and  C_12
REMARK    7  A    between atoms: C_10  and  C_12
REMARK    8  A    between atoms: C_13  and  C_14
REMARK    9  A    between atoms: C_15  and  C_18
REMARK                            x       y       z     vdW  Elec       q    Type
REMARK                         _______ _______ _______ _____ _____    ______ ____
ROOT
ATOM      2  O   UNL     1      -3.065   4.307  23.758  0.00  0.00    -0.371 OA
ATOM      8  C   UNL     1      -4.549   3.427  25.391  0.00  0.00    +0.111 C 
ATOM      9  C   UNL     1      -3.176   3.606  26.014  0.00  0.00    +0.164 C 
ATOM     10  C   UNL     1      -2.553   4.620  25.064  0.00  0.00    +0.165 C 
ATOM     11  C   UNL     1      -4.212   3.451  23.909  0.00  0.00    +0.181 C 
ENDROOT
BRANCH   9   3
ATOM      3  O   UNL     1      -3.239   4.095  27.340  0.00  0.00    -0.388 OA
ATOM     27  H   UNL     1      -4.132   3.929  27.685  0.00  0.00    +0.210 HD
ENDBRANCH   9   3
BRANCH   8   6
ATOM      6  N   UNL     1      -5.220   2.203  25.799  0.00  0.00    -0.305 NA
ATOM     26  H   UNL     1      -6.158   2.432  26.128  0.00  0.00    +0.123 HD
BRANCH   6  13
ATOM     13  C   UNL     1      -5.325   1.267  24.686  0.00  0.00    +0.116 C 
BRANCH  13  14
ATOM     14  C   UNL     1      -4.287   0.179  24.769  0.00  0.00    -0.033 A 
ATOM     16  C   UNL     1      -3.131   0.374  25.525  0.00  0.00    +0.008 A 
ATOM     17  C   UNL     1      -4.482  -1.024  24.091  0.00  0.00    +0.008 A 
ATOM     19  C   UNL     1      -2.169  -0.633  25.602  0.00  0.00    +0.046 A 
ATOM     20  C   UNL     1      -3.521  -2.032  24.168  0.00  0.00    +0.046 A 
ATOM     21  C   UNL     1      -2.365  -1.837  24.923  0.00  0.00    +0.120 A 
BRANCH  21   5
ATOM      5  O   UNL     1      -1.427  -2.821  24.999  0.00  0.00    -0.495 OA
ATOM     25  C   UNL     1      -0.119  -2.439  25.420  0.00  0.00    +0.277 C 
ENDBRANCH  21   5
ENDBRANCH  13  14
ENDBRANCH   6  13
ENDBRANCH   8   6
BRANCH  10  12
ATOM     12  C   UNL     1      -1.036   4.571  25.046  0.00  0.00    +0.138 C 
BRANCH  12   7
ATOM      4  O   UNL     1       0.496   2.340  26.005  0.00  0.00    -0.270 OA
ATOM      7  N   UNL     1      -0.559   3.462  24.270  0.00  0.00    -0.308 N 
ATOM     15  C   UNL     1       0.180   2.420  24.821  0.00  0.00    +0.251 C 
ATOM     28  H   UNL     1      -0.771   3.469  23.278  0.00  0.00    +0.149 HD
BRANCH  15  18
ATOM      1  S   UNL     1       2.279   1.262  23.452  0.00  0.00    -0.092 S 
ATOM     18  C   UNL     1       0.623   1.360  23.879  0.00  0.00    +0.074 A 
ATOM     22  C   UNL     1      -0.129   0.386  23.259  0.00  0.00    +0.021 A 
ATOM     23  C   UNL     1       0.665  -0.450  22.423  0.00  0.00    +0.008 A 
ATOM     24  C   UNL     1       1.992  -0.085  22.435  0.00  0.00    +0.046 A 
ENDBRANCH  15  18
ENDBRANCH  12   7
ENDBRANCH  10  12
TORSDOF 8
ENDMDL
MODEL 2
REMARK VINA RESULT:      -4.1      2.566      6.305
REMARK  Name = 75536600
REMARK  9 active torsions:
REMARK  status: ('A' for Active; 'I' for Inactive)
REMARK    1  A    between atoms: O_3  and  C_9
REMARK    2  A    between atoms: O_5  and  C_21
REMARK    3  A    between atoms: O_5  and  C_25
REMARK    4  A    between atoms: N_6  and  C_8
REMARK    5  A    between atoms: N_6  and  C_13
REMARK    6  A    between atoms: N_7  and  C_12
REMARK    7  A    between atoms: C_10  and  C_12
REMARK    8  A    between atoms: C_13  and  C_14
REMARK    9  A    between atoms: C_15  and  C_18
REMARK                            x       y       z     vdW  Elec       q    Type
REMARK                         _______ _______ _______ _____ _____    ______ ____
ROOT
ATOM      2  O   UNL     1      -2.484  -3.151  23.661  0.00  0.00    -0.371 OA
ATOM      8  C   UNL     1      -1.124  -2.161  25.338  0.00  0.00    +0.111 C 
ATOM      9  C   UNL     1      -2.476  -1.471  25.325  0.00  0.00    +0.164 C 
ATOM     10  C   UNL     1      -3.335  -2.520  24.633  0.00  0.00    +0.165 C 
ATOM     11  C   UNL     1      -1.116  -2.833  23.974  0.00  0.00    +0.181 C 
ENDROOT
BRANCH   9   3
ATOM      3  O   UNL     1      -2.949  -1.174  26.624  0.00  0.00    -0.388 OA
ATOM     27  H   UNL     1      -2.220  -1.310  27.253  0.00  0.00    +0.210 HD
ENDBRANCH   9   3
BRANCH   8   6
ATOM      6  N   UNL     1      -0.005  -1.252  25.526  0.00  0.00    -0.305 NA
ATOM     26  H   UNL     1       0.849  -1.797  25.654  0.00  0.00    +0.123 HD
BRANCH   6  13
ATOM     13  C   UNL     1       0.161  -0.378  24.371  0.00  0.00    +0.116 C 
BRANCH  13  14
ATOM     14  C   UNL     1      -0.205   1.047  24.691  0.00  0.00    -0.033 A 
ATOM     16  C   UNL     1      -0.158   2.020  23.692  0.00  0.00    +0.008 A 
ATOM     17  C   UNL     1      -0.591   1.394  25.985  0.00  0.00    +0.008 A 
ATOM     19  C   UNL     1      -0.497   3.341  23.989  0.00  0.00    +0.046 A 
ATOM     20  C   UNL     1      -0.930   2.714  26.282  0.00  0.00    +0.046 A 
ATOM     21  C   UNL     1      -0.883   3.687  25.283  0.00  0.00    +0.120 A 
BRANCH  21   5
ATOM      5  O   UNL     1      -1.215   4.976  25.572  0.00  0.00    -0.495 OA
ATOM     25  C   UNL     1      -1.172   5.913  24.498  0.00  0.00    +0.277 C 
ENDBRANCH  21   5
ENDBRANCH  13  14
ENDBRANCH   6  13
ENDBRANCH   8   6
BRANCH  10  12
ATOM     12  C   UNL     1      -4.556  -1.937  23.945  0.00  0.00    +0.138 C 
BRANCH  12   7
ATOM      4  O   UNL     1      -3.256   0.412  22.926  0.00  0.00    -0.270 OA
ATOM      7  N   UNL     1      -4.789  -0.582  24.357  0.00  0.00    -0.308 N 
ATOM     15  C   UNL     1      -4.109   0.500  23.805  0.00  0.00    +0.251 C 
ATOM     28  H   UNL     1      -5.472  -0.435  25.091  0.00  0.00    +0.149 HD
BRANCH  15  18
ATOM      1  S   UNL     1      -5.612   1.954  25.606  0.00  0.00    -0.092 S 
ATOM     18  C   UNL     1      -4.445   1.837  24.358  0.00  0.00    +0.074 A 
ATOM     22  C   UNL     1      -3.938   3.069  24.008  0.00  0.00    +0.021 A 
ATOM     23  C   UNL     1      -4.516   4.122  24.774  0.00  0.00    +0.008 A 
ATOM     24  C   UNL     1      -5.442   3.656  25.680  0.00  0.00    +0.046 A 
ENDBRANCH  15  18
ENDBRANCH  12   7
ENDBRANCH  10  12
TORSDOF 8
ENDMDL
MODEL 3
REMARK VINA RESULT:      -3.9      2.343      3.351
REMARK  Name = 75536600
REMARK  9 active torsions:
REMARK  status: ('A' for Active; 'I' for Inactive)
REMARK    1  A    between atoms: O_3  and  C_9
REMARK    2  A    between atoms: O_5  and  C_21
REMARK    3  A    between atoms: O_5  and  C_25
REMARK    4  A    between atoms: N_6  and  C_8
REMARK    5  A    between atoms: N_6  and  C_13
REMARK    6  A    between atoms: N_7  and  C_12
REMARK    7  A    between atoms: C_10  and  C_12
REMARK    8  A    between atoms: C_13  and  C_14
REMARK    9  A    between atoms: C_15  and  C_18
REMARK                            x       y       z     vdW  Elec       q    Type
REMARK                         _______ _______ _______ _____ _____    ______ ____
ROOT
ATOM      2  O   UNL     1      -0.234   4.131  24.035  0.00  0.00    -0.371 OA
ATOM      8  C   UNL     1      -1.769   3.881  25.831  0.00  0.00    +0.111 C 
ATOM      9  C   UNL     1      -1.337   2.506  25.353  0.00  0.00    +0.164 C 
ATOM     10  C   UNL     1      -0.036   2.841  24.637  0.00  0.00    +0.165 C 
ATOM     11  C   UNL     1      -1.384   4.747  24.642  0.00  0.00    +0.181 C 
ENDROOT
BRANCH   9   3
ATOM      3  O   UNL     1      -1.134   1.598  26.418  0.00  0.00    -0.388 OA
ATOM     27  H   UNL     1      -2.000   1.380  26.803  0.00  0.00    +0.210 HD
ENDBRANCH   9   3
BRANCH   8   6
ATOM      6  N   UNL     1      -3.183   3.968  26.159  0.00  0.00    -0.305 NA
ATOM     26  H   UNL     1      -3.386   4.903  26.513  0.00  0.00    +0.123 HD
BRANCH   6  13
ATOM     13  C   UNL     1      -4.010   3.718  24.985  0.00  0.00    +0.116 C 
BRANCH  13  14
ATOM     14  C   UNL     1      -4.051   2.255  24.630  0.00  0.00    -0.033 A 
ATOM     16  C   UNL     1      -3.407   1.798  23.479  0.00  0.00    +0.008 A 
ATOM     17  C   UNL     1      -4.731   1.357  25.452  0.00  0.00    +0.008 A 
ATOM     19  C   UNL     1      -3.446   0.442  23.151  0.00  0.00    +0.046 A 
ATOM     20  C   UNL     1      -4.769   0.002  25.124  0.00  0.00    +0.046 A 
ATOM     21  C   UNL     1      -4.126  -0.456  23.974  0.00  0.00    +0.120 A 
BRANCH  21   5
ATOM      5  O   UNL     1      -4.162  -1.778  23.654  0.00  0.00    -0.495 OA
ATOM     25  C   UNL     1      -3.505  -2.679  24.544  0.00  0.00    +0.277 C 
ENDBRANCH  21   5
ENDBRANCH  13  14
ENDBRANCH   6  13
ENDBRANCH   8   6
BRANCH  10  12
ATOM     12  C   UNL     1       0.337   1.829  23.568  0.00  0.00    +0.138 C 
BRANCH  12   7
ATOM      4  O   UNL     1       1.660  -0.207  22.035  0.00  0.00    -0.270 OA
ATOM      7  N   UNL     1       1.699   1.398  23.710  0.00  0.00    -0.308 N 
ATOM     15  C   UNL     1       2.259   0.399  22.920  0.00  0.00    +0.251 C 
ATOM     28  H   UNL     1       2.250   1.846  24.434  0.00  0.00    +0.149 HD
BRANCH  15  18
ATOM      1  S   UNL     1       4.042  -1.518  23.794  0.00  0.00    -0.092 S 
ATOM     18  C   UNL     1       3.673   0.049  23.209  0.00  0.00    +0.074 A 
ATOM     22  C   UNL     1       4.801   0.828  23.073  0.00  0.00    +0.021 A 
ATOM     23  C   UNL     1       5.983   0.129  23.455  0.00  0.00    +0.008 A 
ATOM     24  C   UNL     1       5.713  -1.156  23.868  0.00  0.00    +0.046 A 
ENDBRANCH  15  18
ENDBRANCH  12   7
ENDBRANCH  10  12
TORSDOF 8
ENDMDL
MODEL 4
REMARK VINA RESULT:      -3.7      2.243      4.649
REMARK  Name = 75536600
REMARK  9 active torsions:
REMARK  status: ('A' for Active; 'I' for Inactive)
REMARK    1  A    between atoms: O_3  and  C_9
REMARK    2  A    between atoms: O_5  and  C_21
REMARK    3  A    between atoms: O_5  and  C_25
REMARK    4  A    between atoms: N_6  and  C_8
REMARK    5  A    between atoms: N_6  and  C_13
REMARK    6  A    between atoms: N_7  and  C_12
REMARK    7  A    between atoms: C_10  and  C_12
REMARK    8  A    between atoms: C_13  and  C_14
REMARK    9  A    between atoms: C_15  and  C_18
REMARK                            x       y       z     vdW  Elec       q    Type
REMARK                         _______ _______ _______ _____ _____    ______ ____
ROOT
ATOM      2  O   UNL     1      -4.879   3.489  26.775  0.00  0.00    -0.371 OA
ATOM      8  C   UNL     1      -2.966   4.428  25.726  0.00  0.00    +0.111 C 
ATOM      9  C   UNL     1      -3.808   3.720  24.680  0.00  0.00    +0.164 C 
ATOM     10  C   UNL     1      -5.160   3.668  25.377  0.00  0.00    +0.165 C 
ATOM     11  C   UNL     1      -3.496   3.807  27.008  0.00  0.00    +0.181 C 
ENDROOT
BRANCH   9   3
ATOM      3  O   UNL     1      -3.871   4.430  23.458  0.00  0.00    -0.388 OA
ATOM     27  H   UNL     1      -2.970   4.501  23.099  0.00  0.00    +0.210 HD
ENDBRANCH   9   3
BRANCH   8   6
ATOM      6  N   UNL     1      -1.536   4.236  25.553  0.00  0.00    -0.305 NA
ATOM     26  H   UNL     1      -1.041   5.032  25.958  0.00  0.00    +0.123 HD
BRANCH   6  13
ATOM     13  C   UNL     1      -1.087   3.016  26.213  0.00  0.00    +0.116 C 
BRANCH  13  14
ATOM     14  C   UNL     1      -0.442   2.060  25.245  0.00  0.00    -0.033 A 
ATOM     16  C   UNL     1      -0.867   0.733  25.187  0.00  0.00    +0.008 A 
ATOM     17  C   UNL     1       0.580   2.502  24.405  0.00  0.00    +0.008 A 
ATOM     19  C   UNL     1      -0.268  -0.153  24.289  0.00  0.00    +0.046 A 
ATOM     20  C   UNL     1       1.178   1.618  23.508  0.00  0.00    +0.046 A 
ATOM     21  C   UNL     1       0.753   0.290  23.450  0.00  0.00    +0.120 A 
BRANCH  21   5
ATOM      5  O   UNL     1       1.336  -0.573  22.573  0.00  0.00    -0.495 OA
ATOM     25  C   UNL     1       2.563  -0.160  21.974  0.00  0.00    +0.277 C 
ENDBRANCH  21   5
ENDBRANCH  13  14
ENDBRANCH   6  13
ENDBRANCH   8   6
BRANCH  10  12
ATOM     12  C   UNL     1      -6.047   2.539  24.883  0.00  0.00    +0.138 C 
BRANCH  12   7
ATOM      4  O   UNL     1      -3.966   1.223  23.405  0.00  0.00    -0.270 OA
ATOM      7  N   UNL     1      -5.469   1.258  25.173  0.00  0.00    -0.308 N 
ATOM     15  C   UNL     1      -4.460   0.694  24.398  0.00  0.00    +0.251 C 
ATOM     28  H   UNL     1      -5.839   0.756  25.972  0.00  0.00    +0.149 HD
BRANCH  15  18
ATOM      1  S   UNL     1      -4.037  -1.938  23.686  0.00  0.00    -0.092 S 
ATOM     18  C   UNL     1      -3.987  -0.651  24.814  0.00  0.00    +0.074 A 
ATOM     22  C   UNL     1      -3.485  -1.052  26.033  0.00  0.00    +0.021 A 
ATOM     23  C   UNL     1      -3.137  -2.433  26.039  0.00  0.00    +0.008 A 
ATOM     24  C   UNL     1      -3.387  -3.036  24.827  0.00  0.00    +0.046 A 
ENDBRANCH  15  18
ENDBRANCH  12   7
ENDBRANCH  10  12
TORSDOF 8
ENDMDL
MODEL 5
REMARK VINA RESULT:      -3.5      2.144      5.143
REMARK  Name = 75536600
REMARK  9 active torsions:
REMARK  status: ('A' for Active; 'I' for Inactive)
REMARK    1  A    between atoms: O_3  and  C_9
REMARK    2  A    between atoms: O_5  and  C_21
REMARK    3  A    between atoms: O_5  and  C_25
REMARK    4  A    between atoms: N_6  and  C_8
REMARK    5  A    between atoms: N_6  and  C_13
REMARK    6  A    between atoms: N_7  and  C_12
REMARK    7  A    between atoms: C_10  and  C_12
REMARK    8  A    between atoms: C_13  and  C_14
REMARK    9  A    between atoms: C_15  and  C_18
REMARK                            x       y       z     vdW  Elec       q    Type
REMARK                         _______ _______ _______ _____ _____    ______ ____
ROOT
ATOM      2  O   UNL     1      -1.334  -1.027  26.428  0.00  0.00    -0.371 OA
ATOM      8  C   UNL     1      -2.827  -2.552  25.384  0.00  0.00    +0.111 C 
ATOM      9  C   UNL     1      -1.781  -2.112  24.375  0.00  0.00    +0.164 C 
ATOM     10  C   UNL     1      -0.674  -1.618  25.296  0.00  0.00    +0.165 C 
ATOM     11  C   UNL     1      -2.706  -1.461  26.436  0.00  0.00    +0.181 C 
ENDROOT
BRANCH   9   3
ATOM      3  O   UNL     1      -1.344  -3.172  23.546  0.00  0.00    -0.388 OA
ATOM     27  H   UNL     1      -0.679  -2.823  22.930  0.00  0.00    +0.210 HD
ENDBRANCH   9   3
BRANCH   8   6
ATOM      6  N   UNL     1      -4.167  -2.656  24.829  0.00  0.00    -0.305 NA
ATOM     26  H   UNL     1      -4.838  -2.303  25.512  0.00  0.00    +0.123 HD
BRANCH   6  13
ATOM     13  C   UNL     1      -4.288  -1.879  23.602  0.00  0.00    +0.116 C 
BRANCH  13  14
ATOM     14  C   UNL     1      -4.363  -0.401  23.881  0.00  0.00    -0.033 A 
ATOM     16  C   UNL     1      -5.336   0.098  24.749  0.00  0.00    +0.008 A 
ATOM     17  C   UNL     1      -3.460   0.470  23.273  0.00  0.00    +0.008 A 
ATOM     19  C   UNL     1      -5.405   1.467  25.006  0.00  0.00    +0.046 A 
ATOM     20  C   UNL     1      -3.528   1.839  23.531  0.00  0.00    +0.046 A 
ATOM     21  C   UNL     1      -4.500   2.337  24.398  0.00  0.00    +0.120 A 
BRANCH  21   5
ATOM      5  O   UNL     1      -4.567   3.674  24.651  0.00  0.00    -0.495 OA
ATOM     25  C   UNL     1      -5.428   4.091  25.709  0.00  0.00    +0.277 C 
ENDBRANCH  21   5
ENDBRANCH  13  14
ENDBRANCH   6  13
ENDBRANCH   8   6
BRANCH  10  12
ATOM     12  C   UNL     1       0.237  -0.595  24.642  0.00  0.00    +0.138 C 
BRANCH  12   7
ATOM      4  O   UNL     1       1.501   1.840  23.794  0.00  0.00    -0.270 OA
ATOM      7  N   UNL     1      -0.281   0.735  24.788  0.00  0.00    -0.308 N 
ATOM     15  C   UNL     1       0.404   1.863  24.345  0.00  0.00    +0.251 C 
ATOM     28  H   UNL     1      -1.179   0.831  25.249  0.00  0.00    +0.149 HD
BRANCH  15  18
ATOM      1  S   UNL     1      -1.334   3.322  25.916  0.00  0.00    -0.092 S 
ATOM     18  C   UNL     1      -0.256   3.171  24.594  0.00  0.00    +0.074 A 
ATOM     22  C   UNL     1      -0.130   4.349  23.892  0.00  0.00    +0.021 A 
ATOM     23  C   UNL     1      -0.930   5.389  24.447  0.00  0.00    +0.008 A 
ATOM     24  C   UNL     1      -1.637   4.967  25.550  0.00  0.00    +0.046 A 
ENDBRANCH  15  18
ENDBRANCH  12   7
ENDBRANCH  10  12
TORSDOF 8
ENDMDL
MODEL 6
REMARK VINA RESULT:      -3.3      2.381      5.004
REMARK  Name = 75536600
REMARK  9 active torsions:
REMARK  status: ('A' for Active; 'I' for Inactive)
REMARK    1  A    between atoms: O_3  and  C_9
REMARK    2  A    between atoms: O_5  and  C_21
REMARK    3  A    between atoms: O_5  and  C_25
REMARK    4  A    between atoms: N_6  and  C_8
REMARK    5  A    between atoms: N_6  and  C_13
REMARK    6  A    between atoms: N_7  and  C_12
REMARK    7  A    between atoms: C_10  and  C_12
REMARK    8  A    between atoms: C_13  and  C_14
REMARK    9  A    between atoms: C_15  and  C_18
REMARK                            x       y       z     vdW  Elec       q    Type
REMARK                         _______ _______ _______ _____ _____    ______ ____
ROOT
ATOM      2  O   UNL     1      -0.770  -0.411  25.597  0.00  0.00    -0.371 OA
ATOM      8  C   UNL     1      -2.992  -1.234  25.764  0.00  0.00    +0.111 C 
ATOM      9  C   UNL     1      -2.499  -1.425  24.341  0.00  0.00    +0.164 C 
ATOM     10  C   UNL     1      -0.991  -1.363  24.543  0.00  0.00    +0.165 C 
ATOM     11  C   UNL     1      -2.015  -0.191  26.284  0.00  0.00    +0.181 C 
ENDROOT
BRANCH   9   3
ATOM      3  O   UNL     1      -2.906  -2.660  23.784  0.00  0.00    -0.388 OA
ATOM     27  H   UNL     1      -3.789  -2.542  23.394  0.00  0.00    +0.210 HD
ENDBRANCH   9   3
BRANCH   8   6
ATOM      6  N   UNL     1      -4.378  -0.803  25.849  0.00  0.00    -0.305 NA
ATOM     26  H   UNL     1      -4.493  -0.216  26.676  0.00  0.00    +0.123 HD
BRANCH   6  13
ATOM     13  C   UNL     1      -4.762  -0.038  24.670  0.00  0.00    +0.116 C 
BRANCH  13  14
ATOM     14  C   UNL     1      -4.180   1.351  24.689  0.00  0.00    -0.033 A 
ATOM     16  C   UNL     1      -4.654   2.295  25.600  0.00  0.00    +0.008 A 
ATOM     17  C   UNL     1      -3.165   1.693  23.795  0.00  0.00    +0.008 A 
ATOM     19  C   UNL     1      -4.115   3.581  25.616  0.00  0.00    +0.046 A 
ATOM     20  C   UNL     1      -2.625   2.979  23.812  0.00  0.00    +0.046 A 
ATOM     21  C   UNL     1      -3.099   3.923  24.723  0.00  0.00    +0.120 A 
BRANCH  21   5
ATOM      5  O   UNL     1      -2.572   5.178  24.740  0.00  0.00    -0.495 OA
ATOM     25  C   UNL     1      -1.174   5.290  25.005  0.00  0.00    +0.277 C 
ENDBRANCH  21   5
ENDBRANCH  13  14
ENDBRANCH   6  13
ENDBRANCH   8   6
BRANCH  10  12
ATOM     12  C   UNL     1      -0.237  -0.933  23.297  0.00  0.00    +0.138 C 
BRANCH  12   7
ATOM      4  O   UNL     1       1.806  -0.229  21.407  0.00  0.00    -0.270 OA
ATOM      7  N   UNL     1       1.147  -0.686  23.584  0.00  0.00    -0.308 N 
ATOM     15  C   UNL     1       2.072  -0.348  22.600  0.00  0.00    +0.251 C 
ATOM     28  H   UNL     1       1.441  -0.781  24.550  0.00  0.00    +0.149 HD
BRANCH  15  18
ATOM      1  S   UNL     1       4.286  -1.440  23.833  0.00  0.00    -0.092 S 
ATOM     18  C   UNL     1       3.472  -0.150  23.055  0.00  0.00    +0.074 A 
ATOM     22  C   UNL     1       4.266   0.971  22.945  0.00  0.00    +0.021 A 
ATOM     23  C   UNL     1       5.559   0.767  23.506  0.00  0.00    +0.008 A 
ATOM     24  C   UNL     1       5.704  -0.500  24.025  0.00  0.00    +0.046 A 
ENDBRANCH  15  18
ENDBRANCH  12   7
ENDBRANCH  10  12
TORSDOF 8
ENDMDL
MODEL 7
REMARK VINA RESULT:      -2.8      2.421      5.081
REMARK  Name = 75536600
REMARK  9 active torsions:
REMARK  status: ('A' for Active; 'I' for Inactive)
REMARK    1  A    between atoms: O_3  and  C_9
REMARK    2  A    between atoms: O_5  and  C_21
REMARK    3  A    between atoms: O_5  and  C_25
REMARK    4  A    between atoms: N_6  and  C_8
REMARK    5  A    between atoms: N_6  and  C_13
REMARK    6  A    between atoms: N_7  and  C_12
REMARK    7  A    between atoms: C_10  and  C_12
REMARK    8  A    between atoms: C_13  and  C_14
REMARK    9  A    between atoms: C_15  and  C_18
REMARK                            x       y       z     vdW  Elec       q    Type
REMARK                         _______ _______ _______ _____ _____    ______ ____
ROOT
ATOM      2  O   UNL     1      -0.550   0.439  25.700  0.00  0.00    -0.371 OA
ATOM      8  C   UNL     1      -0.934   2.604  24.801  0.00  0.00    +0.111 C 
ATOM      9  C   UNL     1      -0.686   1.632  23.662  0.00  0.00    +0.164 C 
ATOM     10  C   UNL     1      -0.992   0.303  24.339  0.00  0.00    +0.165 C 
ATOM     11  C   UNL     1      -0.360   1.837  25.981  0.00  0.00    +0.181 C 
ENDROOT
BRANCH   9   3
ATOM      3  O   UNL     1      -1.530   1.865  22.551  0.00  0.00    -0.388 OA
ATOM     27  H   UNL     1      -2.128   1.104  22.457  0.00  0.00    +0.210 HD
ENDBRANCH   9   3
BRANCH   8   6
ATOM      6  N   UNL     1      -0.306   3.901  24.609  0.00  0.00    -0.305 NA
ATOM     26  H   UNL     1       0.054   3.959  23.656  0.00  0.00    +0.123 HD
BRANCH   6  13
ATOM     13  C   UNL     1      -1.260   4.983  24.820  0.00  0.00    +0.116 C 
BRANCH  13  14
ATOM     14  C   UNL     1      -2.642   4.461  25.114  0.00  0.00    -0.033 A 
ATOM     16  C   UNL     1      -3.075   4.337  26.434  0.00  0.00    +0.008 A 
ATOM     17  C   UNL     1      -3.489   4.101  24.066  0.00  0.00    +0.008 A 
ATOM     19  C   UNL     1      -4.355   3.853  26.706  0.00  0.00    +0.046 A 
ATOM     20  C   UNL     1      -4.769   3.618  24.337  0.00  0.00    +0.046 A 
ATOM     21  C   UNL     1      -5.202   3.494  25.657  0.00  0.00    +0.120 A 
BRANCH  21   5
ATOM      5  O   UNL     1      -6.452   3.023  25.922  0.00  0.00    -0.495 OA
ATOM     25  C   UNL     1      -6.545   1.728  26.513  0.00  0.00    +0.277 C 
ENDBRANCH  21   5
ENDBRANCH  13  14
ENDBRANCH   6  13
ENDBRANCH   8   6
BRANCH  10  12
ATOM     12  C   UNL     1      -0.292  -0.877  23.687  0.00  0.00    +0.138 C 
BRANCH  12   7
ATOM      4  O   UNL     1       1.645  -0.174  21.688  0.00  0.00    -0.270 OA
ATOM      7  N   UNL     1       1.130  -0.801  23.862  0.00  0.00    -0.308 N 
ATOM     15  C   UNL     1       1.998  -0.450  22.832  0.00  0.00    +0.251 C 
ATOM     28  H   UNL     1       1.494  -1.031  24.780  0.00  0.00    +0.149 HD
BRANCH  15  18
ATOM      1  S   UNL     1       4.389   0.925  22.757  0.00  0.00    -0.092 S 
ATOM     18  C   UNL     1       3.445  -0.443  23.166  0.00  0.00    +0.074 A 
ATOM     22  C   UNL     1       4.192  -1.419  23.790  0.00  0.00    +0.021 A 
ATOM     23  C   UNL     1       5.557  -1.037  23.933  0.00  0.00    +0.008 A 
ATOM     24  C   UNL     1       5.802   0.215  23.413  0.00  0.00    +0.046 A 
ENDBRANCH  15  18
ENDBRANCH  12   7
ENDBRANCH  10  12
TORSDOF 8
ENDMDL
MODEL 8
REMARK VINA RESULT:      -1.9      2.130      3.684
REMARK  Name = 75536600
REMARK  9 active torsions:
REMARK  status: ('A' for Active; 'I' for Inactive)
REMARK    1  A    between atoms: O_3  and  C_9
REMARK    2  A    between atoms: O_5  and  C_21
REMARK    3  A    between atoms: O_5  and  C_25
REMARK    4  A    between atoms: N_6  and  C_8
REMARK    5  A    between atoms: N_6  and  C_13
REMARK    6  A    between atoms: N_7  and  C_12
REMARK    7  A    between atoms: C_10  and  C_12
REMARK    8  A    between atoms: C_13  and  C_14
REMARK    9  A    between atoms: C_15  and  C_18
REMARK                            x       y       z     vdW  Elec       q    Type
REMARK                         _______ _______ _______ _____ _____    ______ ____
ROOT
ATOM      2  O   UNL     1       0.032   4.276  23.646  0.00  0.00    -0.371 OA
ATOM      8  C   UNL     1      -1.439   4.655  25.473  0.00  0.00    +0.111 C 
ATOM      9  C   UNL     1      -0.916   3.231  25.544  0.00  0.00    +0.164 C 
ATOM     10  C   UNL     1       0.340   3.337  24.690  0.00  0.00    +0.165 C 
ATOM     11  C   UNL     1      -1.146   5.010  24.024  0.00  0.00    +0.181 C 
ENDROOT
BRANCH   9   3
ATOM      3  O   UNL     1      -0.622   2.824  26.867  0.00  0.00    -0.388 OA
ATOM     27  H   UNL     1      -0.372   1.885  26.848  0.00  0.00    +0.210 HD
ENDBRANCH   9   3
BRANCH   8   6
ATOM      6  N   UNL     1      -2.847   4.778  25.812  0.00  0.00    -0.305 NA
ATOM     26  H   UNL     1      -3.035   5.735  26.113  0.00  0.00    +0.123 HD
BRANCH   6  13
ATOM     13  C   UNL     1      -3.692   4.470  24.665  0.00  0.00    +0.116 C 
BRANCH  13  14
ATOM     14  C   UNL     1      -4.042   3.007  24.604  0.00  0.00    -0.033 A 
ATOM     16  C   UNL     1      -3.437   2.183  23.654  0.00  0.00    +0.008 A 
ATOM     17  C   UNL     1      -4.971   2.474  25.497  0.00  0.00    +0.008 A 
ATOM     19  C   UNL     1      -3.762   0.827  23.598  0.00  0.00    +0.046 A 
ATOM     20  C   UNL     1      -5.296   1.119  25.442  0.00  0.00    +0.046 A 
ATOM     21  C   UNL     1      -4.691   0.296  24.492  0.00  0.00    +0.120 A 
BRANCH  21   5
ATOM      5  O   UNL     1      -5.006  -1.027  24.438  0.00  0.00    -0.495 OA
ATOM     25  C   UNL     1      -4.552  -1.757  23.300  0.00  0.00    +0.277 C 
ENDBRANCH  21   5
ENDBRANCH  13  14
ENDBRANCH   6  13
ENDBRANCH   8   6
BRANCH  10  12
ATOM     12  C   UNL     1       0.763   2.012  24.080  0.00  0.00    +0.138 C 
BRANCH  12   7
ATOM      4  O   UNL     1       0.886  -0.728  23.231  0.00  0.00    -0.270 OA
ATOM      7  N   UNL     1      -0.099   0.945  24.502  0.00  0.00    -0.308 N 
ATOM     15  C   UNL     1       0.035  -0.359  24.036  0.00  0.00    +0.251 C 
ATOM     28  H   UNL     1      -0.836   1.180  25.158  0.00  0.00    +0.149 HD
BRANCH  15  18
ATOM      1  S   UNL     1      -1.710  -1.056  26.057  0.00  0.00    -0.092 S 
ATOM     18  C   UNL     1      -0.953  -1.344  24.549  0.00  0.00    +0.074 A 
ATOM     22  C   UNL     1      -1.382  -2.519  23.971  0.00  0.00    +0.021 A 
ATOM     23  C   UNL     1      -2.344  -3.191  24.778  0.00  0.00    +0.008 A 
ATOM     24  C   UNL     1      -2.614  -2.505  25.941  0.00  0.00    +0.046 A 
ENDBRANCH  15  18
ENDBRANCH  12   7
ENDBRANCH  10  12
TORSDOF 8
ENDMDL
MODEL 9
REMARK VINA RESULT:      -1.6      2.128      5.301
REMARK  Name = 75536600
REMARK  9 active torsions:
REMARK  status: ('A' for Active; 'I' for Inactive)
REMARK    1  A    between atoms: O_3  and  C_9
REMARK    2  A    between atoms: O_5  and  C_21
REMARK    3  A    between atoms: O_5  and  C_25
REMARK    4  A    between atoms: N_6  and  C_8
REMARK    5  A    between atoms: N_6  and  C_13
REMARK    6  A    between atoms: N_7  and  C_12
REMARK    7  A    between atoms: C_10  and  C_12
REMARK    8  A    between atoms: C_13  and  C_14
REMARK    9  A    between atoms: C_15  and  C_18
REMARK                            x       y       z     vdW  Elec       q    Type
REMARK                         _______ _______ _______ _____ _____    ______ ____
ROOT
ATOM      2  O   UNL     1       0.530  -1.359  24.689  0.00  0.00    -0.371 OA
ATOM      8  C   UNL     1      -1.811  -1.342  24.281  0.00  0.00    +0.111 C 
ATOM      9  C   UNL     1      -1.227  -0.001  23.873  0.00  0.00    +0.164 C 
ATOM     10  C   UNL     1       0.241  -0.363  23.693  0.00  0.00    +0.165 C 
ATOM     11  C   UNL     1      -0.715  -1.884  25.184  0.00  0.00    +0.181 C 
ENDROOT
BRANCH   9   3
ATOM      3  O   UNL     1      -1.797   0.502  22.680  0.00  0.00    -0.388 OA
ATOM     27  H   UNL     1      -1.542   1.436  22.590  0.00  0.00    +0.210 HD
ENDBRANCH   9   3
BRANCH   8   6
ATOM      6  N   UNL     1      -3.097  -1.239  24.951  0.00  0.00    -0.305 NA
ATOM     26  H   UNL     1      -2.999  -0.638  25.770  0.00  0.00    +0.123 HD
BRANCH   6  13
ATOM     13  C   UNL     1      -4.106  -0.671  24.066  0.00  0.00    +0.116 C 
BRANCH  13  14
ATOM     14  C   UNL     1      -4.646   0.631  24.597  0.00  0.00    -0.033 A 
ATOM     16  C   UNL     1      -4.271   1.836  24.002  0.00  0.00    +0.008 A 
ATOM     17  C   UNL     1      -5.521   0.632  25.682  0.00  0.00    +0.008 A 
ATOM     19  C   UNL     1      -4.771   3.042  24.494  0.00  0.00    +0.046 A 
ATOM     20  C   UNL     1      -6.022   1.837  26.174  0.00  0.00    +0.046 A 
ATOM     21  C   UNL     1      -5.647   3.043  25.579  0.00  0.00    +0.120 A 
BRANCH  21   5
ATOM      5  O   UNL     1      -6.137   4.219  26.058  0.00  0.00    -0.495 OA
ATOM     25  C   UNL     1      -6.094   5.344  25.182  0.00  0.00    +0.277 C 
ENDBRANCH  21   5
ENDBRANCH  13  14
ENDBRANCH   6  13
ENDBRANCH   8   6
BRANCH  10  12
ATOM     12  C   UNL     1       1.176   0.821  23.865  0.00  0.00    +0.138 C 
BRANCH  12   7
ATOM      4  O   UNL     1       0.088   1.831  26.323  0.00  0.00    -0.270 OA
ATOM      7  N   UNL     1       0.443   2.043  24.040  0.00  0.00    -0.308 N 
ATOM     15  C   UNL     1      -0.049   2.455  25.274  0.00  0.00    +0.251 C 
ATOM     28  H   UNL     1       0.279   2.604  23.211  0.00  0.00    +0.149 HD
BRANCH  15  18
ATOM      1  S   UNL     1      -2.214   3.858  26.256  0.00  0.00    -0.092 S 
ATOM     18  C   UNL     1      -0.810   3.732  25.284  0.00  0.00    +0.074 A 
ATOM     22  C   UNL     1      -0.550   4.897  24.596  0.00  0.00    +0.021 A 
ATOM     23  C   UNL     1      -1.518   5.906  24.871  0.00  0.00    +0.008 A 
ATOM     24  C   UNL     1      -2.479   5.474  25.757  0.00  0.00    +0.046 A 
ENDBRANCH  15  18
ENDBRANCH  12   7
ENDBRANCH  10  12
TORSDOF 8
ENDMDL
MODEL 10
REMARK VINA RESULT:      -1.5      2.356      5.016
REMARK  Name = 75536600
REMARK  9 active torsions:
REMARK  status: ('A' for Active; 'I' for Inactive)
REMARK    1  A    between atoms: O_3  and  C_9
REMARK    2  A    between atoms: O_5  and  C_21
REMARK    3  A    between atoms: O_5  and  C_25
REMARK    4  A    between atoms: N_6  and  C_8
REMARK    5  A    between atoms: N_6  and  C_13
REMARK    6  A    between atoms: N_7  and  C_12
REMARK    7  A    between atoms: C_10  and  C_12
REMARK    8  A    between atoms: C_13  and  C_14
REMARK    9  A    between atoms: C_15  and  C_18
REMARK                            x       y       z     vdW  Elec       q    Type
REMARK                         _______ _______ _______ _____ _____    ______ ____
ROOT
ATOM      2  O   UNL     1       0.588   2.499  23.108  0.00  0.00    -0.371 OA
ATOM      8  C   UNL     1       0.032   3.863  24.972  0.00  0.00    +0.111 C 
ATOM      9  C   UNL     1       0.244   2.437  25.447  0.00  0.00    +0.164 C 
ATOM     10  C   UNL     1       1.073   1.867  24.304  0.00  0.00    +0.165 C 
ATOM     11  C   UNL     1      -0.184   3.655  23.481  0.00  0.00    +0.181 C 
ENDROOT
BRANCH   9   3
ATOM      3  O   UNL     1       0.929   2.369  26.682  0.00  0.00    -0.388 OA
ATOM     27  H   UNL     1       1.823   2.023  26.516  0.00  0.00    +0.210 HD
ENDBRANCH   9   3
BRANCH   8   6
ATOM      6  N   UNL     1      -1.085   4.534  25.616  0.00  0.00    -0.305 NA
ATOM     26  H   UNL     1      -0.760   5.417  26.011  0.00  0.00    +0.123 HD
BRANCH   6  13
ATOM     13  C   UNL     1      -2.153   4.808  24.663  0.00  0.00    +0.116 C 
BRANCH  13  14
ATOM     14  C   UNL     1      -3.367   3.954  24.922  0.00  0.00    -0.033 A 
ATOM     16  C   UNL     1      -3.877   3.141  23.909  0.00  0.00    +0.008 A 
ATOM     17  C   UNL     1      -3.980   3.976  26.174  0.00  0.00    +0.008 A 
ATOM     19  C   UNL     1      -5.002   2.351  24.149  0.00  0.00    +0.046 A 
ATOM     20  C   UNL     1      -5.103   3.185  26.415  0.00  0.00    +0.046 A 
ATOM     21  C   UNL     1      -5.614   2.373  25.402  0.00  0.00    +0.120 A 
BRANCH  21   5
ATOM      5  O   UNL     1      -6.710   1.600  25.637  0.00  0.00    -0.495 OA
ATOM     25  C   UNL     1      -7.000   1.281  26.997  0.00  0.00    +0.277 C 
ENDBRANCH  21   5
ENDBRANCH  13  14
ENDBRANCH   6  13
ENDBRANCH   8   6
BRANCH  10  12
ATOM     12  C   UNL     1       0.955   0.359  24.172  0.00  0.00    +0.138 C 
BRANCH  12   7
ATOM      4  O   UNL     1      -0.383  -1.712  25.643  0.00  0.00    -0.270 OA
ATOM      7  N   UNL     1      -0.414  -0.046  24.027  0.00  0.00    -0.308 N 
ATOM     15  C   UNL     1      -0.981  -1.065  24.787  0.00  0.00    +0.251 C 
ATOM     28  H   UNL     1      -0.965   0.436  23.326  0.00  0.00    +0.149 HD
BRANCH  15  18
ATOM      1  S   UNL     1      -2.848  -3.009  24.189  0.00  0.00    -0.092 S 
ATOM     18  C   UNL     1      -2.403  -1.384  24.499  0.00  0.00    +0.074 A 
ATOM     22  C   UNL     1      -3.484  -0.532  24.438  0.00  0.00    +0.021 A 
ATOM     23  C   UNL     1      -4.692  -1.223  24.133  0.00  0.00    +0.008 A 
ATOM     24  C   UNL     1      -4.489  -2.575  23.972  0.00  0.00    +0.046 A 
ENDBRANCH  15  18
ENDBRANCH  12   7
ENDBRANCH  10  12
TORSDOF 8
ENDMDL
