MODEL 1
REMARK VINA RESULT:       8.6      0.000      0.000
REMARK  Name = 40779229
REMARK  14 active torsions:
REMARK  status: ('A' for Active; 'I' for Inactive)
REMARK    1  A    between atoms: S_1  and  N_8
REMARK    2  A    between atoms: S_1  and  C_24
REMARK    3  A    between atoms: O_4  and  C_27
REMARK    4  A    between atoms: O_4  and  C_35
REMARK    5  A    between atoms: O_5  and  C_31
REMARK    6  A    between atoms: O_5  and  C_38
REMARK    7  A    between atoms: N_7  and  C_22
REMARK    8  A    between atoms: N_8  and  C_18
REMARK    9  A    between atoms: N_10  and  C_33
REMARK   10  A    between atoms: N_10  and  C_36
REMARK   11  A    between atoms: N_10  and  C_37
REMARK   12  A    between atoms: C_12  and  C_19
REMARK   13  A    between atoms: C_13  and  C_18
REMARK   14  A    between atoms: C_21  and  C_23
REMARK                            x       y       z     vdW  Elec       q    Type
REMARK                         _______ _______ _______ _____ _____    ______ ____
ROOT
ATOM      6  N   UNL     1      -4.002  -0.454  25.602  0.00  0.00    -0.297 NA
ATOM     11  C   UNL     1      -2.734  -2.030  23.962  0.00  0.00    +0.002 C 
ATOM     12  C   UNL     1      -1.737  -1.346  24.939  0.00  0.00    +0.055 C 
ATOM     13  C   UNL     1      -4.417  -0.171  24.204  0.00  0.00    +0.072 C 
ATOM     14  C   UNL     1      -3.531  -0.946  23.205  0.00  0.00    +0.024 C 
ATOM     15  C   UNL     1      -3.743  -2.811  24.830  0.00  0.00    +0.019 C 
ATOM     16  C   UNL     1      -2.535  -0.280  25.743  0.00  0.00    +0.094 C 
ATOM     17  C   UNL     1      -4.330  -1.870  25.896  0.00  0.00    +0.085 C 
ENDROOT
BRANCH  12  19
ATOM      7  N   UNL     1      -0.389   0.333  23.597  0.00  0.00    -0.270 N 
ATOM      9  N   UNL     1       0.852   0.660  23.195  0.00  0.00    -0.171 NA
ATOM     19  C   UNL     1      -0.440  -0.789  24.370  0.00  0.00    +0.044 A 
ATOM     20  C   UNL     1       0.857  -1.227  24.483  0.00  0.00    +0.053 A 
ATOM     21  C   UNL     1       1.608  -0.297  23.739  0.00  0.00    +0.093 A 
ATOM     22  C   UNL     1      -1.503   1.159  23.191  0.00  0.00    +0.172 C 
BRANCH  21  23
ATOM     23  C   UNL     1       3.034  -0.307  23.537  0.00  0.00    +0.002 A 
ATOM     25  C   UNL     1       3.667   0.804  22.983  0.00  0.00    +0.012 A 
ATOM     26  C   UNL     1       3.781  -1.429  23.899  0.00  0.00    +0.012 A 
ATOM     29  C   UNL     1       5.049   0.795  22.789  0.00  0.00    +0.024 A 
ATOM     30  C   UNL     1       5.162  -1.438  23.705  0.00  0.00    +0.024 A 
ATOM     33  C   UNL     1       5.796  -0.326  23.150  0.00  0.00    +0.029 A 
BRANCH  33  10
ATOM     10  N   UNL     1       7.192  -0.336  22.954  0.00  0.00    -0.336 N 
ATOM     36  C   UNL     1       8.025   0.686  23.557  0.00  0.00    +0.129 C 
ATOM     37  C   UNL     1       7.815  -1.371  22.153  0.00  0.00    +0.129 C 
ENDBRANCH  33  10
ENDBRANCH  21  23
ENDBRANCH  12  19
BRANCH  13  18
ATOM     18  C   UNL     1      -4.447   1.328  23.897  0.00  0.00    +0.124 C 
BRANCH  18   8
ATOM      8  N   UNL     1      -5.599   1.939  24.580  0.00  0.00    -0.188 NA
ATOM     39  H   UNL     1      -6.545   1.709  24.254  0.00  0.00    +0.148 HD
BRANCH   8   1
ATOM      1  S   UNL     1      -5.360   3.185  25.716  0.00  0.00    +0.062 S 
ATOM      2  O   UNL     1      -5.510   2.647  27.054  0.00  0.00    -0.153 OA
ATOM      3  O   UNL     1      -6.120   4.351  25.308  0.00  0.00    -0.153 OA
BRANCH   1  24
ATOM     24  C   UNL     1      -3.652   3.571  25.472  0.00  0.00    +0.150 A 
ATOM     27  C   UNL     1      -3.231   4.271  24.341  0.00  0.00    +0.147 A 
ATOM     28  C   UNL     1      -2.721   3.165  26.428  0.00  0.00    +0.077 A 
ATOM     31  C   UNL     1      -1.369   3.460  26.253  0.00  0.00    +0.122 A 
ATOM     32  C   UNL     1      -1.879   4.564  24.166  0.00  0.00    +0.051 A 
ATOM     34  C   UNL     1      -0.948   4.159  25.122  0.00  0.00    +0.049 A 
BRANCH  27   4
ATOM      4  O   UNL     1      -4.121   4.676  23.393  0.00  0.00    -0.493 OA
ATOM     35  C   UNL     1      -4.062   4.024  22.127  0.00  0.00    +0.277 C 
ENDBRANCH  27   4
BRANCH  31   5
ATOM      5  O   UNL     1      -0.460   3.063  27.186  0.00  0.00    -0.495 OA
ATOM     38  C   UNL     1       0.646   2.286  26.727  0.00  0.00    +0.277 C 
ENDBRANCH  31   5
ENDBRANCH   1  24
ENDBRANCH   8   1
ENDBRANCH  18   8
ENDBRANCH  13  18
TORSDOF 9
ENDMDL
MODEL 2
REMARK VINA RESULT:       9.3      2.022      3.444
REMARK  Name = 40779229
REMARK  14 active torsions:
REMARK  status: ('A' for Active; 'I' for Inactive)
REMARK    1  A    between atoms: S_1  and  N_8
REMARK    2  A    between atoms: S_1  and  C_24
REMARK    3  A    between atoms: O_4  and  C_27
REMARK    4  A    between atoms: O_4  and  C_35
REMARK    5  A    between atoms: O_5  and  C_31
REMARK    6  A    between atoms: O_5  and  C_38
REMARK    7  A    between atoms: N_7  and  C_22
REMARK    8  A    between atoms: N_8  and  C_18
REMARK    9  A    between atoms: N_10  and  C_33
REMARK   10  A    between atoms: N_10  and  C_36
REMARK   11  A    between atoms: N_10  and  C_37
REMARK   12  A    between atoms: C_12  and  C_19
REMARK   13  A    between atoms: C_13  and  C_18
REMARK   14  A    between atoms: C_21  and  C_23
REMARK                            x       y       z     vdW  Elec       q    Type
REMARK                         _______ _______ _______ _____ _____    ______ ____
ROOT
ATOM      6  N   UNL     1      -5.694   1.872  26.532  0.00  0.00    -0.297 NA
ATOM     11  C   UNL     1      -5.326   1.396  23.998  0.00  0.00    +0.002 C 
ATOM     12  C   UNL     1      -4.820   0.202  24.854  0.00  0.00    +0.055 C 
ATOM     13  C   UNL     1      -5.015   3.028  25.892  0.00  0.00    +0.072 C 
ATOM     14  C   UNL     1      -4.603   2.685  24.444  0.00  0.00    +0.024 C 
ATOM     15  C   UNL     1      -6.823   1.578  24.328  0.00  0.00    +0.019 C 
ATOM     16  C   UNL     1      -4.886   0.640  26.345  0.00  0.00    +0.094 C 
ATOM     17  C   UNL     1      -6.998   1.677  25.853  0.00  0.00    +0.085 C 
ENDROOT
BRANCH  12  19
ATOM      7  N   UNL     1      -3.344  -1.734  24.138  0.00  0.00    -0.270 N 
ATOM      9  N   UNL     1      -2.078  -2.091  23.860  0.00  0.00    -0.171 NA
ATOM     19  C   UNL     1      -3.480  -0.425  24.496  0.00  0.00    +0.044 A 
ATOM     20  C   UNL     1      -2.217   0.112  24.447  0.00  0.00    +0.053 A 
ATOM     21  C   UNL     1      -1.394  -0.960  24.051  0.00  0.00    +0.093 A 
ATOM     22  C   UNL     1      -4.394  -2.721  24.041  0.00  0.00    +0.172 C 
BRANCH  21  23
ATOM     23  C   UNL     1       0.031  -0.923  23.852  0.00  0.00    +0.002 A 
ATOM     25  C   UNL     1       0.573  -0.145  22.831  0.00  0.00    +0.012 A 
ATOM     26  C   UNL     1       0.869  -1.666  24.684  0.00  0.00    +0.012 A 
ATOM     29  C   UNL     1       1.955  -0.108  22.640  0.00  0.00    +0.024 A 
ATOM     30  C   UNL     1       2.251  -1.630  24.493  0.00  0.00    +0.024 A 
ATOM     33  C   UNL     1       2.794  -0.852  23.470  0.00  0.00    +0.029 A 
BRANCH  33  10
ATOM     10  N   UNL     1       4.190  -0.815  23.277  0.00  0.00    -0.336 N 
ATOM     36  C   UNL     1       4.808   0.308  22.601  0.00  0.00    +0.129 C 
ATOM     37  C   UNL     1       5.026  -1.896  23.759  0.00  0.00    +0.129 C 
ENDBRANCH  33  10
ENDBRANCH  21  23
ENDBRANCH  12  19
BRANCH  13  18
ATOM     18  C   UNL     1      -3.831   3.539  26.716  0.00  0.00    +0.124 C 
BRANCH  18   8
ATOM      8  N   UNL     1      -3.498   4.907  26.289  0.00  0.00    -0.188 NA
ATOM     39  H   UNL     1      -4.046   5.689  26.665  0.00  0.00    +0.148 HD
BRANCH   8   1
ATOM      1  S   UNL     1      -2.397   5.164  25.015  0.00  0.00    +0.062 S 
ATOM      2  O   UNL     1      -1.740   6.443  25.201  0.00  0.00    -0.153 OA
ATOM      3  O   UNL     1      -3.046   4.853  23.756  0.00  0.00    -0.153 OA
BRANCH   1  24
ATOM     24  C   UNL     1      -1.205   3.891  25.309  0.00  0.00    +0.150 A 
ATOM     27  C   UNL     1      -0.672   3.152  24.253  0.00  0.00    +0.147 A 
ATOM     28  C   UNL     1      -0.799   3.631  26.618  0.00  0.00    +0.077 A 
ATOM     31  C   UNL     1       0.141   2.631  26.870  0.00  0.00    +0.122 A 
ATOM     32  C   UNL     1       0.265   2.151  24.506  0.00  0.00    +0.051 A 
ATOM     34  C   UNL     1       0.672   1.890  25.814  0.00  0.00    +0.049 A 
BRANCH  27   4
ATOM      4  O   UNL     1      -1.055   3.387  22.967  0.00  0.00    -0.493 OA
ATOM     35  C   UNL     1      -1.860   2.393  22.338  0.00  0.00    +0.277 C 
ENDBRANCH  27   4
BRANCH  31   5
ATOM      5  O   UNL     1       0.537   2.376  28.148  0.00  0.00    -0.495 OA
ATOM     38  C   UNL     1       1.862   2.766  28.507  0.00  0.00    +0.277 C 
ENDBRANCH  31   5
ENDBRANCH   1  24
ENDBRANCH   8   1
ENDBRANCH  18   8
ENDBRANCH  13  18
TORSDOF 9
ENDMDL
MODEL 3
REMARK VINA RESULT:       9.6      2.340      4.552
REMARK  Name = 40779229
REMARK  14 active torsions:
REMARK  status: ('A' for Active; 'I' for Inactive)
REMARK    1  A    between atoms: S_1  and  N_8
REMARK    2  A    between atoms: S_1  and  C_24
REMARK    3  A    between atoms: O_4  and  C_27
REMARK    4  A    between atoms: O_4  and  C_35
REMARK    5  A    between atoms: O_5  and  C_31
REMARK    6  A    between atoms: O_5  and  C_38
REMARK    7  A    between atoms: N_7  and  C_22
REMARK    8  A    between atoms: N_8  and  C_18
REMARK    9  A    between atoms: N_10  and  C_33
REMARK   10  A    between atoms: N_10  and  C_36
REMARK   11  A    between atoms: N_10  and  C_37
REMARK   12  A    between atoms: C_12  and  C_19
REMARK   13  A    between atoms: C_13  and  C_18
REMARK   14  A    between atoms: C_21  and  C_23
REMARK                            x       y       z     vdW  Elec       q    Type
REMARK                         _______ _______ _______ _____ _____    ______ ____
ROOT
ATOM      6  N   UNL     1      -5.479   3.746  24.685  0.00  0.00    -0.297 NA
ATOM     11  C   UNL     1      -3.199   3.768  25.945  0.00  0.00    +0.002 C 
ATOM     12  C   UNL     1      -2.972   3.823  24.409  0.00  0.00    +0.055 C 
ATOM     13  C   UNL     1      -5.440   2.647  25.685  0.00  0.00    +0.072 C 
ATOM     14  C   UNL     1      -4.028   2.513  26.294  0.00  0.00    +0.024 C 
ATOM     15  C   UNL     1      -4.060   4.996  26.311  0.00  0.00    +0.019 C 
ATOM     16  C   UNL     1      -4.353   3.604  23.728  0.00  0.00    +0.094 C 
ATOM     17  C   UNL     1      -5.308   5.028  25.412  0.00  0.00    +0.085 C 
ENDROOT
BRANCH  12  19
ATOM      7  N   UNL     1      -2.005   2.340  22.591  0.00  0.00    -0.270 N 
ATOM      9  N   UNL     1      -0.937   1.601  22.243  0.00  0.00    -0.171 NA
ATOM     19  C   UNL     1      -1.887   2.939  23.810  0.00  0.00    +0.044 A 
ATOM     20  C   UNL     1      -0.656   2.568  24.293  0.00  0.00    +0.053 A 
ATOM     21  C   UNL     1      -0.116   1.744  23.287  0.00  0.00    +0.093 A 
ATOM     22  C   UNL     1      -3.129   2.425  21.687  0.00  0.00    +0.172 C 
BRANCH  21  23
ATOM     23  C   UNL     1       1.166   1.091  23.305  0.00  0.00    +0.002 A 
ATOM     25  C   UNL     1       2.335   1.846  23.228  0.00  0.00    +0.012 A 
ATOM     26  C   UNL     1       1.239  -0.300  23.401  0.00  0.00    +0.012 A 
ATOM     29  C   UNL     1       3.578   1.213  23.247  0.00  0.00    +0.024 A 
ATOM     30  C   UNL     1       2.481  -0.933  23.420  0.00  0.00    +0.024 A 
ATOM     33  C   UNL     1       3.651  -0.177  23.342  0.00  0.00    +0.029 A 
BRANCH  33  10
ATOM     10  N   UNL     1       4.907  -0.817  23.361  0.00  0.00    -0.336 N 
ATOM     36  C   UNL     1       5.016  -2.208  23.750  0.00  0.00    +0.129 C 
ATOM     37  C   UNL     1       6.106  -0.094  22.985  0.00  0.00    +0.129 C 
ENDBRANCH  33  10
ENDBRANCH  21  23
ENDBRANCH  12  19
BRANCH  13  18
ATOM     18  C   UNL     1      -5.942   1.320  25.111  0.00  0.00    +0.124 C 
BRANCH  18   8
ATOM      8  N   UNL     1      -4.982   0.255  25.444  0.00  0.00    -0.188 NA
ATOM     39  H   UNL     1      -4.646   0.178  26.410  0.00  0.00    +0.148 HD
BRANCH   8   1
ATOM      1  S   UNL     1      -4.261  -0.666  24.206  0.00  0.00    +0.062 S 
ATOM      2  O   UNL     1      -4.046   0.177  23.046  0.00  0.00    -0.153 OA
ATOM      3  O   UNL     1      -4.972  -1.923  24.073  0.00  0.00    -0.153 OA
BRANCH   1  24
ATOM     24  C   UNL     1      -2.682  -1.038  24.909  0.00  0.00    +0.150 A 
ATOM     27  C   UNL     1      -2.022  -2.227  24.599  0.00  0.00    +0.147 A 
ATOM     28  C   UNL     1      -2.096  -0.124  25.785  0.00  0.00    +0.077 A 
ATOM     31  C   UNL     1      -0.851  -0.399  26.350  0.00  0.00    +0.122 A 
ATOM     32  C   UNL     1      -0.778  -2.503  25.165  0.00  0.00    +0.051 A 
ATOM     34  C   UNL     1      -0.192  -1.589  26.040  0.00  0.00    +0.049 A 
BRANCH  27   4
ATOM      4  O   UNL     1      -2.575  -3.135  23.747  0.00  0.00    -0.493 OA
ATOM     35  C   UNL     1      -1.679  -3.997  23.049  0.00  0.00    +0.277 C 
ENDBRANCH  27   4
BRANCH  31   5
ATOM      5  O   UNL     1      -0.279   0.493  27.206  0.00  0.00    -0.495 OA
ATOM     38  C   UNL     1      -0.177   1.845  26.762  0.00  0.00    +0.277 C 
ENDBRANCH  31   5
ENDBRANCH   1  24
ENDBRANCH   8   1
ENDBRANCH  18   8
ENDBRANCH  13  18
TORSDOF 9
ENDMDL
