MODEL 1
REMARK VINA RESULT:      -5.4      0.000      0.000
REMARK  Name = 75536898
REMARK  4 active torsions:
REMARK  status: ('A' for Active; 'I' for Inactive)
REMARK    1  A    between atoms: O_2  and  C_9
REMARK    2  A    between atoms: O_2  and  C_16
REMARK    3  A    between atoms: C_14  and  C_15
REMARK    4  A    between atoms: C_18  and  C_20
REMARK                            x       y       z     vdW  Elec       q    Type
REMARK                         _______ _______ _______ _____ _____    ______ ____
ROOT
ATOM      1  O   UNL     1      -1.488   5.362  25.090  0.00  0.00    -0.375 OA
ATOM      3  O   UNL     1      -5.393   2.532  24.867  0.00  0.00    -0.268 OA
ATOM      5  N   UNL     1      -3.181   2.775  25.603  0.00  0.00    -0.290 N 
ATOM      9  C   UNL     1      -0.673   3.189  25.843  0.00  0.00    +0.218 C 
ATOM     10  C   UNL     1      -1.838   2.199  25.747  0.00  0.00    +0.155 C 
ATOM     11  C   UNL     1      -3.396   4.156  26.038  0.00  0.00    +0.136 C 
ATOM     12  C   UNL     1      -0.685   4.240  24.736  0.00  0.00    +0.206 C 
ATOM     13  C   UNL     1      -2.891   5.144  24.994  0.00  0.00    +0.179 C 
ATOM     14  C   UNL     1      -4.261   2.078  25.035  0.00  0.00    +0.268 C 
ENDROOT
BRANCH  14  15
ATOM      4  O   UNL     1      -3.638  -0.954  23.255  0.00  0.00    -0.359 OA
ATOM      6  N   UNL     1      -3.784   0.426  23.316  0.00  0.00    -0.073 NA
ATOM     15  C   UNL     1      -4.044   0.690  24.600  0.00  0.00    +0.168 A 
ATOM     17  C   UNL     1      -4.074  -0.473  25.389  0.00  0.00    +0.080 A 
ATOM     18  C   UNL     1      -3.812  -1.479  24.496  0.00  0.00    +0.135 A 
ATOM     20  C   UNL     1      -3.690  -2.936  24.615  0.00  0.00    +0.089 C 
ENDBRANCH  14  15
BRANCH   9   2
ATOM      2  O   UNL     1       0.528   2.422  25.743  0.00  0.00    -0.468 OA
BRANCH   2  16
ATOM      7  N   UNL     1       1.428   1.498  23.810  0.00  0.00    -0.219 NA
ATOM      8  N   UNL     1      -0.370  -0.643  24.031  0.00  0.00    -0.256 NA
ATOM     16  C   UNL     1       0.536   1.417  24.817  0.00  0.00    +0.234 A 
ATOM     19  C   UNL     1      -0.348   0.366  24.925  0.00  0.00    +0.177 A 
ATOM     21  C   UNL     1       1.406   0.490  22.916  0.00  0.00    +0.134 A 
ATOM     22  C   UNL     1       0.522  -0.562  23.025  0.00  0.00    +0.130 A 
ENDBRANCH   2  16
ENDBRANCH   9   2
TORSDOF 3
ENDMDL
MODEL 2
REMARK VINA RESULT:      -5.3      1.761      6.018
REMARK  Name = 75536898
REMARK  4 active torsions:
REMARK  status: ('A' for Active; 'I' for Inactive)
REMARK    1  A    between atoms: O_2  and  C_9
REMARK    2  A    between atoms: O_2  and  C_16
REMARK    3  A    between atoms: C_14  and  C_15
REMARK    4  A    between atoms: C_18  and  C_20
REMARK                            x       y       z     vdW  Elec       q    Type
REMARK                         _______ _______ _______ _____ _____    ______ ____
ROOT
ATOM      1  O   UNL     1      -3.697  -2.873  24.067  0.00  0.00    -0.375 OA
ATOM      3  O   UNL     1       0.497  -0.552  24.635  0.00  0.00    -0.268 OA
ATOM      5  N   UNL     1      -1.794  -0.617  25.122  0.00  0.00    -0.290 N 
ATOM      9  C   UNL     1      -4.344  -0.744  25.068  0.00  0.00    +0.218 C 
ATOM     10  C   UNL     1      -3.073   0.096  25.230  0.00  0.00    +0.155 C 
ATOM     11  C   UNL     1      -1.781  -2.062  25.357  0.00  0.00    +0.136 C 
ATOM     12  C   UNL     1      -4.328  -1.621  23.818  0.00  0.00    +0.206 C 
ATOM     13  C   UNL     1      -2.277  -2.821  24.133  0.00  0.00    +0.179 C 
ATOM     14  C   UNL     1      -0.589   0.012  24.768  0.00  0.00    +0.268 C 
ENDROOT
BRANCH  14  15
ATOM      4  O   UNL     1      -0.519   3.322  23.429  0.00  0.00    -0.359 OA
ATOM      6  N   UNL     1      -0.463   1.940  23.292  0.00  0.00    -0.073 NA
ATOM     15  C   UNL     1      -0.602   1.464  24.532  0.00  0.00    +0.168 A 
ATOM     17  C   UNL     1      -0.749   2.487  25.485  0.00  0.00    +0.080 A 
ATOM     18  C   UNL     1      -0.690   3.636  24.739  0.00  0.00    +0.135 A 
ATOM     20  C   UNL     1      -0.771   5.064  25.066  0.00  0.00    +0.089 C 
ENDBRANCH  14  15
BRANCH   9   2
ATOM      2  O   UNL     1      -5.434   0.174  24.978  0.00  0.00    -0.468 OA
BRANCH   2  16
ATOM      7  N   UNL     1      -4.320   1.942  23.960  0.00  0.00    -0.219 NA
ATOM      8  N   UNL     1      -5.303   3.665  25.944  0.00  0.00    -0.256 NA
ATOM     16  C   UNL     1      -5.115   1.503  24.957  0.00  0.00    +0.234 A 
ATOM     19  C   UNL     1      -5.597   2.349  25.931  0.00  0.00    +0.177 A 
ATOM     21  C   UNL     1      -4.026   3.257  23.972  0.00  0.00    +0.134 A 
ATOM     22  C   UNL     1      -4.509   4.103  24.947  0.00  0.00    +0.130 A 
ENDBRANCH   2  16
ENDBRANCH   9   2
TORSDOF 3
ENDMDL
MODEL 3
REMARK VINA RESULT:      -4.9      1.957      4.916
REMARK  Name = 75536898
REMARK  4 active torsions:
REMARK  status: ('A' for Active; 'I' for Inactive)
REMARK    1  A    between atoms: O_2  and  C_9
REMARK    2  A    between atoms: O_2  and  C_16
REMARK    3  A    between atoms: C_14  and  C_15
REMARK    4  A    between atoms: C_18  and  C_20
REMARK                            x       y       z     vdW  Elec       q    Type
REMARK                         _______ _______ _______ _____ _____    ______ ____
ROOT
ATOM      1  O   UNL     1       0.994  -0.453  23.167  0.00  0.00    -0.375 OA
ATOM      3  O   UNL     1      -0.301   4.134  23.931  0.00  0.00    -0.268 OA
ATOM      5  N   UNL     1      -0.204   1.951  24.780  0.00  0.00    -0.290 N 
ATOM      9  C   UNL     1      -0.359  -0.563  25.194  0.00  0.00    +0.218 C 
ATOM     10  C   UNL     1      -0.873   0.851  25.485  0.00  0.00    +0.155 C 
ATOM     11  C   UNL     1       1.148   1.729  24.265  0.00  0.00    +0.136 C 
ATOM     12  C   UNL     1      -0.258  -0.870  23.701  0.00  0.00    +0.206 C 
ATOM     13  C   UNL     1       1.115   0.949  22.957  0.00  0.00    +0.179 C 
ATOM     14  C   UNL     1      -0.812   3.196  24.543  0.00  0.00    +0.268 C 
ENDROOT
BRANCH  14  15
ATOM      4  O   UNL     1      -3.728   4.177  26.357  0.00  0.00    -0.359 OA
ATOM      6  N   UNL     1      -2.354   4.177  26.147  0.00  0.00    -0.073 NA
ATOM     15  C   UNL     1      -2.170   3.420  25.062  0.00  0.00    +0.168 A 
ATOM     17  C   UNL     1      -3.379   2.920  24.547  0.00  0.00    +0.080 A 
ATOM     18  C   UNL     1      -4.328   3.425  25.398  0.00  0.00    +0.135 A 
ATOM     20  C   UNL     1      -5.789   3.317  25.468  0.00  0.00    +0.089 C 
ENDBRANCH  14  15
BRANCH   9   2
ATOM      2  O   UNL     1      -1.287  -1.469  25.793  0.00  0.00    -0.468 OA
BRANCH   2  16
ATOM      7  N   UNL     1      -3.294  -0.651  24.954  0.00  0.00    -0.219 NA
ATOM      8  N   UNL     1      -3.875  -3.200  23.938  0.00  0.00    -0.256 NA
ATOM     16  C   UNL     1      -2.451  -1.691  25.112  0.00  0.00    +0.234 A 
ATOM     19  C   UNL     1      -2.737  -2.942  24.614  0.00  0.00    +0.177 A 
ATOM     21  C   UNL     1      -4.432  -0.907  24.279  0.00  0.00    +0.134 A 
ATOM     22  C   UNL     1      -4.717  -2.160  23.780  0.00  0.00    +0.130 A 
ENDBRANCH   2  16
ENDBRANCH   9   2
TORSDOF 3
ENDMDL
MODEL 4
REMARK VINA RESULT:      -4.8      1.635      4.423
REMARK  Name = 75536898
REMARK  4 active torsions:
REMARK  status: ('A' for Active; 'I' for Inactive)
REMARK    1  A    between atoms: O_2  and  C_9
REMARK    2  A    between atoms: O_2  and  C_16
REMARK    3  A    between atoms: C_14  and  C_15
REMARK    4  A    between atoms: C_18  and  C_20
REMARK                            x       y       z     vdW  Elec       q    Type
REMARK                         _______ _______ _______ _____ _____    ______ ____
ROOT
ATOM      1  O   UNL     1      -6.163   2.480  25.956  0.00  0.00    -0.375 OA
ATOM      3  O   UNL     1      -2.100   4.910  25.012  0.00  0.00    -0.268 OA
ATOM      5  N   UNL     1      -3.438   3.051  24.516  0.00  0.00    -0.290 N 
ATOM      9  C   UNL     1      -4.880   0.944  24.560  0.00  0.00    +0.218 C 
ATOM     10  C   UNL     1      -3.533   1.609  24.257  0.00  0.00    +0.155 C 
ATOM     11  C   UNL     1      -4.675   3.833  24.560  0.00  0.00    +0.136 C 
ATOM     12  C   UNL     1      -5.411   1.270  25.954  0.00  0.00    +0.206 C 
ATOM     13  C   UNL     1      -5.381   3.667  25.899  0.00  0.00    +0.179 C 
ATOM     14  C   UNL     1      -2.223   3.711  24.760  0.00  0.00    +0.268 C 
ENDROOT
BRANCH  14  15
ATOM      4  O   UNL     1       0.844   2.006  25.427  0.00  0.00    -0.359 OA
ATOM      6  N   UNL     1      -0.234   2.792  25.815  0.00  0.00    -0.073 NA
ATOM     15  C   UNL     1      -0.980   2.925  24.715  0.00  0.00    +0.168 A 
ATOM     17  C   UNL     1      -0.429   2.251  23.611  0.00  0.00    +0.080 A 
ATOM     18  C   UNL     1       0.717   1.690  24.112  0.00  0.00    +0.135 A 
ATOM     20  C   UNL     1       1.777   0.857  23.532  0.00  0.00    +0.089 C 
ENDBRANCH  14  15
BRANCH   9   2
ATOM      2  O   UNL     1      -4.674  -0.466  24.459  0.00  0.00    -0.468 OA
BRANCH   2  16
ATOM      7  N   UNL     1      -2.684  -0.252  25.640  0.00  0.00    -0.219 NA
ATOM      8  N   UNL     1      -1.680  -2.501  24.298  0.00  0.00    -0.256 NA
ATOM     16  C   UNL     1      -3.413  -0.920  24.723  0.00  0.00    +0.234 A 
ATOM     19  C   UNL     1      -2.919  -2.024  24.064  0.00  0.00    +0.177 A 
ATOM     21  C   UNL     1      -1.445  -0.728  25.874  0.00  0.00    +0.134 A 
ATOM     22  C   UNL     1      -0.952  -1.833  25.214  0.00  0.00    +0.130 A 
ENDBRANCH   2  16
ENDBRANCH   9   2
TORSDOF 3
ENDMDL
MODEL 5
REMARK VINA RESULT:      -4.5      1.944      4.553
REMARK  Name = 75536898
REMARK  4 active torsions:
REMARK  status: ('A' for Active; 'I' for Inactive)
REMARK    1  A    between atoms: O_2  and  C_9
REMARK    2  A    between atoms: O_2  and  C_16
REMARK    3  A    between atoms: C_14  and  C_15
REMARK    4  A    between atoms: C_18  and  C_20
REMARK                            x       y       z     vdW  Elec       q    Type
REMARK                         _______ _______ _______ _____ _____    ______ ____
ROOT
ATOM      1  O   UNL     1      -0.282   3.735  25.443  0.00  0.00    -0.375 OA
ATOM      3  O   UNL     1       0.234  -1.061  25.254  0.00  0.00    -0.268 OA
ATOM      5  N   UNL     1      -0.821   0.838  24.375  0.00  0.00    -0.290 N 
ATOM      9  C   UNL     1      -2.099   3.013  23.984  0.00  0.00    +0.218 C 
ATOM     10  C   UNL     1      -2.055   1.484  23.912  0.00  0.00    +0.155 C 
ATOM     11  C   UNL     1       0.411   1.630  24.404  0.00  0.00    +0.136 C 
ATOM     12  C   UNL     1      -1.693   3.562  25.349  0.00  0.00    +0.206 C 
ATOM     13  C   UNL     1       0.454   2.531  25.630  0.00  0.00    +0.179 C 
ATOM     14  C   UNL     1      -0.770  -0.491  24.828  0.00  0.00    +0.268 C 
ENDROOT
BRANCH  14  15
ATOM      4  O   UNL     1      -3.936  -2.026  25.437  0.00  0.00    -0.359 OA
ATOM      6  N   UNL     1      -2.915  -1.144  25.768  0.00  0.00    -0.073 NA
ATOM     15  C   UNL     1      -2.007  -1.286  24.799  0.00  0.00    +0.168 A 
ATOM     17  C   UNL     1      -2.396  -2.235  23.837  0.00  0.00    +0.080 A 
ATOM     18  C   UNL     1      -3.616  -2.670  24.285  0.00  0.00    +0.135 A 
ATOM     20  C   UNL     1      -4.592  -3.646  23.786  0.00  0.00    +0.089 C 
ENDBRANCH  14  15
BRANCH   9   2
ATOM      2  O   UNL     1      -3.446   3.400  23.710  0.00  0.00    -0.468 OA
BRANCH   2  16
ATOM      7  N   UNL     1      -4.770   1.603  24.361  0.00  0.00    -0.219 NA
ATOM      8  N   UNL     1      -5.930   3.213  26.343  0.00  0.00    -0.256 NA
ATOM     16  C   UNL     1      -4.408   2.890  24.536  0.00  0.00    +0.234 A 
ATOM     19  C   UNL     1      -4.978   3.680  25.509  0.00  0.00    +0.177 A 
ATOM     21  C   UNL     1      -5.721   1.135  25.193  0.00  0.00    +0.134 A 
ATOM     22  C   UNL     1      -6.291   1.927  26.166  0.00  0.00    +0.130 A 
ENDBRANCH   2  16
ENDBRANCH   9   2
TORSDOF 3
ENDMDL
MODEL 6
REMARK VINA RESULT:      -4.4      1.737      4.259
REMARK  Name = 75536898
REMARK  4 active torsions:
REMARK  status: ('A' for Active; 'I' for Inactive)
REMARK    1  A    between atoms: O_2  and  C_9
REMARK    2  A    between atoms: O_2  and  C_16
REMARK    3  A    between atoms: C_14  and  C_15
REMARK    4  A    between atoms: C_18  and  C_20
REMARK                            x       y       z     vdW  Elec       q    Type
REMARK                         _______ _______ _______ _____ _____    ______ ____
ROOT
ATOM      1  O   UNL     1      -4.556   4.147  25.863  0.00  0.00    -0.375 OA
ATOM      3  O   UNL     1       0.019   3.377  24.529  0.00  0.00    -0.268 OA
ATOM      5  N   UNL     1      -2.235   2.801  24.244  0.00  0.00    -0.290 N 
ATOM      9  C   UNL     1      -4.678   2.114  24.519  0.00  0.00    +0.218 C 
ATOM     10  C   UNL     1      -3.251   1.751  24.098  0.00  0.00    +0.155 C 
ATOM     11  C   UNL     1      -2.677   4.196  24.295  0.00  0.00    +0.136 C 
ATOM     12  C   UNL     1      -4.753   2.737  25.911  0.00  0.00    +0.206 C 
ATOM     13  C   UNL     1      -3.205   4.553  25.678  0.00  0.00    +0.179 C 
ATOM     14  C   UNL     1      -0.862   2.532  24.374  0.00  0.00    +0.268 C 
ENDROOT
BRANCH  14  15
ATOM      4  O   UNL     1       0.541  -0.646  23.547  0.00  0.00    -0.359 OA
ATOM      6  N   UNL     1       0.295   0.695  23.279  0.00  0.00    -0.073 NA
ATOM     15  C   UNL     1      -0.418   1.130  24.321  0.00  0.00    +0.168 A 
ATOM     17  C   UNL     1      -0.649   0.119  25.271  0.00  0.00    +0.080 A 
ATOM     18  C   UNL     1      -0.025  -0.977  24.736  0.00  0.00    +0.135 A 
ATOM     20  C   UNL     1       0.140  -2.367  25.177  0.00  0.00    +0.089 C 
ENDBRANCH  14  15
BRANCH   9   2
ATOM      2  O   UNL     1      -5.430   0.900  24.512  0.00  0.00    -0.468 OA
BRANCH   2  16
ATOM      7  N   UNL     1      -4.656  -1.117  23.654  0.00  0.00    -0.219 NA
ATOM      8  N   UNL     1      -3.407  -1.649  26.108  0.00  0.00    -0.256 NA
ATOM     16  C   UNL     1      -4.724  -0.257  24.690  0.00  0.00    +0.234 A 
ATOM     19  C   UNL     1      -4.111  -0.519  25.895  0.00  0.00    +0.177 A 
ATOM     21  C   UNL     1      -3.952  -2.247  23.866  0.00  0.00    +0.134 A 
ATOM     22  C   UNL     1      -3.339  -2.508  25.072  0.00  0.00    +0.130 A 
ENDBRANCH   2  16
ENDBRANCH   9   2
TORSDOF 3
ENDMDL
MODEL 7
REMARK VINA RESULT:      -4.3      1.750      4.008
REMARK  Name = 75536898
REMARK  4 active torsions:
REMARK  status: ('A' for Active; 'I' for Inactive)
REMARK    1  A    between atoms: O_2  and  C_9
REMARK    2  A    between atoms: O_2  and  C_16
REMARK    3  A    between atoms: C_14  and  C_15
REMARK    4  A    between atoms: C_18  and  C_20
REMARK                            x       y       z     vdW  Elec       q    Type
REMARK                         _______ _______ _______ _____ _____    ______ ____
ROOT
ATOM      1  O   UNL     1       1.063   1.518  24.137  0.00  0.00    -0.375 OA
ATOM      3  O   UNL     1      -2.309   4.926  24.708  0.00  0.00    -0.268 OA
ATOM      5  N   UNL     1      -1.413   2.900  25.473  0.00  0.00    -0.290 N 
ATOM      9  C   UNL     1      -0.490   0.534  25.741  0.00  0.00    +0.218 C 
ATOM     10  C   UNL     1      -1.640   1.527  25.941  0.00  0.00    +0.155 C 
ATOM     11  C   UNL     1      -0.033   3.362  25.317  0.00  0.00    +0.136 C 
ATOM     12  C   UNL     1       0.056   0.527  24.315  0.00  0.00    +0.206 C 
ATOM     13  C   UNL     1       0.574   2.849  24.018  0.00  0.00    +0.179 C 
ATOM     14  C   UNL     1      -2.454   3.779  25.133  0.00  0.00    +0.268 C 
ENDROOT
BRANCH  14  15
ATOM      4  O   UNL     1      -5.767   3.019  26.228  0.00  0.00    -0.359 OA
ATOM      6  N   UNL     1      -4.516   3.596  26.408  0.00  0.00    -0.073 NA
ATOM     15  C   UNL     1      -3.841   3.314  25.291  0.00  0.00    +0.168 A 
ATOM     17  C   UNL     1      -4.606   2.569  24.377  0.00  0.00    +0.080 A 
ATOM     18  C   UNL     1      -5.809   2.410  25.015  0.00  0.00    +0.135 A 
ATOM     20  C   UNL     1      -7.067   1.744  24.658  0.00  0.00    +0.089 C 
ENDBRANCH  14  15
BRANCH   9   2
ATOM      2  O   UNL     1      -1.008  -0.762  26.047  0.00  0.00    -0.468 OA
BRANCH   2  16
ATOM      7  N   UNL     1      -1.943  -2.324  24.603  0.00  0.00    -0.219 NA
ATOM      8  N   UNL     1      -4.320  -0.835  24.578  0.00  0.00    -0.256 NA
ATOM     16  C   UNL     1      -2.077  -1.183  25.308  0.00  0.00    +0.234 A 
ATOM     19  C   UNL     1      -3.244  -0.452  25.295  0.00  0.00    +0.177 A 
ATOM     21  C   UNL     1      -3.018  -2.708  23.886  0.00  0.00    +0.134 A 
ATOM     22  C   UNL     1      -4.185  -1.976  23.874  0.00  0.00    +0.130 A 
ENDBRANCH   2  16
ENDBRANCH   9   2
TORSDOF 3
ENDMDL
MODEL 8
REMARK VINA RESULT:      -4.1      1.883      4.662
REMARK  Name = 75536898
REMARK  4 active torsions:
REMARK  status: ('A' for Active; 'I' for Inactive)
REMARK    1  A    between atoms: O_2  and  C_9
REMARK    2  A    between atoms: O_2  and  C_16
REMARK    3  A    between atoms: C_14  and  C_15
REMARK    4  A    between atoms: C_18  and  C_20
REMARK                            x       y       z     vdW  Elec       q    Type
REMARK                         _______ _______ _______ _____ _____    ______ ____
ROOT
ATOM      1  O   UNL     1      -0.797  -2.036  25.144  0.00  0.00    -0.375 OA
ATOM      3  O   UNL     1      -5.358  -0.820  24.134  0.00  0.00    -0.268 OA
ATOM      5  N   UNL     1      -3.119  -0.135  24.242  0.00  0.00    -0.290 N 
ATOM      9  C   UNL     1      -0.711   0.391  24.906  0.00  0.00    +0.218 C 
ATOM     10  C   UNL     1      -2.138   0.881  24.643  0.00  0.00    +0.155 C 
ATOM     11  C   UNL     1      -2.629  -1.384  23.658  0.00  0.00    +0.136 C 
ATOM     12  C   UNL     1      -0.652  -0.807  25.851  0.00  0.00    +0.206 C 
ATOM     13  C   UNL     1      -2.127  -2.334  24.737  0.00  0.00    +0.179 C 
ATOM     14  C   UNL     1      -4.504   0.017  24.426  0.00  0.00    +0.268 C 
ENDROOT
BRANCH  14  15
ATOM      4  O   UNL     1      -5.961   2.583  26.438  0.00  0.00    -0.359 OA
ATOM      6  N   UNL     1      -5.641   1.255  26.183  0.00  0.00    -0.073 NA
ATOM     15  C   UNL     1      -4.997   1.273  25.013  0.00  0.00    +0.168 A 
ATOM     17  C   UNL     1      -4.880   2.572  24.487  0.00  0.00    +0.080 A 
ATOM     18  C   UNL     1      -5.502   3.358  25.421  0.00  0.00    +0.135 A 
ATOM     20  C   UNL     1      -5.755   4.799  25.529  0.00  0.00    +0.089 C 
ENDBRANCH  14  15
BRANCH   9   2
ATOM      2  O   UNL     1      -0.003   1.483  25.495  0.00  0.00    -0.468 OA
BRANCH   2  16
ATOM      7  N   UNL     1      -0.070   3.525  24.386  0.00  0.00    -0.219 NA
ATOM      8  N   UNL     1      -2.166   4.335  26.064  0.00  0.00    -0.256 NA
ATOM     16  C   UNL     1      -0.562   2.722  25.351  0.00  0.00    +0.234 A 
ATOM     19  C   UNL     1      -1.591   3.120  26.175  0.00  0.00    +0.177 A 
ATOM     21  C   UNL     1      -0.644   4.738  24.274  0.00  0.00    +0.134 A 
ATOM     22  C   UNL     1      -1.674   5.136  25.098  0.00  0.00    +0.130 A 
ENDBRANCH   2  16
ENDBRANCH   9   2
TORSDOF 3
ENDMDL
MODEL 9
REMARK VINA RESULT:      -4.1      1.757      4.601
REMARK  Name = 75536898
REMARK  4 active torsions:
REMARK  status: ('A' for Active; 'I' for Inactive)
REMARK    1  A    between atoms: O_2  and  C_9
REMARK    2  A    between atoms: O_2  and  C_16
REMARK    3  A    between atoms: C_14  and  C_15
REMARK    4  A    between atoms: C_18  and  C_20
REMARK                            x       y       z     vdW  Elec       q    Type
REMARK                         _______ _______ _______ _____ _____    ______ ____
ROOT
ATOM      1  O   UNL     1      -1.732   5.291  25.065  0.00  0.00    -0.375 OA
ATOM      3  O   UNL     1       1.062   1.365  24.763  0.00  0.00    -0.268 OA
ATOM      5  N   UNL     1      -0.852   2.480  23.995  0.00  0.00    -0.290 N 
ATOM      9  C   UNL     1      -3.059   3.736  23.734  0.00  0.00    +0.218 C 
ATOM     10  C   UNL     1      -2.274   2.424  23.634  0.00  0.00    +0.155 C 
ATOM     11  C   UNL     1      -0.171   3.775  23.944  0.00  0.00    +0.136 C 
ATOM     12  C   UNL     1      -2.878   4.444  25.074  0.00  0.00    +0.206 C 
ATOM     13  C   UNL     1      -0.488   4.609  25.178  0.00  0.00    +0.179 C 
ATOM     14  C   UNL     1      -0.121   1.358  24.422  0.00  0.00    +0.268 C 
ENDROOT
BRANCH  14  15
ATOM      4  O   UNL     1      -1.116  -2.063  24.179  0.00  0.00    -0.359 OA
ATOM      6  N   UNL     1      -0.210  -1.030  23.972  0.00  0.00    -0.073 NA
ATOM     15  C   UNL     1      -0.805   0.057  24.472  0.00  0.00    +0.168 A 
ATOM     17  C   UNL     1      -2.076  -0.226  25.004  0.00  0.00    +0.080 A 
ATOM     18  C   UNL     1      -2.223  -1.573  24.795  0.00  0.00    +0.135 A 
ATOM     20  C   UNL     1      -3.289  -2.536  25.092  0.00  0.00    +0.089 C 
ENDBRANCH  14  15
BRANCH   9   2
ATOM      2  O   UNL     1      -4.438   3.403  23.566  0.00  0.00    -0.468 OA
BRANCH   2  16
ATOM      7  N   UNL     1      -5.005   1.370  24.541  0.00  0.00    -0.219 NA
ATOM      8  N   UNL     1      -6.221   2.756  26.655  0.00  0.00    -0.256 NA
ATOM     16  C   UNL     1      -5.030   2.717  24.590  0.00  0.00    +0.234 A 
ATOM     19  C   UNL     1      -5.627   3.398  25.628  0.00  0.00    +0.177 A 
ATOM     21  C   UNL     1      -5.599   0.729  25.566  0.00  0.00    +0.134 A 
ATOM     22  C   UNL     1      -6.196   1.410  26.605  0.00  0.00    +0.130 A 
ENDBRANCH   2  16
ENDBRANCH   9   2
TORSDOF 3
ENDMDL
MODEL 10
REMARK VINA RESULT:      -3.5      1.861      4.430
REMARK  Name = 75536898
REMARK  4 active torsions:
REMARK  status: ('A' for Active; 'I' for Inactive)
REMARK    1  A    between atoms: O_2  and  C_9
REMARK    2  A    between atoms: O_2  and  C_16
REMARK    3  A    between atoms: C_14  and  C_15
REMARK    4  A    between atoms: C_18  and  C_20
REMARK                            x       y       z     vdW  Elec       q    Type
REMARK                         _______ _______ _______ _____ _____    ______ ____
ROOT
ATOM      1  O   UNL     1      -1.650  -2.507  24.934  0.00  0.00    -0.375 OA
ATOM      3  O   UNL     1      -5.648   0.188  24.683  0.00  0.00    -0.268 OA
ATOM      5  N   UNL     1      -3.367   0.003  24.176  0.00  0.00    -0.290 N 
ATOM      9  C   UNL     1      -0.835  -0.329  24.197  0.00  0.00    +0.218 C 
ATOM     10  C   UNL     1      -2.036   0.622  24.147  0.00  0.00    +0.155 C 
ATOM     11  C   UNL     1      -3.493  -1.397  23.766  0.00  0.00    +0.136 C 
ATOM     12  C   UNL     1      -0.923  -1.348  25.330  0.00  0.00    +0.206 C 
ATOM     13  C   UNL     1      -3.062  -2.336  24.884  0.00  0.00    +0.179 C 
ATOM     14  C   UNL     1      -4.520   0.676  24.613  0.00  0.00    +0.268 C 
ENDROOT
BRANCH  14  15
ATOM      4  O   UNL     1      -5.015   4.060  25.642  0.00  0.00    -0.359 OA
ATOM      6  N   UNL     1      -5.488   2.801  25.292  0.00  0.00    -0.073 NA
ATOM     15  C   UNL     1      -4.393   2.083  25.024  0.00  0.00    +0.168 A 
ATOM     17  C   UNL     1      -3.212   2.828  25.186  0.00  0.00    +0.080 A 
ATOM     18  C   UNL     1      -3.658   4.064  25.575  0.00  0.00    +0.135 A 
ATOM     20  C   UNL     1      -2.989   5.325  25.916  0.00  0.00    +0.089 C 
ENDBRANCH  14  15
BRANCH   9   2
ATOM      2  O   UNL     1       0.324   0.483  24.391  0.00  0.00    -0.468 OA
BRANCH   2  16
ATOM      7  N   UNL     1       2.452   1.058  23.653  0.00  0.00    -0.219 NA
ATOM      8  N   UNL     1       2.027  -0.464  21.335  0.00  0.00    -0.256 NA
ATOM     16  C   UNL     1       1.299   0.394  23.437  0.00  0.00    +0.234 A 
ATOM     19  C   UNL     1       1.090  -0.353  22.299  0.00  0.00    +0.177 A 
ATOM     21  C   UNL     1       3.388   0.948  22.690  0.00  0.00    +0.134 A 
ATOM     22  C   UNL     1       3.180   0.200  21.552  0.00  0.00    +0.130 A 
ENDBRANCH   2  16
ENDBRANCH   9   2
TORSDOF 3
ENDMDL
