MODEL 1
REMARK VINA RESULT:      10.0      0.000      0.000
REMARK  Name = 45783523
REMARK  6 active torsions:
REMARK  status: ('A' for Active; 'I' for Inactive)
REMARK    1  A    between atoms: N_4  and  C_14
REMARK    2  A    between atoms: N_9  and  C_26
REMARK    3  A    between atoms: C_10  and  C_15
REMARK    4  A    between atoms: C_14  and  C_16
REMARK    5  A    between atoms: C_17  and  C_20
REMARK    6  A    between atoms: C_32  and  C_33
REMARK                            x       y       z     vdW  Elec       q    Type
REMARK                         _______ _______ _______ _____ _____    ______ ____
ROOT
ATOM      4  N   UNL     1      -4.703   2.798  25.784  0.00  0.00    -0.287 NA
ATOM     10  C   UNL     1      -4.474   3.255  24.399  0.00  0.00    +0.146 C 
ATOM     11  C   UNL     1      -4.252   4.774  24.520  0.00  0.00    +0.030 C 
ATOM     12  C   UNL     1      -4.436   5.086  25.999  0.00  0.00    +0.017 C 
ATOM     13  C   UNL     1      -5.279   3.933  26.505  0.00  0.00    +0.085 C 
ENDROOT
BRANCH  10  15
ATOM      1  O   UNL     1      -3.568   1.950  22.541  0.00  0.00    -0.336 OA
ATOM      5  N   UNL     1      -2.075   2.416  24.145  0.00  0.00    -0.190 NA
ATOM      6  N   UNL     1      -2.361   1.369  22.131  0.00  0.00    -0.056 NA
ATOM     15  C   UNL     1      -3.312   2.546  23.735  0.00  0.00    +0.245 A 
ATOM     17  C   UNL     1      -1.531   1.688  23.128  0.00  0.00    +0.204 A 
BRANCH  17  20
ATOM      2  O   UNL     1       6.604  -0.247  23.316  0.00  0.00    -0.377 OA
ATOM      7  N   UNL     1       3.836   0.230  23.239  0.00  0.00    -0.311 N 
ATOM      8  N   UNL     1       2.084   1.628  24.000  0.00  0.00    -0.240 NA
ATOM     20  C   UNL     1      -0.151   1.294  23.139  0.00  0.00    +0.041 A 
ATOM     21  C   UNL     1       4.591   0.436  24.482  0.00  0.00    +0.134 C 
ATOM     22  C   UNL     1       4.632   0.289  22.008  0.00  0.00    +0.134 C 
ATOM     25  C   UNL     1       2.488   0.604  23.216  0.00  0.00    +0.121 A 
ATOM     27  C   UNL     1       5.823  -0.462  24.491  0.00  0.00    +0.178 C 
ATOM     28  C   UNL     1       5.863  -0.601  22.148  0.00  0.00    +0.178 C 
ATOM     29  C   UNL     1       0.302   0.246  22.347  0.00  0.00    +0.016 A 
ATOM     30  C   UNL     1       1.646  -0.112  22.380  0.00  0.00    +0.044 A 
ATOM     31  C   UNL     1       0.771   1.948  23.942  0.00  0.00    +0.124 A 
ENDBRANCH  17  20
ENDBRANCH  10  15
BRANCH   4  14
ATOM     14  C   UNL     1      -5.546   1.611  25.865  0.00  0.00    +0.120 C 
BRANCH  14  16
ATOM     16  C   UNL     1      -4.840   0.386  25.349  0.00  0.00    -0.033 A 
ATOM     18  C   UNL     1      -3.738  -0.125  26.034  0.00  0.00    +0.007 A 
ATOM     19  C   UNL     1      -5.288  -0.240  24.184  0.00  0.00    +0.007 A 
ATOM     23  C   UNL     1      -3.082  -1.259  25.556  0.00  0.00    +0.023 A 
ATOM     24  C   UNL     1      -4.633  -1.374  23.707  0.00  0.00    +0.023 A 
ATOM     26  C   UNL     1      -3.530  -1.884  24.392  0.00  0.00    +0.033 A 
BRANCH  26   9
ATOM      3  O   UNL     1      -0.594  -2.429  24.002  0.00  0.00    -0.276 OA
ATOM      9  N   UNL     1      -2.875  -3.019  23.913  0.00  0.00    -0.286 N 
ATOM     32  C   UNL     1      -1.499  -3.219  23.749  0.00  0.00    +0.214 C 
ATOM     33  C   UNL     1      -1.194  -4.591  23.201  0.00  0.00    +0.109 C 
ATOM     34  H   UNL     1      -3.483  -3.792  23.650  0.00  0.00    +0.155 HD
ENDBRANCH  26   9
ENDBRANCH  14  16
ENDBRANCH   4  14
TORSDOF 5
ENDMDL
MODEL 2
REMARK VINA RESULT:      10.7      1.425      1.629
REMARK  Name = 45783523
REMARK  6 active torsions:
REMARK  status: ('A' for Active; 'I' for Inactive)
REMARK    1  A    between atoms: N_4  and  C_14
REMARK    2  A    between atoms: N_9  and  C_26
REMARK    3  A    between atoms: C_10  and  C_15
REMARK    4  A    between atoms: C_14  and  C_16
REMARK    5  A    between atoms: C_17  and  C_20
REMARK    6  A    between atoms: C_32  and  C_33
REMARK                            x       y       z     vdW  Elec       q    Type
REMARK                         _______ _______ _______ _____ _____    ______ ____
ROOT
ATOM      4  N   UNL     1      -5.746   2.351  25.248  0.00  0.00    -0.287 NA
ATOM     10  C   UNL     1      -4.822   3.164  24.432  0.00  0.00    +0.146 C 
ATOM     11  C   UNL     1      -5.189   4.622  24.763  0.00  0.00    +0.030 C 
ATOM     12  C   UNL     1      -6.366   4.528  25.724  0.00  0.00    +0.017 C 
ATOM     13  C   UNL     1      -6.949   3.159  25.440  0.00  0.00    +0.085 C 
ENDROOT
BRANCH  10  15
ATOM      1  O   UNL     1      -2.914   3.137  25.960  0.00  0.00    -0.336 OA
ATOM      5  N   UNL     1      -2.462   2.334  23.918  0.00  0.00    -0.190 NA
ATOM      6  N   UNL     1      -1.564   2.765  25.977  0.00  0.00    -0.056 NA
ATOM     15  C   UNL     1      -3.367   2.849  24.711  0.00  0.00    +0.245 A 
ATOM     17  C   UNL     1      -1.373   2.301  24.739  0.00  0.00    +0.204 A 
BRANCH  17  20
ATOM      2  O   UNL     1       6.155  -0.275  22.158  0.00  0.00    -0.377 OA
ATOM      7  N   UNL     1       3.580   0.421  23.044  0.00  0.00    -0.311 N 
ATOM      8  N   UNL     1       2.301   2.015  24.237  0.00  0.00    -0.240 NA
ATOM     20  C   UNL     1      -0.107   1.798  24.290  0.00  0.00    +0.041 A 
ATOM     21  C   UNL     1       4.750   0.664  23.898  0.00  0.00    +0.134 C 
ATOM     22  C   UNL     1       3.866   0.314  21.609  0.00  0.00    +0.134 C 
ATOM     25  C   UNL     1       2.338   0.901  23.473  0.00  0.00    +0.121 A 
ATOM     27  C   UNL     1       5.854  -0.329  23.552  0.00  0.00    +0.178 C 
ATOM     28  C   UNL     1       5.018  -0.660  21.384  0.00  0.00    +0.178 C 
ATOM     29  C   UNL     1      -0.028   0.655  23.502  0.00  0.00    +0.016 A 
ATOM     30  C   UNL     1       1.214   0.191  23.082  0.00  0.00    +0.044 A 
ATOM     31  C   UNL     1       1.077   2.436  24.628  0.00  0.00    +0.124 A 
ENDBRANCH  17  20
ENDBRANCH  10  15
BRANCH   4  14
ATOM     14  C   UNL     1      -6.044   1.052  24.656  0.00  0.00    +0.120 C 
BRANCH  14  16
ATOM     16  C   UNL     1      -4.869   0.115  24.738  0.00  0.00    -0.033 A 
ATOM     18  C   UNL     1      -4.251  -0.123  25.965  0.00  0.00    +0.007 A 
ATOM     19  C   UNL     1      -4.398  -0.516  23.585  0.00  0.00    +0.007 A 
ATOM     23  C   UNL     1      -3.161  -0.990  26.042  0.00  0.00    +0.023 A 
ATOM     24  C   UNL     1      -3.309  -1.384  23.662  0.00  0.00    +0.023 A 
ATOM     26  C   UNL     1      -2.691  -1.620  24.890  0.00  0.00    +0.033 A 
BRANCH  26   9
ATOM      3  O   UNL     1       0.054  -1.217  26.062  0.00  0.00    -0.276 OA
ATOM      9  N   UNL     1      -1.601  -2.489  24.965  0.00  0.00    -0.286 N 
ATOM     32  C   UNL     1      -0.339  -2.247  25.523  0.00  0.00    +0.214 C 
ATOM     33  C   UNL     1       0.565  -3.448  25.404  0.00  0.00    +0.109 C 
ATOM     34  H   UNL     1      -1.751  -3.410  24.558  0.00  0.00    +0.155 HD
ENDBRANCH  26   9
ENDBRANCH  14  16
ENDBRANCH   4  14
TORSDOF 5
ENDMDL
MODEL 3
REMARK VINA RESULT:      10.9      2.376      3.978
REMARK  Name = 45783523
REMARK  6 active torsions:
REMARK  status: ('A' for Active; 'I' for Inactive)
REMARK    1  A    between atoms: N_4  and  C_14
REMARK    2  A    between atoms: N_9  and  C_26
REMARK    3  A    between atoms: C_10  and  C_15
REMARK    4  A    between atoms: C_14  and  C_16
REMARK    5  A    between atoms: C_17  and  C_20
REMARK    6  A    between atoms: C_32  and  C_33
REMARK                            x       y       z     vdW  Elec       q    Type
REMARK                         _______ _______ _______ _____ _____    ______ ____
ROOT
ATOM      4  N   UNL     1      -4.975   3.149  24.833  0.00  0.00    -0.287 NA
ATOM     10  C   UNL     1      -4.361   1.847  25.162  0.00  0.00    +0.146 C 
ATOM     11  C   UNL     1      -5.496   0.823  24.979  0.00  0.00    +0.030 C 
ATOM     12  C   UNL     1      -6.720   1.647  24.607  0.00  0.00    +0.017 C 
ATOM     13  C   UNL     1      -6.398   3.026  25.146  0.00  0.00    +0.085 C 
ENDROOT
BRANCH  10  15
ATOM      1  O   UNL     1      -3.359   1.486  22.963  0.00  0.00    -0.336 OA
ATOM      5  N   UNL     1      -1.914   1.310  24.665  0.00  0.00    -0.190 NA
ATOM      6  N   UNL     1      -2.115   1.192  22.389  0.00  0.00    -0.056 NA
ATOM     15  C   UNL     1      -3.152   1.539  24.305  0.00  0.00    +0.245 A 
ATOM     17  C   UNL     1      -1.316   1.103  23.456  0.00  0.00    +0.204 A 
BRANCH  17  20
ATOM      2  O   UNL     1       6.922  -0.233  22.904  0.00  0.00    -0.377 OA
ATOM      7  N   UNL     1       4.132   0.041  23.100  0.00  0.00    -0.311 N 
ATOM      8  N   UNL     1       2.365   1.399  23.896  0.00  0.00    -0.240 NA
ATOM     20  C   UNL     1       0.084   0.809  23.350  0.00  0.00    +0.041 A 
ATOM     21  C   UNL     1       4.999   0.451  24.214  0.00  0.00    +0.134 C 
ATOM     22  C   UNL     1       4.782   0.000  21.786  0.00  0.00    +0.134 C 
ATOM     25  C   UNL     1       2.764   0.316  23.194  0.00  0.00    +0.121 A 
ATOM     27  C   UNL     1       6.294  -0.353  24.180  0.00  0.00    +0.178 C 
ATOM     28  C   UNL     1       6.090  -0.779  21.881  0.00  0.00    +0.178 C 
ATOM     29  C   UNL     1       0.533  -0.296  22.636  0.00  0.00    +0.016 A 
ATOM     30  C   UNL     1       1.897  -0.555  22.552  0.00  0.00    +0.044 A 
ATOM     31  C   UNL     1       1.032   1.619  23.957  0.00  0.00    +0.124 A 
ENDBRANCH  17  20
ENDBRANCH  10  15
BRANCH   4  14
ATOM     14  C   UNL     1      -4.353   4.268  25.530  0.00  0.00    +0.120 C 
BRANCH  14  16
ATOM     16  C   UNL     1      -2.946   3.951  25.960  0.00  0.00    -0.033 A 
ATOM     18  C   UNL     1      -2.720   3.265  27.153  0.00  0.00    +0.007 A 
ATOM     19  C   UNL     1      -1.868   4.342  25.165  0.00  0.00    +0.007 A 
ATOM     23  C   UNL     1      -1.416   2.971  27.553  0.00  0.00    +0.023 A 
ATOM     24  C   UNL     1      -0.565   4.048  25.565  0.00  0.00    +0.023 A 
ATOM     26  C   UNL     1      -0.339   3.363  26.759  0.00  0.00    +0.033 A 
BRANCH  26   9
ATOM      3  O   UNL     1       0.767   2.676  29.474  0.00  0.00    -0.276 OA
ATOM      9  N   UNL     1       0.966   3.070  27.158  0.00  0.00    -0.286 N 
ATOM     32  C   UNL     1       1.427   2.757  28.443  0.00  0.00    +0.214 C 
ATOM     33  C   UNL     1       2.914   2.503  28.457  0.00  0.00    +0.109 C 
ATOM     34  H   UNL     1       1.662   3.090  26.416  0.00  0.00    +0.155 HD
ENDBRANCH  26   9
ENDBRANCH  14  16
ENDBRANCH   4  14
TORSDOF 5
ENDMDL
MODEL 4
REMARK VINA RESULT:      12.9      2.816      4.974
REMARK  Name = 45783523
REMARK  6 active torsions:
REMARK  status: ('A' for Active; 'I' for Inactive)
REMARK    1  A    between atoms: N_4  and  C_14
REMARK    2  A    between atoms: N_9  and  C_26
REMARK    3  A    between atoms: C_10  and  C_15
REMARK    4  A    between atoms: C_14  and  C_16
REMARK    5  A    between atoms: C_17  and  C_20
REMARK    6  A    between atoms: C_32  and  C_33
REMARK                            x       y       z     vdW  Elec       q    Type
REMARK                         _______ _______ _______ _____ _____    ______ ____
ROOT
ATOM      4  N   UNL     1      -3.309  -0.210  24.028  0.00  0.00    -0.287 NA
ATOM     10  C   UNL     1      -2.148  -0.970  24.534  0.00  0.00    +0.146 C 
ATOM     11  C   UNL     1      -2.536  -2.448  24.343  0.00  0.00    +0.030 C 
ATOM     12  C   UNL     1      -3.951  -2.419  23.783  0.00  0.00    +0.017 C 
ATOM     13  C   UNL     1      -4.479  -1.067  24.217  0.00  0.00    +0.085 C 
ENDROOT
BRANCH  10  15
ATOM      1  O   UNL     1      -0.983  -0.089  22.574  0.00  0.00    -0.336 OA
ATOM      5  N   UNL     1       0.377  -0.722  24.239  0.00  0.00    -0.190 NA
ATOM      6  N   UNL     1       0.321   0.163  22.129  0.00  0.00    -0.056 NA
ATOM     15  C   UNL     1      -0.860  -0.608  23.824  0.00  0.00    +0.245 A 
ATOM     17  C   UNL     1       1.065  -0.236  23.165  0.00  0.00    +0.204 A 
BRANCH  17  20
ATOM      2  O   UNL     1       9.425  -0.110  23.389  0.00  0.00    -0.377 OA
ATOM      7  N   UNL     1       6.624  -0.046  23.172  0.00  0.00    -0.311 N 
ATOM      8  N   UNL     1       4.623  -1.268  23.493  0.00  0.00    -0.240 NA
ATOM     20  C   UNL     1       2.498  -0.163  23.161  0.00  0.00    +0.041 A 
ATOM     21  C   UNL     1       7.366  -1.273  22.852  0.00  0.00    +0.134 C 
ATOM     22  C   UNL     1       7.319   0.889  24.063  0.00  0.00    +0.134 C 
ATOM     25  C   UNL     1       5.226  -0.102  23.174  0.00  0.00    +0.121 A 
ATOM     27  C   UNL     1       8.779  -0.917  22.404  0.00  0.00    +0.178 C 
ATOM     28  C   UNL     1       8.736   1.130  23.553  0.00  0.00    +0.178 C 
ATOM     29  C   UNL     1       3.155   1.019  22.838  0.00  0.00    +0.016 A 
ATOM     30  C   UNL     1       4.545   1.058  22.843  0.00  0.00    +0.044 A 
ATOM     31  C   UNL     1       3.270  -1.270  23.478  0.00  0.00    +0.124 A 
ENDBRANCH  17  20
ENDBRANCH  10  15
BRANCH   4  14
ATOM     14  C   UNL     1      -3.468   1.089  24.671  0.00  0.00    +0.120 C 
BRANCH  14  16
ATOM     16  C   UNL     1      -2.205   1.533  25.360  0.00  0.00    -0.033 A 
ATOM     18  C   UNL     1      -1.652   0.750  26.373  0.00  0.00    +0.007 A 
ATOM     19  C   UNL     1      -1.589   2.727  24.985  0.00  0.00    +0.007 A 
ATOM     23  C   UNL     1      -0.483   1.161  27.013  0.00  0.00    +0.023 A 
ATOM     24  C   UNL     1      -0.419   3.138  25.624  0.00  0.00    +0.023 A 
ATOM     26  C   UNL     1       0.133   2.356  26.638  0.00  0.00    +0.033 A 
BRANCH  26   9
ATOM      3  O   UNL     1       0.884   2.320  29.555  0.00  0.00    -0.276 OA
ATOM      9  N   UNL     1       1.303   2.768  27.278  0.00  0.00    -0.286 N 
ATOM     32  C   UNL     1       1.600   2.730  28.646  0.00  0.00    +0.214 C 
ATOM     33  C   UNL     1       2.978   3.271  28.935  0.00  0.00    +0.109 C 
ATOM     34  H   UNL     1       2.023   3.144  26.665  0.00  0.00    +0.155 HD
ENDBRANCH  26   9
ENDBRANCH  14  16
ENDBRANCH   4  14
TORSDOF 5
ENDMDL
MODEL 5
REMARK VINA RESULT:      14.0      2.144      5.049
REMARK  Name = 45783523
REMARK  6 active torsions:
REMARK  status: ('A' for Active; 'I' for Inactive)
REMARK    1  A    between atoms: N_4  and  C_14
REMARK    2  A    between atoms: N_9  and  C_26
REMARK    3  A    between atoms: C_10  and  C_15
REMARK    4  A    between atoms: C_14  and  C_16
REMARK    5  A    between atoms: C_17  and  C_20
REMARK    6  A    between atoms: C_32  and  C_33
REMARK                            x       y       z     vdW  Elec       q    Type
REMARK                         _______ _______ _______ _____ _____    ______ ____
ROOT
ATOM      4  N   UNL     1      -3.111  -1.724  23.910  0.00  0.00    -0.287 NA
ATOM     10  C   UNL     1      -2.124  -1.058  24.783  0.00  0.00    +0.146 C 
ATOM     11  C   UNL     1      -1.865  -2.064  25.919  0.00  0.00    +0.030 C 
ATOM     12  C   UNL     1      -2.795  -3.235  25.633  0.00  0.00    +0.017 C 
ATOM     13  C   UNL     1      -3.879  -2.626  24.768  0.00  0.00    +0.085 C 
ENDROOT
BRANCH  10  15
ATOM      1  O   UNL     1      -1.021  -0.134  22.807  0.00  0.00    -0.336 OA
ATOM      5  N   UNL     1       0.390  -0.784  24.421  0.00  0.00    -0.190 NA
ATOM      6  N   UNL     1       0.268   0.136  22.330  0.00  0.00    -0.056 NA
ATOM     15  C   UNL     1      -0.859  -0.673  24.044  0.00  0.00    +0.245 A 
ATOM     17  C   UNL     1       1.044  -0.275  23.337  0.00  0.00    +0.204 A 
BRANCH  17  20
ATOM      2  O   UNL     1       9.406  -0.079  23.339  0.00  0.00    -0.377 OA
ATOM      7  N   UNL     1       6.599  -0.041  23.195  0.00  0.00    -0.311 N 
ATOM      8  N   UNL     1       4.617  -1.273  23.590  0.00  0.00    -0.240 NA
ATOM     20  C   UNL     1       2.475  -0.191  23.294  0.00  0.00    +0.041 A 
ATOM     21  C   UNL     1       7.343  -1.268  22.877  0.00  0.00    +0.134 C 
ATOM     22  C   UNL     1       7.310   0.916  24.050  0.00  0.00    +0.134 C 
ATOM     25  C   UNL     1       5.202  -0.108  23.234  0.00  0.00    +0.121 A 
ATOM     27  C   UNL     1       8.741  -0.909  22.387  0.00  0.00    +0.178 C 
ATOM     28  C   UNL     1       8.711   1.158  23.498  0.00  0.00    +0.178 C 
ATOM     29  C   UNL     1       3.114   0.990  22.933  0.00  0.00    +0.016 A 
ATOM     30  C   UNL     1       4.503   1.041  22.900  0.00  0.00    +0.044 A 
ATOM     31  C   UNL     1       3.265  -1.285  23.611  0.00  0.00    +0.124 A 
ENDBRANCH  17  20
ENDBRANCH  10  15
BRANCH   4  14
ATOM     14  C   UNL     1      -3.967  -0.787  23.192  0.00  0.00    +0.120 C 
BRANCH  14  16
ATOM     16  C   UNL     1      -3.699   0.638  23.593  0.00  0.00    -0.033 A 
ATOM     18  C   UNL     1      -3.068   1.507  22.702  0.00  0.00    +0.007 A 
ATOM     19  C   UNL     1      -4.081   1.091  24.857  0.00  0.00    +0.007 A 
ATOM     23  C   UNL     1      -2.818   2.828  23.074  0.00  0.00    +0.023 A 
ATOM     24  C   UNL     1      -3.832   2.412  25.228  0.00  0.00    +0.023 A 
ATOM     26  C   UNL     1      -3.200   3.280  24.337  0.00  0.00    +0.033 A 
BRANCH  26   9
ATOM      3  O   UNL     1      -0.603   4.695  24.906  0.00  0.00    -0.276 OA
ATOM      9  N   UNL     1      -2.951   4.601  24.710  0.00  0.00    -0.286 N 
ATOM     32  C   UNL     1      -1.715   5.210  24.965  0.00  0.00    +0.214 C 
ATOM     33  C   UNL     1      -1.874   6.661  25.343  0.00  0.00    +0.109 C 
ATOM     34  H   UNL     1      -3.777   5.188  24.808  0.00  0.00    +0.155 HD
ENDBRANCH  26   9
ENDBRANCH  14  16
ENDBRANCH   4  14
TORSDOF 5
ENDMDL
