MODEL 1
REMARK VINA RESULT:      -5.2      0.000      0.000
REMARK  Name = 11942133
REMARK  8 active torsions:
REMARK  status: ('A' for Active; 'I' for Inactive)
REMARK    1  A    between atoms: O_2  and  C_20
REMARK    2  A    between atoms: N_4  and  C_15
REMARK    3  A    between atoms: N_5  and  C_19
REMARK    4  A    between atoms: C_9  and  C_15
REMARK    5  A    between atoms: C_10  and  C_16
REMARK    6  A    between atoms: C_18  and  C_20
REMARK    7  A    between atoms: C_20  and  C_23
REMARK    8  A    between atoms: C_20  and  C_24
REMARK                            x       y       z     vdW  Elec       q    Type
REMARK                         _______ _______ _______ _____ _____    ______ ____
ROOT
ATOM      3  N   UNL     1      -2.412   4.288  25.964  0.00  0.00    -0.297 NA
ATOM      8  C   UNL     1      -3.605   3.582  23.762  0.00  0.00    +0.005 C 
ATOM      9  C   UNL     1      -1.481   3.498  25.114  0.00  0.00    +0.078 C 
ATOM     10  C   UNL     1      -4.438   3.190  24.997  0.00  0.00    +0.092 C 
ATOM     11  C   UNL     1      -2.208   2.937  23.872  0.00  0.00    +0.025 C 
ATOM     12  C   UNL     1      -3.410   5.107  23.822  0.00  0.00    +0.020 C 
ATOM     13  C   UNL     1      -3.628   3.494  26.271  0.00  0.00    +0.097 C 
ATOM     14  C   UNL     1      -2.824   5.489  25.194  0.00  0.00    +0.085 C 
ENDROOT
BRANCH  10  16
ATOM      1  O   UNL     1      -6.044   1.444  24.938  0.00  0.00    -0.275 OA
ATOM      5  N   UNL     1      -3.752   0.911  24.883  0.00  0.00    -0.285 N 
ATOM     16  C   UNL     1      -4.857   1.752  24.935  0.00  0.00    +0.222 C 
ATOM     28  H   UNL     1      -2.830   1.340  24.904  0.00  0.00    +0.155 HD
BRANCH   5  19
ATOM     19  C   UNL     1      -3.749  -0.502  24.817  0.00  0.00    +0.033 A 
ATOM     21  C   UNL     1      -4.237  -1.128  23.682  0.00  0.00    +0.023 A 
ATOM     22  C   UNL     1      -3.258  -1.230  25.888  0.00  0.00    +0.023 A 
ATOM     25  C   UNL     1      -4.233  -2.522  23.616  0.00  0.00    +0.002 A 
ATOM     26  C   UNL     1      -3.254  -2.624  25.822  0.00  0.00    +0.002 A 
ATOM     27  C   UNL     1      -3.742  -3.269  24.686  0.00  0.00    +0.000 A 
ENDBRANCH   5  19
ENDBRANCH  10  16
BRANCH   9  15
ATOM     15  C   UNL     1      -0.767   2.396  25.900  0.00  0.00    +0.164 C 
BRANCH  15   4
ATOM      4  N   UNL     1      -0.091   1.457  25.021  0.00  0.00    -0.250 N 
ATOM      6  N   UNL     1      -0.612   0.244  24.806  0.00  0.00    -0.065 NA
ATOM      7  N   UNL     1       0.212  -0.386  23.977  0.00  0.00    -0.132 NA
ATOM     17  C   UNL     1       1.068   1.649  24.351  0.00  0.00    +0.136 A 
ATOM     18  C   UNL     1       1.247   0.460  23.688  0.00  0.00    +0.114 A 
BRANCH  18  20
ATOM     20  C   UNL     1       2.336   0.056  22.790  0.00  0.00    +0.105 C 
ATOM     23  C   UNL     1       3.393   1.179  22.580  0.00  0.00    +0.048 C 
ATOM     24  C   UNL     1       1.858  -0.412  21.382  0.00  0.00    +0.048 C 
BRANCH  20   2
ATOM      2  O   UNL     1       3.132  -1.065  23.281  0.00  0.00    -0.383 OA
ATOM     29  H   UNL     1       2.531  -1.666  23.754  0.00  0.00    +0.211 HD
ENDBRANCH  20   2
ENDBRANCH  18  20
ENDBRANCH  15   4
ENDBRANCH   9  15
TORSDOF 6
ENDMDL
MODEL 2
REMARK VINA RESULT:      -2.1      1.576      4.875
REMARK  Name = 11942133
REMARK  8 active torsions:
REMARK  status: ('A' for Active; 'I' for Inactive)
REMARK    1  A    between atoms: O_2  and  C_20
REMARK    2  A    between atoms: N_4  and  C_15
REMARK    3  A    between atoms: N_5  and  C_19
REMARK    4  A    between atoms: C_9  and  C_15
REMARK    5  A    between atoms: C_10  and  C_16
REMARK    6  A    between atoms: C_18  and  C_20
REMARK    7  A    between atoms: C_20  and  C_23
REMARK    8  A    between atoms: C_20  and  C_24
REMARK                            x       y       z     vdW  Elec       q    Type
REMARK                         _______ _______ _______ _____ _____    ______ ____
ROOT
ATOM      3  N   UNL     1      -2.901  -1.876  23.680  0.00  0.00    -0.297 NA
ATOM      8  C   UNL     1      -2.888  -0.882  26.085  0.00  0.00    +0.005 C 
ATOM      9  C   UNL     1      -1.552  -1.336  23.998  0.00  0.00    +0.078 C 
ATOM     10  C   UNL     1      -4.046  -0.304  25.248  0.00  0.00    +0.092 C 
ATOM     11  C   UNL     1      -1.557  -0.604  25.358  0.00  0.00    +0.025 C 
ATOM     12  C   UNL     1      -3.081  -2.408  26.118  0.00  0.00    +0.020 C 
ATOM     13  C   UNL     1      -3.924  -0.809  23.799  0.00  0.00    +0.097 C 
ATOM     14  C   UNL     1      -3.215  -2.932  24.675  0.00  0.00    +0.085 C 
ENDROOT
BRANCH  10  16
ATOM      1  O   UNL     1      -5.126   1.798  25.467  0.00  0.00    -0.275 OA
ATOM      5  N   UNL     1      -2.792   1.720  25.184  0.00  0.00    -0.285 N 
ATOM     16  C   UNL     1      -4.070   1.193  25.316  0.00  0.00    +0.222 C 
ATOM     28  H   UNL     1      -2.022   1.067  25.052  0.00  0.00    +0.155 HD
BRANCH   5  19
ATOM     19  C   UNL     1      -2.418   3.085  25.199  0.00  0.00    +0.033 A 
ATOM     21  C   UNL     1      -3.287   4.020  25.735  0.00  0.00    +0.023 A 
ATOM     22  C   UNL     1      -1.190   3.457  24.676  0.00  0.00    +0.023 A 
ATOM     25  C   UNL     1      -2.918   5.365  25.750  0.00  0.00    +0.002 A 
ATOM     26  C   UNL     1      -0.821   4.802  24.692  0.00  0.00    +0.002 A 
ATOM     27  C   UNL     1      -1.686   5.756  25.229  0.00  0.00    +0.000 A 
ENDBRANCH   5  19
ENDBRANCH  10  16
BRANCH   9  15
ATOM     15  C   UNL     1      -1.000  -0.451  22.878  0.00  0.00    +0.164 C 
BRANCH  15   4
ATOM      4  N   UNL     1       0.365  -0.028  23.147  0.00  0.00    -0.250 N 
ATOM      6  N   UNL     1       0.600   1.156  23.722  0.00  0.00    -0.065 NA
ATOM      7  N   UNL     1       1.919   1.271  23.837  0.00  0.00    -0.132 NA
ATOM     17  C   UNL     1       1.503  -0.707  22.874  0.00  0.00    +0.136 A 
ATOM     18  C   UNL     1       2.487   0.138  23.323  0.00  0.00    +0.114 A 
BRANCH  18  20
ATOM     20  C   UNL     1       3.943  -0.044  23.301  0.00  0.00    +0.105 C 
ATOM     23  C   UNL     1       4.572   0.289  21.917  0.00  0.00    +0.048 C 
ATOM     24  C   UNL     1       4.411  -1.476  23.700  0.00  0.00    +0.048 C 
BRANCH  20   2
ATOM      2  O   UNL     1       4.670   0.831  24.217  0.00  0.00    -0.383 OA
ATOM     29  H   UNL     1       4.504   1.748  23.940  0.00  0.00    +0.211 HD
ENDBRANCH  20   2
ENDBRANCH  18  20
ENDBRANCH  15   4
ENDBRANCH   9  15
TORSDOF 6
ENDMDL
MODEL 3
REMARK VINA RESULT:      -1.9      1.523      2.059
REMARK  Name = 11942133
REMARK  8 active torsions:
REMARK  status: ('A' for Active; 'I' for Inactive)
REMARK    1  A    between atoms: O_2  and  C_20
REMARK    2  A    between atoms: N_4  and  C_15
REMARK    3  A    between atoms: N_5  and  C_19
REMARK    4  A    between atoms: C_9  and  C_15
REMARK    5  A    between atoms: C_10  and  C_16
REMARK    6  A    between atoms: C_18  and  C_20
REMARK    7  A    between atoms: C_20  and  C_23
REMARK    8  A    between atoms: C_20  and  C_24
REMARK                            x       y       z     vdW  Elec       q    Type
REMARK                         _______ _______ _______ _____ _____    ______ ____
ROOT
ATOM      3  N   UNL     1      -3.971   4.136  26.410  0.00  0.00    -0.297 NA
ATOM      8  C   UNL     1      -3.966   3.860  23.822  0.00  0.00    +0.005 C 
ATOM      9  C   UNL     1      -2.586   4.286  25.886  0.00  0.00    +0.078 C 
ATOM     10  C   UNL     1      -4.674   2.676  24.508  0.00  0.00    +0.092 C 
ATOM     11  C   UNL     1      -2.531   3.975  24.374  0.00  0.00    +0.025 C 
ATOM     12  C   UNL     1      -4.721   5.134  24.242  0.00  0.00    +0.020 C 
ATOM     13  C   UNL     1      -4.523   2.812  26.034  0.00  0.00    +0.097 C 
ATOM     14  C   UNL     1      -4.812   5.185  25.779  0.00  0.00    +0.085 C 
ENDROOT
BRANCH  10  16
ATOM      1  O   UNL     1      -3.579   1.288  22.925  0.00  0.00    -0.275 OA
ATOM      5  N   UNL     1      -4.394   0.347  24.922  0.00  0.00    -0.285 N 
ATOM     16  C   UNL     1      -4.144   1.365  24.011  0.00  0.00    +0.222 C 
ATOM     28  H   UNL     1      -4.893   0.588  25.776  0.00  0.00    +0.155 HD
BRANCH   5  19
ATOM     19  C   UNL     1      -4.045  -1.019  24.802  0.00  0.00    +0.033 A 
ATOM     21  C   UNL     1      -3.293  -1.616  25.801  0.00  0.00    +0.023 A 
ATOM     22  C   UNL     1      -4.464  -1.731  23.690  0.00  0.00    +0.023 A 
ATOM     25  C   UNL     1      -2.950  -2.963  25.683  0.00  0.00    +0.002 A 
ATOM     26  C   UNL     1      -4.121  -3.079  23.574  0.00  0.00    +0.002 A 
ATOM     27  C   UNL     1      -3.363  -3.694  24.571  0.00  0.00    +0.000 A 
ENDBRANCH   5  19
ENDBRANCH  10  16
BRANCH   9  15
ATOM     15  C   UNL     1      -1.572   3.454  26.675  0.00  0.00    +0.164 C 
BRANCH  15   4
ATOM      4  N   UNL     1      -0.808   2.571  25.809  0.00  0.00    -0.250 N 
ATOM      6  N   UNL     1       0.266   3.032  25.160  0.00  0.00    -0.065 NA
ATOM      7  N   UNL     1       0.752   2.018  24.453  0.00  0.00    -0.132 NA
ATOM     17  C   UNL     1      -1.050   1.266  25.548  0.00  0.00    +0.136 A 
ATOM     18  C   UNL     1      -0.043   0.928  24.680  0.00  0.00    +0.114 A 
BRANCH  18  20
ATOM     20  C   UNL     1       0.230  -0.363  24.036  0.00  0.00    +0.105 C 
ATOM     23  C   UNL     1       1.464  -0.316  23.089  0.00  0.00    +0.048 C 
ATOM     24  C   UNL     1      -0.970  -0.932  23.220  0.00  0.00    +0.048 C 
BRANCH  20   2
ATOM      2  O   UNL     1       0.563  -1.437  24.967  0.00  0.00    -0.383 OA
ATOM     29  H   UNL     1      -0.259  -1.917  25.167  0.00  0.00    +0.211 HD
ENDBRANCH  20   2
ENDBRANCH  18  20
ENDBRANCH  15   4
ENDBRANCH   9  15
TORSDOF 6
ENDMDL
MODEL 4
REMARK VINA RESULT:      -1.3      1.278      4.768
REMARK  Name = 11942133
REMARK  8 active torsions:
REMARK  status: ('A' for Active; 'I' for Inactive)
REMARK    1  A    between atoms: O_2  and  C_20
REMARK    2  A    between atoms: N_4  and  C_15
REMARK    3  A    between atoms: N_5  and  C_19
REMARK    4  A    between atoms: C_9  and  C_15
REMARK    5  A    between atoms: C_10  and  C_16
REMARK    6  A    between atoms: C_18  and  C_20
REMARK    7  A    between atoms: C_20  and  C_23
REMARK    8  A    between atoms: C_20  and  C_24
REMARK                            x       y       z     vdW  Elec       q    Type
REMARK                         _______ _______ _______ _____ _____    ______ ____
ROOT
ATOM      3  N   UNL     1      -2.202  -1.881  24.121  0.00  0.00    -0.297 NA
ATOM      8  C   UNL     1      -4.608  -1.033  24.640  0.00  0.00    +0.005 C 
ATOM      9  C   UNL     1      -2.403  -1.794  25.593  0.00  0.00    +0.078 C 
ATOM     10  C   UNL     1      -3.887  -0.096  23.653  0.00  0.00    +0.092 C 
ATOM     11  C   UNL     1      -3.766  -1.150  25.927  0.00  0.00    +0.025 C 
ATOM     12  C   UNL     1      -4.640  -2.427  23.988  0.00  0.00    +0.020 C 
ATOM     13  C   UNL     1      -2.427  -0.556  23.492  0.00  0.00    +0.097 C 
ATOM     14  C   UNL     1      -3.210  -2.827  23.579  0.00  0.00    +0.085 C 
ENDROOT
BRANCH  10  16
ATOM      1  O   UNL     1      -5.062   1.858  24.312  0.00  0.00    -0.275 OA
ATOM      5  N   UNL     1      -2.711   1.899  24.211  0.00  0.00    -0.285 N 
ATOM     16  C   UNL     1      -3.974   1.333  24.099  0.00  0.00    +0.222 C 
ATOM     28  H   UNL     1      -1.909   1.317  23.980  0.00  0.00    +0.155 HD
BRANCH   5  19
ATOM     19  C   UNL     1      -2.393   3.221  24.605  0.00  0.00    +0.033 A 
ATOM     21  C   UNL     1      -1.217   3.797  24.154  0.00  0.00    +0.023 A 
ATOM     22  C   UNL     1      -3.265   3.911  25.431  0.00  0.00    +0.023 A 
ATOM     25  C   UNL     1      -0.903   5.100  24.541  0.00  0.00    +0.002 A 
ATOM     26  C   UNL     1      -2.951   5.215  25.817  0.00  0.00    +0.002 A 
ATOM     27  C   UNL     1      -1.770   5.809  25.373  0.00  0.00    +0.000 A 
ENDBRANCH   5  19
ENDBRANCH  10  16
BRANCH   9  15
ATOM     15  C   UNL     1      -1.248  -1.079  26.297  0.00  0.00    +0.164 C 
BRANCH  15   4
ATOM      4  N   UNL     1      -0.334  -0.465  25.348  0.00  0.00    -0.250 N 
ATOM      6  N   UNL     1      -0.306   0.864  25.206  0.00  0.00    -0.065 NA
ATOM      7  N   UNL     1       0.609   1.132  24.280  0.00  0.00    -0.132 NA
ATOM     17  C   UNL     1       0.545  -1.092  24.533  0.00  0.00    +0.136 A 
ATOM     18  C   UNL     1       1.140  -0.056  23.858  0.00  0.00    +0.114 A 
BRANCH  18  20
ATOM     20  C   UNL     1       2.186  -0.101  22.829  0.00  0.00    +0.105 C 
ATOM     23  C   UNL     1       2.993   1.226  22.730  0.00  0.00    +0.048 C 
ATOM     24  C   UNL     1       1.658  -0.439  21.401  0.00  0.00    +0.048 C 
BRANCH  20   2
ATOM      2  O   UNL     1       3.219  -1.104  23.068  0.00  0.00    -0.383 OA
ATOM     29  H   UNL     1       3.219  -1.304  24.020  0.00  0.00    +0.211 HD
ENDBRANCH  20   2
ENDBRANCH  18  20
ENDBRANCH  15   4
ENDBRANCH   9  15
TORSDOF 6
ENDMDL
