MODEL 1
REMARK VINA RESULT:      -6.3      0.000      0.000
REMARK  Name = 75536533
REMARK  8 active torsions:
REMARK  status: ('A' for Active; 'I' for Inactive)
REMARK    1  A    between atoms: O_2  and  C_11
REMARK    2  A    between atoms: N_4  and  C_7
REMARK    3  A    between atoms: N_4  and  C_15
REMARK    4  A    between atoms: N_5  and  C_13
REMARK    5  A    between atoms: C_6  and  C_14
REMARK    6  A    between atoms: C_10  and  C_13
REMARK    7  A    between atoms: C_15  and  C_16
REMARK    8  A    between atoms: C_15  and  C_17
REMARK                            x       y       z     vdW  Elec       q    Type
REMARK                         _______ _______ _______ _____ _____    ______ ____
ROOT
ATOM      1  O   UNL     1      -4.490   3.297  25.825  0.00  0.00    -0.371 OA
ATOM      7  C   UNL     1      -2.481   3.679  24.617  0.00  0.00    +0.111 C 
ATOM     10  C   UNL     1      -4.491   2.467  24.651  0.00  0.00    +0.165 C 
ATOM     11  C   UNL     1      -3.032   2.316  24.242  0.00  0.00    +0.164 C 
ATOM     12  C   UNL     1      -3.213   3.951  25.921  0.00  0.00    +0.181 C 
ENDROOT
BRANCH  11   2
ATOM      2  O   UNL     1      -2.898   2.034  22.862  0.00  0.00    -0.388 OA
ATOM     20  H   UNL     1      -3.603   1.414  22.607  0.00  0.00    +0.210 HD
ENDBRANCH  11   2
BRANCH   7   4
ATOM      4  N   UNL     1      -1.035   3.705  24.764  0.00  0.00    -0.307 NA
ATOM     18  H   UNL     1      -0.762   4.421  25.437  0.00  0.00    +0.123 HD
BRANCH   4  15
ATOM     15  C   UNL     1      -0.526   2.406  25.186  0.00  0.00    +0.048 C 
ATOM     16  C   UNL     1       0.116   2.513  26.567  0.00  0.00    +0.023 C 
ATOM     17  C   UNL     1       0.473   1.891  24.155  0.00  0.00    +0.023 C 
ENDBRANCH   4  15
ENDBRANCH   7   4
BRANCH  10  13
ATOM     13  C   UNL     1      -5.168   1.143  24.960  0.00  0.00    +0.138 C 
BRANCH  13   5
ATOM      3  O   UNL     1      -4.405  -1.300  23.580  0.00  0.00    -0.276 OA
ATOM      5  N   UNL     1      -4.216   0.158  25.387  0.00  0.00    -0.313 N 
ATOM     14  C   UNL     1      -3.915  -0.983  24.657  0.00  0.00    +0.216 C 
ATOM     19  H   UNL     1      -3.741   0.315  26.270  0.00  0.00    +0.149 HD
BRANCH  14   6
ATOM      6  C   UNL     1      -2.893  -1.867  25.290  0.00  0.00    +0.075 C 
ATOM      8  C   UNL     1      -1.850  -2.488  24.420  0.00  0.00    +0.013 C 
ATOM      9  C   UNL     1      -1.483  -1.384  25.368  0.00  0.00    +0.013 C 
ENDBRANCH  14   6
ENDBRANCH  13   5
ENDBRANCH  10  13
TORSDOF 6
ENDMDL
MODEL 2
REMARK VINA RESULT:      -6.2      2.116      5.135
REMARK  Name = 75536533
REMARK  8 active torsions:
REMARK  status: ('A' for Active; 'I' for Inactive)
REMARK    1  A    between atoms: O_2  and  C_11
REMARK    2  A    between atoms: N_4  and  C_7
REMARK    3  A    between atoms: N_4  and  C_15
REMARK    4  A    between atoms: N_5  and  C_13
REMARK    5  A    between atoms: C_6  and  C_14
REMARK    6  A    between atoms: C_10  and  C_13
REMARK    7  A    between atoms: C_15  and  C_16
REMARK    8  A    between atoms: C_15  and  C_17
REMARK                            x       y       z     vdW  Elec       q    Type
REMARK                         _______ _______ _______ _____ _____    ______ ____
ROOT
ATOM      1  O   UNL     1      -0.769   1.087  26.079  0.00  0.00    -0.371 OA
ATOM      7  C   UNL     1      -0.687  -0.881  24.753  0.00  0.00    +0.111 C 
ATOM     10  C   UNL     1      -0.069   1.380  24.858  0.00  0.00    +0.165 C 
ATOM     11  C   UNL     1      -0.518   0.329  23.853  0.00  0.00    +0.164 C 
ATOM     12  C   UNL     1      -1.292  -0.250  25.995  0.00  0.00    +0.181 C 
ENDROOT
BRANCH  11   2
ATOM      2  O   UNL     1       0.446   0.124  22.838  0.00  0.00    -0.388 OA
ATOM     20  H   UNL     1       0.755  -0.797  22.891  0.00  0.00    +0.210 HD
ENDBRANCH  11   2
BRANCH   7   4
ATOM      4  N   UNL     1      -1.527  -1.922  24.180  0.00  0.00    -0.307 NA
ATOM     18  H   UNL     1      -1.134  -2.841  24.382  0.00  0.00    +0.123 HD
BRANCH   4  15
ATOM     15  C   UNL     1      -2.889  -1.840  24.693  0.00  0.00    +0.048 C 
ATOM     16  C   UNL     1      -3.447  -3.240  24.934  0.00  0.00    +0.023 C 
ATOM     17  C   UNL     1      -3.758  -1.065  23.708  0.00  0.00    +0.023 C 
ENDBRANCH   4  15
ENDBRANCH   7   4
BRANCH  10  13
ATOM     13  C   UNL     1      -0.378   2.801  24.419  0.00  0.00    +0.138 C 
BRANCH  13   5
ATOM      3  O   UNL     1      -2.340   4.128  26.106  0.00  0.00    -0.276 OA
ATOM      5  N   UNL     1      -1.778   2.974  24.161  0.00  0.00    -0.313 N 
ATOM     14  C   UNL     1      -2.642   3.626  25.030  0.00  0.00    +0.216 C 
ATOM     19  H   UNL     1      -2.147   2.598  23.293  0.00  0.00    +0.149 HD
BRANCH  14   6
ATOM      6  C   UNL     1      -4.057   3.691  24.559  0.00  0.00    +0.075 C 
ATOM      8  C   UNL     1      -4.835   2.421  24.457  0.00  0.00    +0.013 C 
ATOM      9  C   UNL     1      -5.148   3.413  25.538  0.00  0.00    +0.013 C 
ENDBRANCH  14   6
ENDBRANCH  13   5
ENDBRANCH  10  13
TORSDOF 6
ENDMDL
MODEL 3
REMARK VINA RESULT:      -5.9      1.850      4.536
REMARK  Name = 75536533
REMARK  8 active torsions:
REMARK  status: ('A' for Active; 'I' for Inactive)
REMARK    1  A    between atoms: O_2  and  C_11
REMARK    2  A    between atoms: N_4  and  C_7
REMARK    3  A    between atoms: N_4  and  C_15
REMARK    4  A    between atoms: N_5  and  C_13
REMARK    5  A    between atoms: C_6  and  C_14
REMARK    6  A    between atoms: C_10  and  C_13
REMARK    7  A    between atoms: C_15  and  C_16
REMARK    8  A    between atoms: C_15  and  C_17
REMARK                            x       y       z     vdW  Elec       q    Type
REMARK                         _______ _______ _______ _____ _____    ______ ____
ROOT
ATOM      1  O   UNL     1      -0.519   2.443  25.596  0.00  0.00    -0.371 OA
ATOM      7  C   UNL     1      -1.004   0.489  24.336  0.00  0.00    +0.111 C 
ATOM     10  C   UNL     1      -1.082   2.835  24.332  0.00  0.00    +0.165 C 
ATOM     11  C   UNL     1      -1.866   1.631  23.830  0.00  0.00    +0.164 C 
ATOM     12  C   UNL     1      -0.586   1.010  25.701  0.00  0.00    +0.181 C 
ENDROOT
BRANCH  11   2
ATOM      2  O   UNL     1      -1.993   1.635  22.421  0.00  0.00    -0.388 OA
ATOM     20  H   UNL     1      -1.258   2.154  22.049  0.00  0.00    +0.210 HD
ENDBRANCH  11   2
BRANCH   7   4
ATOM      4  N   UNL     1      -1.703  -0.784  24.406  0.00  0.00    -0.307 NA
ATOM     18  H   UNL     1      -1.228  -1.411  25.055  0.00  0.00    +0.123 HD
BRANCH   4  15
ATOM     15  C   UNL     1      -3.089  -0.601  24.817  0.00  0.00    +0.048 C 
ATOM     16  C   UNL     1      -3.318  -1.219  26.193  0.00  0.00    +0.023 C 
ATOM     17  C   UNL     1      -4.015  -1.222  23.776  0.00  0.00    +0.023 C 
ENDBRANCH   4  15
ENDBRANCH   7   4
BRANCH  10  13
ATOM     13  C   UNL     1      -1.939   4.076  24.515  0.00  0.00    +0.138 C 
BRANCH  13   5
ATOM      3  O   UNL     1      -3.635   3.825  26.864  0.00  0.00    -0.276 OA
ATOM      5  N   UNL     1      -3.334   3.744  24.555  0.00  0.00    -0.313 N 
ATOM     14  C   UNL     1      -4.065   3.647  25.730  0.00  0.00    +0.216 C 
ATOM     19  H   UNL     1      -3.803   3.575  23.670  0.00  0.00    +0.149 HD
BRANCH  14   6
ATOM      6  C   UNL     1      -5.501   3.293  25.535  0.00  0.00    +0.075 C 
ATOM      8  C   UNL     1      -5.833   2.035  24.802  0.00  0.00    +0.013 C 
ATOM      9  C   UNL     1      -6.055   2.126  26.283  0.00  0.00    +0.013 C 
ENDBRANCH  14   6
ENDBRANCH  13   5
ENDBRANCH  10  13
TORSDOF 6
ENDMDL
MODEL 4
REMARK VINA RESULT:      -5.9      1.908      3.894
REMARK  Name = 75536533
REMARK  8 active torsions:
REMARK  status: ('A' for Active; 'I' for Inactive)
REMARK    1  A    between atoms: O_2  and  C_11
REMARK    2  A    between atoms: N_4  and  C_7
REMARK    3  A    between atoms: N_4  and  C_15
REMARK    4  A    between atoms: N_5  and  C_13
REMARK    5  A    between atoms: C_6  and  C_14
REMARK    6  A    between atoms: C_10  and  C_13
REMARK    7  A    between atoms: C_15  and  C_16
REMARK    8  A    between atoms: C_15  and  C_17
REMARK                            x       y       z     vdW  Elec       q    Type
REMARK                         _______ _______ _______ _____ _____    ______ ____
ROOT
ATOM      1  O   UNL     1      -1.328   2.192  23.092  0.00  0.00    -0.371 OA
ATOM      7  C   UNL     1      -3.326   3.151  23.944  0.00  0.00    +0.111 C 
ATOM     10  C   UNL     1      -1.048   2.779  24.374  0.00  0.00    +0.165 C 
ATOM     11  C   UNL     1      -2.385   2.860  25.099  0.00  0.00    +0.164 C 
ATOM     12  C   UNL     1      -2.744   2.269  22.852  0.00  0.00    +0.181 C 
ENDROOT
BRANCH  11   2
ATOM      2  O   UNL     1      -2.392   3.880  26.079  0.00  0.00    -0.388 OA
ATOM     20  H   UNL     1      -2.168   4.722  25.646  0.00  0.00    +0.210 HD
ENDBRANCH  11   2
BRANCH   7   4
ATOM      4  N   UNL     1      -4.718   2.848  24.235  0.00  0.00    -0.307 NA
ATOM     18  H   UNL     1      -5.192   2.531  23.389  0.00  0.00    +0.123 HD
BRANCH   4  15
ATOM     15  C   UNL     1      -4.829   1.833  25.275  0.00  0.00    +0.048 C 
ATOM     16  C   UNL     1      -4.964   0.448  24.651  0.00  0.00    +0.023 C 
ATOM     17  C   UNL     1      -6.023   2.151  26.170  0.00  0.00    +0.023 C 
ENDBRANCH   4  15
ENDBRANCH   7   4
BRANCH  10  13
ATOM     13  C   UNL     1      -0.017   1.939  25.108  0.00  0.00    +0.138 C 
BRANCH  13   5
ATOM      3  O   UNL     1       0.242  -0.549  23.627  0.00  0.00    -0.276 OA
ATOM      5  N   UNL     1      -0.547   0.653  25.460  0.00  0.00    -0.313 N 
ATOM     14  C   UNL     1      -0.370  -0.485  24.686  0.00  0.00    +0.216 C 
ATOM     19  H   UNL     1      -1.076   0.582  26.324  0.00  0.00    +0.149 HD
BRANCH  14   6
ATOM      6  C   UNL     1      -1.006  -1.715  25.244  0.00  0.00    +0.075 C 
ATOM      8  C   UNL     1      -2.468  -1.688  25.546  0.00  0.00    +0.013 C 
ATOM      9  C   UNL     1      -1.952  -2.482  24.382  0.00  0.00    +0.013 C 
ENDBRANCH  14   6
ENDBRANCH  13   5
ENDBRANCH  10  13
TORSDOF 6
ENDMDL
MODEL 5
REMARK VINA RESULT:      -5.8      2.072      3.796
REMARK  Name = 75536533
REMARK  8 active torsions:
REMARK  status: ('A' for Active; 'I' for Inactive)
REMARK    1  A    between atoms: O_2  and  C_11
REMARK    2  A    between atoms: N_4  and  C_7
REMARK    3  A    between atoms: N_4  and  C_15
REMARK    4  A    between atoms: N_5  and  C_13
REMARK    5  A    between atoms: C_6  and  C_14
REMARK    6  A    between atoms: C_10  and  C_13
REMARK    7  A    between atoms: C_15  and  C_16
REMARK    8  A    between atoms: C_15  and  C_17
REMARK                            x       y       z     vdW  Elec       q    Type
REMARK                         _______ _______ _______ _____ _____    ______ ____
ROOT
ATOM      1  O   UNL     1      -1.978   2.029  22.985  0.00  0.00    -0.371 OA
ATOM      7  C   UNL     1      -2.688   3.302  24.860  0.00  0.00    +0.111 C 
ATOM     10  C   UNL     1      -0.907   2.078  23.944  0.00  0.00    +0.165 C 
ATOM     11  C   UNL     1      -1.559   2.382  25.286  0.00  0.00    +0.164 C 
ATOM     12  C   UNL     1      -3.141   2.644  23.567  0.00  0.00    +0.181 C 
ENDROOT
BRANCH  11   2
ATOM      2  O   UNL     1      -0.656   3.004  26.180  0.00  0.00    -0.388 OA
ATOM     20  H   UNL     1       0.040   3.441  25.658  0.00  0.00    +0.210 HD
ENDBRANCH  11   2
BRANCH   7   4
ATOM      4  N   UNL     1      -3.754   3.411  25.843  0.00  0.00    -0.307 NA
ATOM     18  H   UNL     1      -3.702   4.312  26.318  0.00  0.00    +0.123 HD
BRANCH   4  15
ATOM     15  C   UNL     1      -5.062   3.252  25.220  0.00  0.00    +0.048 C 
ATOM     16  C   UNL     1      -5.927   4.481  25.486  0.00  0.00    +0.023 C 
ATOM     17  C   UNL     1      -5.729   1.988  25.751  0.00  0.00    +0.023 C 
ENDBRANCH   4  15
ENDBRANCH   7   4
BRANCH  10  13
ATOM     13  C   UNL     1      -0.147   0.763  23.930  0.00  0.00    +0.138 C 
BRANCH  13   5
ATOM      3  O   UNL     1      -0.949  -1.137  25.980  0.00  0.00    -0.276 OA
ATOM      5  N   UNL     1      -1.038  -0.353  23.788  0.00  0.00    -0.313 N 
ATOM     14  C   UNL     1      -1.364  -1.210  24.830  0.00  0.00    +0.216 C 
ATOM     19  H   UNL     1      -1.449  -0.514  22.874  0.00  0.00    +0.149 HD
BRANCH  14   6
ATOM      6  C   UNL     1      -2.312  -2.300  24.457  0.00  0.00    +0.075 C 
ATOM      8  C   UNL     1      -3.452  -2.599  25.373  0.00  0.00    +0.013 C 
ATOM      9  C   UNL     1      -3.700  -1.931  24.053  0.00  0.00    +0.013 C 
ENDBRANCH  14   6
ENDBRANCH  13   5
ENDBRANCH  10  13
TORSDOF 6
ENDMDL
MODEL 6
REMARK VINA RESULT:      -5.4      1.971      4.491
REMARK  Name = 75536533
REMARK  8 active torsions:
REMARK  status: ('A' for Active; 'I' for Inactive)
REMARK    1  A    between atoms: O_2  and  C_11
REMARK    2  A    between atoms: N_4  and  C_7
REMARK    3  A    between atoms: N_4  and  C_15
REMARK    4  A    between atoms: N_5  and  C_13
REMARK    5  A    between atoms: C_6  and  C_14
REMARK    6  A    between atoms: C_10  and  C_13
REMARK    7  A    between atoms: C_15  and  C_16
REMARK    8  A    between atoms: C_15  and  C_17
REMARK                            x       y       z     vdW  Elec       q    Type
REMARK                         _______ _______ _______ _____ _____    ______ ____
ROOT
ATOM      1  O   UNL     1      -3.043  -2.165  24.438  0.00  0.00    -0.371 OA
ATOM      7  C   UNL     1      -0.957  -1.243  25.099  0.00  0.00    +0.111 C 
ATOM     10  C   UNL     1      -3.282  -0.919  25.114  0.00  0.00    +0.165 C 
ATOM     11  C   UNL     1      -1.984  -0.129  25.010  0.00  0.00    +0.164 C 
ATOM     12  C   UNL     1      -1.624  -2.334  24.278  0.00  0.00    +0.181 C 
ENDROOT
BRANCH  11   2
ATOM      2  O   UNL     1      -1.857   0.816  26.055  0.00  0.00    -0.388 OA
ATOM     20  H   UNL     1      -1.390   0.392  26.795  0.00  0.00    +0.210 HD
ENDBRANCH  11   2
BRANCH   7   4
ATOM      4  N   UNL     1       0.353  -0.871  24.590  0.00  0.00    -0.307 NA
ATOM     18  H   UNL     1       0.843  -1.697  24.246  0.00  0.00    +0.123 HD
BRANCH   4  15
ATOM     15  C   UNL     1       0.242   0.119  23.527  0.00  0.00    +0.048 C 
ATOM     16  C   UNL     1       1.082  -0.300  22.323  0.00  0.00    +0.023 C 
ATOM     17  C   UNL     1       0.681   1.482  24.053  0.00  0.00    +0.023 C 
ENDBRANCH   4  15
ENDBRANCH   7   4
BRANCH  10  13
ATOM     13  C   UNL     1      -4.467  -0.211  24.480  0.00  0.00    +0.138 C 
BRANCH  13   5
ATOM      3  O   UNL     1      -6.072   1.674  26.005  0.00  0.00    -0.276 OA
ATOM      5  N   UNL     1      -4.318   1.214  24.543  0.00  0.00    -0.313 N 
ATOM     14  C   UNL     1      -5.136   2.037  25.303  0.00  0.00    +0.216 C 
ATOM     19  H   UNL     1      -3.569   1.633  24.000  0.00  0.00    +0.149 HD
BRANCH  14   6
ATOM      6  C   UNL     1      -4.797   3.488  25.222  0.00  0.00    +0.075 C 
ATOM      8  C   UNL     1      -3.503   3.953  25.803  0.00  0.00    +0.013 C 
ATOM      9  C   UNL     1      -3.690   3.912  24.315  0.00  0.00    +0.013 C 
ENDBRANCH  14   6
ENDBRANCH  13   5
ENDBRANCH  10  13
TORSDOF 6
ENDMDL
MODEL 7
REMARK VINA RESULT:      -5.0      1.758      4.781
REMARK  Name = 75536533
REMARK  8 active torsions:
REMARK  status: ('A' for Active; 'I' for Inactive)
REMARK    1  A    between atoms: O_2  and  C_11
REMARK    2  A    between atoms: N_4  and  C_7
REMARK    3  A    between atoms: N_4  and  C_15
REMARK    4  A    between atoms: N_5  and  C_13
REMARK    5  A    between atoms: C_6  and  C_14
REMARK    6  A    between atoms: C_10  and  C_13
REMARK    7  A    between atoms: C_15  and  C_16
REMARK    8  A    between atoms: C_15  and  C_17
REMARK                            x       y       z     vdW  Elec       q    Type
REMARK                         _______ _______ _______ _____ _____    ______ ____
ROOT
ATOM      1  O   UNL     1      -3.713   3.208  23.861  0.00  0.00    -0.371 OA
ATOM      7  C   UNL     1      -5.225   1.513  24.551  0.00  0.00    +0.111 C 
ATOM     10  C   UNL     1      -4.388   3.648  25.052  0.00  0.00    +0.165 C 
ATOM     11  C   UNL     1      -4.882   2.385  25.744  0.00  0.00    +0.164 C 
ATOM     12  C   UNL     1      -4.089   1.845  23.598  0.00  0.00    +0.181 C 
ENDROOT
BRANCH  11   2
ATOM      2  O   UNL     1      -6.000   2.642  26.572  0.00  0.00    -0.388 OA
ATOM     20  H   UNL     1      -6.389   1.790  26.834  0.00  0.00    +0.210 HD
ENDBRANCH  11   2
BRANCH   7   4
ATOM      4  N   UNL     1      -5.303   0.096  24.867  0.00  0.00    -0.307 NA
ATOM     18  H   UNL     1      -6.050  -0.343  24.329  0.00  0.00    +0.123 HD
BRANCH   4  15
ATOM     15  C   UNL     1      -4.037  -0.574  24.597  0.00  0.00    +0.048 C 
ATOM     16  C   UNL     1      -4.270  -1.827  23.758  0.00  0.00    +0.023 C 
ATOM     17  C   UNL     1      -3.351  -0.916  25.915  0.00  0.00    +0.023 C 
ENDBRANCH   4  15
ENDBRANCH   7   4
BRANCH  10  13
ATOM     13  C   UNL     1      -3.438   4.469  25.906  0.00  0.00    +0.138 C 
BRANCH  13   5
ATOM      3  O   UNL     1      -0.953   5.142  24.555  0.00  0.00    -0.276 OA
ATOM      5  N   UNL     1      -2.166   3.820  26.041  0.00  0.00    -0.313 N 
ATOM     14  C   UNL     1      -1.028   4.214  25.352  0.00  0.00    +0.216 C 
ATOM     19  H   UNL     1      -2.104   3.033  26.680  0.00  0.00    +0.149 HD
BRANCH  14   6
ATOM      6  C   UNL     1       0.186   3.399  25.648  0.00  0.00    +0.075 C 
ATOM      8  C   UNL     1       0.063   2.256  26.600  0.00  0.00    +0.013 C 
ATOM      9  C   UNL     1       0.246   1.998  25.134  0.00  0.00    +0.013 C 
ENDBRANCH  14   6
ENDBRANCH  13   5
ENDBRANCH  10  13
TORSDOF 6
ENDMDL
MODEL 8
REMARK VINA RESULT:      -4.8      1.571      4.984
REMARK  Name = 75536533
REMARK  8 active torsions:
REMARK  status: ('A' for Active; 'I' for Inactive)
REMARK    1  A    between atoms: O_2  and  C_11
REMARK    2  A    between atoms: N_4  and  C_7
REMARK    3  A    between atoms: N_4  and  C_15
REMARK    4  A    between atoms: N_5  and  C_13
REMARK    5  A    between atoms: C_6  and  C_14
REMARK    6  A    between atoms: C_10  and  C_13
REMARK    7  A    between atoms: C_15  and  C_16
REMARK    8  A    between atoms: C_15  and  C_17
REMARK                            x       y       z     vdW  Elec       q    Type
REMARK                         _______ _______ _______ _____ _____    ______ ____
ROOT
ATOM      1  O   UNL     1      -3.608   1.850  23.325  0.00  0.00    -0.371 OA
ATOM      7  C   UNL     1      -4.199   0.005  24.697  0.00  0.00    +0.111 C 
ATOM     10  C   UNL     1      -4.747   2.214  24.124  0.00  0.00    +0.165 C 
ATOM     11  C   UNL     1      -4.732   1.279  25.326  0.00  0.00    +0.164 C 
ATOM     12  C   UNL     1      -3.149   0.554  23.747  0.00  0.00    +0.181 C 
ENDROOT
BRANCH  11   2
ATOM      2  O   UNL     1      -6.023   1.116  25.882  0.00  0.00    -0.388 OA
ATOM     20  H   UNL     1      -6.298   0.192  25.751  0.00  0.00    +0.210 HD
ENDBRANCH  11   2
BRANCH   7   4
ATOM      4  N   UNL     1      -3.653  -0.937  25.661  0.00  0.00    -0.307 NA
ATOM     18  H   UNL     1      -4.283  -1.028  26.459  0.00  0.00    +0.123 HD
BRANCH   4  15
ATOM     15  C   UNL     1      -3.430  -2.242  25.053  0.00  0.00    +0.048 C 
ATOM     16  C   UNL     1      -1.959  -2.407  24.680  0.00  0.00    +0.023 C 
ATOM     17  C   UNL     1      -4.327  -2.394  23.829  0.00  0.00    +0.023 C 
ENDBRANCH   4  15
ENDBRANCH   7   4
BRANCH  10  13
ATOM     13  C   UNL     1      -4.658   3.682  24.505  0.00  0.00    +0.138 C 
BRANCH  13   5
ATOM      3  O   UNL     1      -2.835   3.975  26.751  0.00  0.00    -0.276 OA
ATOM      5  N   UNL     1      -3.301   4.147  24.475  0.00  0.00    -0.313 N 
ATOM     14  C   UNL     1      -2.503   4.253  25.604  0.00  0.00    +0.216 C 
ATOM     19  H   UNL     1      -2.912   4.407  23.573  0.00  0.00    +0.149 HD
BRANCH  14   6
ATOM      6  C   UNL     1      -1.123   4.757  25.339  0.00  0.00    +0.075 C 
ATOM      8  C   UNL     1      -0.005   3.771  25.269  0.00  0.00    +0.013 C 
ATOM      9  C   UNL     1      -0.493   4.448  24.022  0.00  0.00    +0.013 C 
ENDBRANCH  14   6
ENDBRANCH  13   5
ENDBRANCH  10  13
TORSDOF 6
ENDMDL
MODEL 9
REMARK VINA RESULT:      -4.4      2.902      5.144
REMARK  Name = 75536533
REMARK  8 active torsions:
REMARK  status: ('A' for Active; 'I' for Inactive)
REMARK    1  A    between atoms: O_2  and  C_11
REMARK    2  A    between atoms: N_4  and  C_7
REMARK    3  A    between atoms: N_4  and  C_15
REMARK    4  A    between atoms: N_5  and  C_13
REMARK    5  A    between atoms: C_6  and  C_14
REMARK    6  A    between atoms: C_10  and  C_13
REMARK    7  A    between atoms: C_15  and  C_16
REMARK    8  A    between atoms: C_15  and  C_17
REMARK                            x       y       z     vdW  Elec       q    Type
REMARK                         _______ _______ _______ _____ _____    ______ ____
ROOT
ATOM      1  O   UNL     1      -1.710   1.688  22.881  0.00  0.00    -0.371 OA
ATOM      7  C   UNL     1      -2.406   2.875  24.816  0.00  0.00    +0.111 C 
ATOM     10  C   UNL     1      -0.682   1.586  23.880  0.00  0.00    +0.165 C 
ATOM     11  C   UNL     1      -1.367   1.843  25.215  0.00  0.00    +0.164 C 
ATOM     12  C   UNL     1      -2.848   2.347  23.462  0.00  0.00    +0.181 C 
ENDROOT
BRANCH  11   2
ATOM      2  O   UNL     1      -0.461   2.329  26.187  0.00  0.00    -0.388 OA
ATOM     20  H   UNL     1      -0.112   3.183  25.881  0.00  0.00    +0.210 HD
ENDBRANCH  11   2
BRANCH   7   4
ATOM      4  N   UNL     1      -3.503   2.995  25.763  0.00  0.00    -0.307 NA
ATOM     18  H   UNL     1      -3.440   3.883  26.262  0.00  0.00    +0.123 HD
BRANCH   4  15
ATOM     15  C   UNL     1      -4.792   2.893  25.090  0.00  0.00    +0.048 C 
ATOM     16  C   UNL     1      -5.684   4.069  25.477  0.00  0.00    +0.023 C 
ATOM     17  C   UNL     1      -5.449   1.564  25.448  0.00  0.00    +0.023 C 
ENDBRANCH   4  15
ENDBRANCH   7   4
BRANCH  10  13
ATOM     13  C   UNL     1      -0.020   0.221  23.798  0.00  0.00    +0.138 C 
BRANCH  13   5
ATOM      3  O   UNL     1       1.261  -0.564  21.309  0.00  0.00    -0.276 OA
ATOM      5  N   UNL     1       1.368   0.334  23.456  0.00  0.00    -0.313 N 
ATOM     14  C   UNL     1       1.891  -0.069  22.236  0.00  0.00    +0.216 C 
ATOM     19  H   UNL     1       1.993   0.734  24.149  0.00  0.00    +0.149 HD
BRANCH  14   6
ATOM      6  C   UNL     1       3.361   0.144  22.095  0.00  0.00    +0.075 C 
ATOM      8  C   UNL     1       4.002   1.242  22.878  0.00  0.00    +0.013 C 
ATOM      9  C   UNL     1       4.244  -0.190  23.251  0.00  0.00    +0.013 C 
ENDBRANCH  14   6
ENDBRANCH  13   5
ENDBRANCH  10  13
TORSDOF 6
ENDMDL
MODEL 10
REMARK VINA RESULT:      -4.4      1.866      3.894
REMARK  Name = 75536533
REMARK  8 active torsions:
REMARK  status: ('A' for Active; 'I' for Inactive)
REMARK    1  A    between atoms: O_2  and  C_11
REMARK    2  A    between atoms: N_4  and  C_7
REMARK    3  A    between atoms: N_4  and  C_15
REMARK    4  A    between atoms: N_5  and  C_13
REMARK    5  A    between atoms: C_6  and  C_14
REMARK    6  A    between atoms: C_10  and  C_13
REMARK    7  A    between atoms: C_15  and  C_16
REMARK    8  A    between atoms: C_15  and  C_17
REMARK                            x       y       z     vdW  Elec       q    Type
REMARK                         _______ _______ _______ _____ _____    ______ ____
ROOT
ATOM      1  O   UNL     1      -2.802   0.481  23.204  0.00  0.00    -0.371 OA
ATOM      7  C   UNL     1      -0.646   0.724  24.169  0.00  0.00    +0.111 C 
ATOM     10  C   UNL     1      -2.693  -0.414  24.325  0.00  0.00    +0.165 C 
ATOM     11  C   UNL     1      -1.592   0.154  25.210  0.00  0.00    +0.164 C 
ATOM     12  C   UNL     1      -1.622   1.303  23.160  0.00  0.00    +0.181 C 
ENDROOT
BRANCH  11   2
ATOM      2  O   UNL     1      -0.988  -0.847  26.007  0.00  0.00    -0.388 OA
ATOM     20  H   UNL     1      -1.692  -1.404  26.384  0.00  0.00    +0.210 HD
ENDBRANCH  11   2
BRANCH   7   4
ATOM      4  N   UNL     1       0.275   1.716  24.699  0.00  0.00    -0.307 NA
ATOM     18  H   UNL     1       0.640   2.296  23.943  0.00  0.00    +0.123 HD
BRANCH   4  15
ATOM     15  C   UNL     1      -0.373   2.555  25.700  0.00  0.00    +0.048 C 
ATOM     16  C   UNL     1      -0.604   3.957  25.145  0.00  0.00    +0.023 C 
ATOM     17  C   UNL     1       0.484   2.598  26.961  0.00  0.00    +0.023 C 
ENDBRANCH   4  15
ENDBRANCH   7   4
BRANCH  10  13
ATOM     13  C   UNL     1      -4.035  -0.519  25.029  0.00  0.00    +0.138 C 
BRANCH  13   5
ATOM      3  O   UNL     1      -6.039   1.430  24.227  0.00  0.00    -0.276 OA
ATOM      5  N   UNL     1      -4.374   0.708  25.689  0.00  0.00    -0.313 N 
ATOM     14  C   UNL     1      -5.351   1.580  25.230  0.00  0.00    +0.216 C 
ATOM     19  H   UNL     1      -3.869   0.941  26.539  0.00  0.00    +0.149 HD
BRANCH  14   6
ATOM      6  C   UNL     1      -5.540   2.795  26.076  0.00  0.00    +0.075 C 
ATOM      8  C   UNL     1      -4.436   3.798  26.140  0.00  0.00    +0.013 C 
ATOM      9  C   UNL     1      -5.700   4.116  25.399  0.00  0.00    +0.013 C 
ENDBRANCH  14   6
ENDBRANCH  13   5
ENDBRANCH  10  13
TORSDOF 6
ENDMDL
