MODEL 1
REMARK VINA RESULT:       0.3      0.000      0.000
REMARK  Name = 75536178
REMARK  11 active torsions:
REMARK  status: ('A' for Active; 'I' for Inactive)
REMARK    1  A    between atoms: O_2  and  C_10
REMARK    2  A    between atoms: N_5  and  C_12
REMARK    3  A    between atoms: N_6  and  C_23
REMARK    4  A    between atoms: N_7  and  C_33
REMARK    5  A    between atoms: C_9  and  C_10
REMARK    6  A    between atoms: C_10  and  C_15
REMARK    7  A    between atoms: C_12  and  C_14
REMARK    8  A    between atoms: C_14  and  C_17
REMARK    9  A    between atoms: C_17  and  C_20
REMARK   10  A    between atoms: C_29  and  C_30
REMARK   11  A    between atoms: C_32  and  C_34
REMARK                            x       y       z     vdW  Elec       q    Type
REMARK                         _______ _______ _______ _____ _____    ______ ____
ROOT
ATOM     10  C   UNL     1      -3.281   3.360  24.312  0.00  0.00    +0.167 C 
ENDROOT
BRANCH  10   9
ATOM      1  O   UNL     1      -5.612   4.777  25.394  0.00  0.00    -0.369 OA
ATOM      3  O   UNL     1      -7.179   1.553  24.950  0.00  0.00    -0.273 OA
ATOM      5  N   UNL     1      -4.979   2.049  25.528  0.00  0.00    -0.292 N 
ATOM      9  C   UNL     1      -3.947   3.083  25.663  0.00  0.00    +0.135 C 
ATOM     11  C   UNL     1      -4.555   4.354  26.246  0.00  0.00    +0.185 C 
ATOM     13  C   UNL     1      -6.305   2.372  25.243  0.00  0.00    +0.242 C 
ATOM     16  C   UNL     1      -6.669   3.843  25.399  0.00  0.00    +0.255 C 
BRANCH   5  12
ATOM     12  C   UNL     1      -4.544   0.658  25.521  0.00  0.00    +0.108 C 
BRANCH  12  14
ATOM     14  C   UNL     1      -4.847  -0.046  24.201  0.00  0.00    +0.024 C 
BRANCH  14  17
ATOM     17  C   UNL     1      -4.246  -1.453  24.078  0.00  0.00    +0.036 C 
BRANCH  17  20
ATOM     20  C   UNL     1      -2.842  -1.565  24.615  0.00  0.00    -0.047 A 
ATOM     24  C   UNL     1      -2.419  -0.727  25.647  0.00  0.00    +0.003 A 
ATOM     25  C   UNL     1      -1.963  -2.507  24.077  0.00  0.00    +0.003 A 
ATOM     26  C   UNL     1      -1.120  -0.830  26.142  0.00  0.00    +0.000 A 
ATOM     27  C   UNL     1      -0.664  -2.611  24.573  0.00  0.00    +0.000 A 
ATOM     28  C   UNL     1      -0.241  -1.772  25.604  0.00  0.00    +0.000 A 
ENDBRANCH  17  20
ENDBRANCH  14  17
ENDBRANCH  12  14
ENDBRANCH   5  12
ENDBRANCH  10   9
BRANCH  10  15
ATOM     15  C   UNL     1      -1.905   2.750  24.231  0.00  0.00    -0.017 A 
ATOM     18  C   UNL     1      -0.897   3.189  25.091  0.00  0.00    +0.008 A 
ATOM     19  C   UNL     1      -1.638   1.748  23.299  0.00  0.00    +0.008 A 
ATOM     21  C   UNL     1       0.377   2.625  25.018  0.00  0.00    +0.023 A 
ATOM     22  C   UNL     1      -0.364   1.184  23.225  0.00  0.00    +0.023 A 
ATOM     23  C   UNL     1       0.643   1.623  24.085  0.00  0.00    +0.034 A 
BRANCH  23   6
ATOM      4  O   UNL     1       1.948   0.066  21.881  0.00  0.00    -0.268 OA
ATOM      6  N   UNL     1       1.917   1.059  24.011  0.00  0.00    -0.280 N 
ATOM     29  C   UNL     1       2.482   0.336  22.952  0.00  0.00    +0.266 C 
ATOM     36  H   UNL     1       2.493   1.193  24.840  0.00  0.00    +0.155 HD
BRANCH  29  30
ATOM      7  N   UNL     1       4.255  -1.292  23.741  0.00  0.00    -0.262 N 
ATOM      8  N   UNL     1       5.585  -1.465  23.814  0.00  0.00    -0.176 NA
ATOM     30  C   UNL     1       3.881  -0.115  23.162  0.00  0.00    +0.124 A 
ATOM     31  C   UNL     1       5.050   0.529  22.834  0.00  0.00    +0.057 A 
ATOM     32  C   UNL     1       6.066  -0.349  23.259  0.00  0.00    +0.061 A 
ATOM     33  C   UNL     1       3.380  -2.321  24.257  0.00  0.00    +0.173 C 
ATOM     34  C   UNL     1       7.521  -0.154  23.149  0.00  0.00    +0.067 C 
ENDBRANCH  29  30
ENDBRANCH  23   6
ENDBRANCH  10  15
BRANCH  10   2
ATOM      2  O   UNL     1      -4.096   2.835  23.269  0.00  0.00    -0.385 OA
ATOM     35  H   UNL     1      -3.597   2.865  22.435  0.00  0.00    +0.210 HD
ENDBRANCH  10   2
TORSDOF 9
ENDMDL
MODEL 2
REMARK VINA RESULT:       3.5      1.585      2.231
REMARK  Name = 75536178
REMARK  11 active torsions:
REMARK  status: ('A' for Active; 'I' for Inactive)
REMARK    1  A    between atoms: O_2  and  C_10
REMARK    2  A    between atoms: N_5  and  C_12
REMARK    3  A    between atoms: N_6  and  C_23
REMARK    4  A    between atoms: N_7  and  C_33
REMARK    5  A    between atoms: C_9  and  C_10
REMARK    6  A    between atoms: C_10  and  C_15
REMARK    7  A    between atoms: C_12  and  C_14
REMARK    8  A    between atoms: C_14  and  C_17
REMARK    9  A    between atoms: C_17  and  C_20
REMARK   10  A    between atoms: C_29  and  C_30
REMARK   11  A    between atoms: C_32  and  C_34
REMARK                            x       y       z     vdW  Elec       q    Type
REMARK                         _______ _______ _______ _____ _____    ______ ____
ROOT
ATOM     10  C   UNL     1      -3.622   4.234  26.376  0.00  0.00    +0.167 C 
ENDROOT
BRANCH  10   9
ATOM      1  O   UNL     1      -3.549   4.719  23.483  0.00  0.00    -0.369 OA
ATOM      3  O   UNL     1      -3.868   1.124  23.354  0.00  0.00    -0.273 OA
ATOM      5  N   UNL     1      -4.760   2.622  24.897  0.00  0.00    -0.292 N 
ATOM      9  C   UNL     1      -4.780   4.000  25.402  0.00  0.00    +0.135 C 
ATOM     11  C   UNL     1      -4.725   4.983  24.238  0.00  0.00    +0.185 C 
ATOM     13  C   UNL     1      -4.067   2.279  23.737  0.00  0.00    +0.242 C 
ATOM     16  C   UNL     1      -3.615   3.450  22.872  0.00  0.00    +0.255 C 
BRANCH   5  12
ATOM     12  C   UNL     1      -5.335   1.585  25.743  0.00  0.00    +0.108 C 
BRANCH  12  14
ATOM     14  C   UNL     1      -5.000   0.177  25.258  0.00  0.00    +0.024 C 
BRANCH  14  17
ATOM     17  C   UNL     1      -4.148  -0.646  26.234  0.00  0.00    +0.036 C 
BRANCH  17  20
ATOM     20  C   UNL     1      -3.013  -1.388  25.576  0.00  0.00    -0.047 A 
ATOM     24  C   UNL     1      -1.696  -1.133  25.962  0.00  0.00    +0.003 A 
ATOM     25  C   UNL     1      -3.278  -2.328  24.580  0.00  0.00    +0.003 A 
ATOM     26  C   UNL     1      -0.646  -1.818  25.352  0.00  0.00    +0.000 A 
ATOM     27  C   UNL     1      -2.228  -3.014  23.971  0.00  0.00    +0.000 A 
ATOM     28  C   UNL     1      -0.911  -2.759  24.356  0.00  0.00    +0.000 A 
ENDBRANCH  17  20
ENDBRANCH  14  17
ENDBRANCH  12  14
ENDBRANCH   5  12
ENDBRANCH  10   9
BRANCH  10  15
ATOM     15  C   UNL     1      -2.332   3.644  25.864  0.00  0.00    -0.017 A 
ATOM     18  C   UNL     1      -2.021   2.310  26.128  0.00  0.00    +0.008 A 
ATOM     19  C   UNL     1      -1.450   4.431  25.124  0.00  0.00    +0.008 A 
ATOM     21  C   UNL     1      -0.829   1.764  25.654  0.00  0.00    +0.023 A 
ATOM     22  C   UNL     1      -0.257   3.885  24.649  0.00  0.00    +0.023 A 
ATOM     23  C   UNL     1       0.053   2.551  24.915  0.00  0.00    +0.034 A 
BRANCH  23   6
ATOM      4  O   UNL     1       0.526   0.197  23.120  0.00  0.00    -0.268 OA
ATOM      6  N   UNL     1       1.246   2.005  24.440  0.00  0.00    -0.280 N 
ATOM     29  C   UNL     1       1.413   0.897  23.599  0.00  0.00    +0.266 C 
ATOM     36  H   UNL     1       2.089   2.478  24.757  0.00  0.00    +0.155 HD
BRANCH  29  30
ATOM      7  N   UNL     1       3.236   0.066  22.047  0.00  0.00    -0.262 N 
ATOM      8  N   UNL     1       4.562  -0.140  21.977  0.00  0.00    -0.176 NA
ATOM     30  C   UNL     1       2.819   0.573  23.243  0.00  0.00    +0.124 A 
ATOM     31  C   UNL     1       3.952   0.707  24.009  0.00  0.00    +0.057 A 
ATOM     32  C   UNL     1       4.994   0.253  23.178  0.00  0.00    +0.061 A 
ATOM     33  C   UNL     1       2.410  -0.253  20.905  0.00  0.00    +0.173 C 
ATOM     34  C   UNL     1       6.429   0.180  23.500  0.00  0.00    +0.067 C 
ENDBRANCH  29  30
ENDBRANCH  23   6
ENDBRANCH  10  15
BRANCH  10   2
ATOM      2  O   UNL     1      -3.456   5.632  26.585  0.00  0.00    -0.385 OA
ATOM     35  H   UNL     1      -3.429   6.077  25.721  0.00  0.00    +0.210 HD
ENDBRANCH  10   2
TORSDOF 9
ENDMDL
