MODEL 1
REMARK VINA RESULT:       2.1      0.000      0.000
REMARK  Name = 26743532
REMARK  6 active torsions:
REMARK  status: ('A' for Active; 'I' for Inactive)
REMARK    1  A    between atoms: O_1  and  C_11
REMARK    2  A    between atoms: N_3  and  C_13
REMARK    3  A    between atoms: C_9  and  C_14
REMARK    4  A    between atoms: C_13  and  C_15
REMARK    5  A    between atoms: C_18  and  C_22
REMARK    6  A    between atoms: C_21  and  C_23
REMARK                            x       y       z     vdW  Elec       q    Type
REMARK                         _______ _______ _______ _____ _____    ______ ____
ROOT
ATOM      3  N   UNL     1      -3.904   3.977  25.586  0.00  0.00    -0.285 NA
ATOM      9  C   UNL     1      -4.821   2.946  26.110  0.00  0.00    +0.149 C 
ATOM     10  C   UNL     1      -6.232   3.510  25.859  0.00  0.00    +0.061 C 
ATOM     11  C   UNL     1      -6.004   4.879  25.232  0.00  0.00    +0.130 C 
ATOM     12  C   UNL     1      -4.608   5.253  25.696  0.00  0.00    +0.116 C 
ENDROOT
BRANCH   9  14
ATOM      2  O   UNL     1      -5.644   1.101  24.735  0.00  0.00    -0.336 OA
ATOM      4  N   UNL     1      -3.559   0.811  25.502  0.00  0.00    -0.189 NA
ATOM      5  N   UNL     1      -5.218  -0.141  24.246  0.00  0.00    -0.054 NA
ATOM     14  C   UNL     1      -4.608   1.593  25.464  0.00  0.00    +0.245 A 
ATOM     18  C   UNL     1      -3.981  -0.240  24.741  0.00  0.00    +0.222 A 
BRANCH  18  22
ATOM      6  N   UNL     1      -1.813  -1.191  24.643  0.00  0.00    -0.249 NA
ATOM      8  N   UNL     1      -2.890  -3.667  23.885  0.00  0.00    -0.260 NA
ATOM     22  C   UNL     1      -3.139  -1.376  24.493  0.00  0.00    +0.129 A 
ATOM     24  C   UNL     1      -3.669  -2.592  24.121  0.00  0.00    +0.142 A 
ATOM     27  C   UNL     1      -1.035  -2.266  24.406  0.00  0.00    +0.131 A 
ATOM     30  C   UNL     1      -1.564  -3.481  24.033  0.00  0.00    +0.130 A 
ENDBRANCH  18  22
ENDBRANCH   9  14
BRANCH  11   1
ATOM      1  O   UNL     1      -6.972   5.806  25.685  0.00  0.00    -0.390 OA
ATOM     31  H   UNL     1      -6.587   6.696  25.599  0.00  0.00    +0.210 HD
ENDBRANCH  11   1
BRANCH   3  13
ATOM     13  C   UNL     1      -2.616   4.001  26.269  0.00  0.00    +0.120 C 
BRANCH  13  15
ATOM     15  C   UNL     1      -1.561   3.249  25.503  0.00  0.00    -0.033 A 
ATOM     16  C   UNL     1      -0.478   2.686  26.177  0.00  0.00    +0.005 A 
ATOM     17  C   UNL     1      -1.668   3.113  24.118  0.00  0.00    +0.005 A 
ATOM     19  C   UNL     1       0.500   1.988  25.468  0.00  0.00    +0.010 A 
ATOM     20  C   UNL     1      -0.692   2.415  23.409  0.00  0.00    +0.010 A 
ATOM     21  C   UNL     1       0.393   1.852  24.084  0.00  0.00    +0.000 A 
BRANCH  21  23
ATOM      7  N   UNL     1       2.664   1.607  23.486  0.00  0.00    -0.255 NA
ATOM     23  C   UNL     1       1.407   1.129  23.347  0.00  0.00    +0.071 A 
ATOM     25  C   UNL     1       1.076   0.033  22.566  0.00  0.00    +0.028 A 
ATOM     26  C   UNL     1       2.100  -0.614  21.885  0.00  0.00    +0.004 A 
ATOM     28  C   UNL     1       3.634   0.952  22.809  0.00  0.00    +0.111 A 
ATOM     29  C   UNL     1       3.406  -0.152  22.003  0.00  0.00    +0.020 A 
ENDBRANCH  21  23
ENDBRANCH  13  15
ENDBRANCH   3  13
TORSDOF 6
ENDMDL
MODEL 2
REMARK VINA RESULT:       2.1      2.643      4.556
REMARK  Name = 26743532
REMARK  6 active torsions:
REMARK  status: ('A' for Active; 'I' for Inactive)
REMARK    1  A    between atoms: O_1  and  C_11
REMARK    2  A    between atoms: N_3  and  C_13
REMARK    3  A    between atoms: C_9  and  C_14
REMARK    4  A    between atoms: C_13  and  C_15
REMARK    5  A    between atoms: C_18  and  C_22
REMARK    6  A    between atoms: C_21  and  C_23
REMARK                            x       y       z     vdW  Elec       q    Type
REMARK                         _______ _______ _______ _____ _____    ______ ____
ROOT
ATOM      3  N   UNL     1      -3.777   1.483  25.004  0.00  0.00    -0.285 NA
ATOM      9  C   UNL     1      -3.123   2.793  24.806  0.00  0.00    +0.149 C 
ATOM     10  C   UNL     1      -4.096   3.815  25.425  0.00  0.00    +0.061 C 
ATOM     11  C   UNL     1      -5.284   2.989  25.903  0.00  0.00    +0.130 C 
ATOM     12  C   UNL     1      -5.215   1.739  25.046  0.00  0.00    +0.116 C 
ENDROOT
BRANCH   9  14
ATOM      2  O   UNL     1      -0.723   3.191  24.588  0.00  0.00    -0.336 OA
ATOM      4  N   UNL     1      -1.371   2.625  26.656  0.00  0.00    -0.189 NA
ATOM      5  N   UNL     1       0.439   3.180  25.370  0.00  0.00    -0.054 NA
ATOM     14  C   UNL     1      -1.741   2.854  25.421  0.00  0.00    +0.245 A 
ATOM     18  C   UNL     1      -0.026   2.838  26.576  0.00  0.00    +0.222 A 
BRANCH  18  22
ATOM      6  N   UNL     1       2.117   3.061  27.562  0.00  0.00    -0.249 NA
ATOM      8  N   UNL     1       1.137   2.089  30.004  0.00  0.00    -0.260 NA
ATOM     22  C   UNL     1       0.828   2.700  27.721  0.00  0.00    +0.129 A 
ATOM     24  C   UNL     1       0.346   2.223  28.921  0.00  0.00    +0.142 A 
ATOM     27  C   UNL     1       2.907   2.927  28.646  0.00  0.00    +0.131 A 
ATOM     30  C   UNL     1       2.426   2.449  29.845  0.00  0.00    +0.130 A 
ENDBRANCH  18  22
ENDBRANCH   9  14
BRANCH  11   1
ATOM      1  O   UNL     1      -6.496   3.693  25.706  0.00  0.00    -0.390 OA
ATOM     31  H   UNL     1      -7.056   3.152  25.124  0.00  0.00    +0.210 HD
ENDBRANCH  11   1
BRANCH   3  13
ATOM     13  C   UNL     1      -3.423   0.505  23.983  0.00  0.00    +0.120 C 
BRANCH  13  15
ATOM     15  C   UNL     1      -1.933   0.355  23.842  0.00  0.00    -0.033 A 
ATOM     16  C   UNL     1      -1.227  -0.465  24.723  0.00  0.00    +0.005 A 
ATOM     17  C   UNL     1      -1.255   1.035  22.829  0.00  0.00    +0.005 A 
ATOM     19  C   UNL     1       0.155  -0.605  24.592  0.00  0.00    +0.010 A 
ATOM     20  C   UNL     1       0.126   0.896  22.698  0.00  0.00    +0.010 A 
ATOM     21  C   UNL     1       0.831   0.076  23.580  0.00  0.00    +0.000 A 
BRANCH  21  23
ATOM      7  N   UNL     1       2.906   1.025  22.972  0.00  0.00    -0.255 NA
ATOM     23  C   UNL     1       2.265  -0.068  23.444  0.00  0.00    +0.071 A 
ATOM     25  C   UNL     1       2.898  -1.254  23.779  0.00  0.00    +0.028 A 
ATOM     26  C   UNL     1       4.277  -1.322  23.623  0.00  0.00    +0.004 A 
ATOM     28  C   UNL     1       4.246   0.921  22.834  0.00  0.00    +0.111 A 
ATOM     29  C   UNL     1       4.972  -0.218  23.142  0.00  0.00    +0.020 A 
ENDBRANCH  21  23
ENDBRANCH  13  15
ENDBRANCH   3  13
TORSDOF 6
ENDMDL
MODEL 3
REMARK VINA RESULT:       3.6      2.688      6.673
REMARK  Name = 26743532
REMARK  6 active torsions:
REMARK  status: ('A' for Active; 'I' for Inactive)
REMARK    1  A    between atoms: O_1  and  C_11
REMARK    2  A    between atoms: N_3  and  C_13
REMARK    3  A    between atoms: C_9  and  C_14
REMARK    4  A    between atoms: C_13  and  C_15
REMARK    5  A    between atoms: C_18  and  C_22
REMARK    6  A    between atoms: C_21  and  C_23
REMARK                            x       y       z     vdW  Elec       q    Type
REMARK                         _______ _______ _______ _____ _____    ______ ____
ROOT
ATOM      3  N   UNL     1       2.407   1.299  23.604  0.00  0.00    -0.285 NA
ATOM      9  C   UNL     1       1.959   0.094  22.878  0.00  0.00    +0.149 C 
ATOM     10  C   UNL     1       3.205  -0.808  22.806  0.00  0.00    +0.061 C 
ATOM     11  C   UNL     1       4.312  -0.006  23.479  0.00  0.00    +0.130 C 
ATOM     12  C   UNL     1       3.839   1.430  23.347  0.00  0.00    +0.116 C 
ENDROOT
BRANCH   9  14
ATOM      2  O   UNL     1       0.981  -1.030  24.815  0.00  0.00    -0.336 OA
ATOM      4  N   UNL     1      -0.418  -0.817  23.079  0.00  0.00    -0.189 NA
ATOM      5  N   UNL     1      -0.228  -1.615  25.215  0.00  0.00    -0.054 NA
ATOM     14  C   UNL     1       0.782  -0.586  23.546  0.00  0.00    +0.245 A 
ATOM     18  C   UNL     1      -1.002  -1.449  24.138  0.00  0.00    +0.222 A 
BRANCH  18  22
ATOM      6  N   UNL     1      -3.264  -1.054  23.558  0.00  0.00    -0.249 NA
ATOM      8  N   UNL     1      -3.993  -3.586  24.518  0.00  0.00    -0.260 NA
ATOM     22  C   UNL     1      -2.362  -1.904  24.088  0.00  0.00    +0.129 A 
ATOM     24  C   UNL     1      -2.719  -3.148  24.559  0.00  0.00    +0.142 A 
ATOM     27  C   UNL     1      -4.538  -1.494  23.518  0.00  0.00    +0.131 A 
ATOM     30  C   UNL     1      -4.896  -2.737  23.990  0.00  0.00    +0.130 A 
ENDBRANCH  18  22
ENDBRANCH   9  14
BRANCH  11   1
ATOM      1  O   UNL     1       5.550  -0.212  22.824  0.00  0.00    -0.390 OA
ATOM     31  H   UNL     1       6.114   0.556  23.019  0.00  0.00    +0.210 HD
ENDBRANCH  11   1
BRANCH   3  13
ATOM     13  C   UNL     1       1.671   2.501  23.232  0.00  0.00    +0.120 C 
BRANCH  13  15
ATOM     15  C   UNL     1       0.251   2.465  23.730  0.00  0.00    -0.033 A 
ATOM     16  C   UNL     1      -0.806   2.421  22.821  0.00  0.00    +0.005 A 
ATOM     17  C   UNL     1      -0.009   2.475  25.101  0.00  0.00    +0.005 A 
ATOM     19  C   UNL     1      -2.123   2.388  23.282  0.00  0.00    +0.010 A 
ATOM     20  C   UNL     1      -1.324   2.441  25.563  0.00  0.00    +0.010 A 
ATOM     21  C   UNL     1      -2.381   2.398  24.653  0.00  0.00    +0.000 A 
BRANCH  21  23
ATOM      7  N   UNL     1      -4.289   3.574  25.395  0.00  0.00    -0.255 NA
ATOM     23  C   UNL     1      -3.747   2.364  25.132  0.00  0.00    +0.071 A 
ATOM     25  C   UNL     1      -4.414   1.161  25.298  0.00  0.00    +0.028 A 
ATOM     26  C   UNL     1      -5.724   1.204  25.763  0.00  0.00    +0.004 A 
ATOM     28  C   UNL     1      -5.564   3.575  25.845  0.00  0.00    +0.111 A 
ATOM     29  C   UNL     1      -6.317   2.429  26.044  0.00  0.00    +0.020 A 
ENDBRANCH  21  23
ENDBRANCH  13  15
ENDBRANCH   3  13
TORSDOF 6
ENDMDL
MODEL 4
REMARK VINA RESULT:       5.7      3.000      6.072
REMARK  Name = 26743532
REMARK  6 active torsions:
REMARK  status: ('A' for Active; 'I' for Inactive)
REMARK    1  A    between atoms: O_1  and  C_11
REMARK    2  A    between atoms: N_3  and  C_13
REMARK    3  A    between atoms: C_9  and  C_14
REMARK    4  A    between atoms: C_13  and  C_15
REMARK    5  A    between atoms: C_18  and  C_22
REMARK    6  A    between atoms: C_21  and  C_23
REMARK                            x       y       z     vdW  Elec       q    Type
REMARK                         _______ _______ _______ _____ _____    ______ ____
ROOT
ATOM      3  N   UNL     1      -2.877  -0.024  23.471  0.00  0.00    -0.285 NA
ATOM      9  C   UNL     1      -1.826  -0.794  24.166  0.00  0.00    +0.149 C 
ATOM     10  C   UNL     1      -2.310  -2.256  24.114  0.00  0.00    +0.061 C 
ATOM     11  C   UNL     1      -3.660  -2.199  23.411  0.00  0.00    +0.130 C 
ATOM     12  C   UNL     1      -4.120  -0.772  23.641  0.00  0.00    +0.116 C 
ENDROOT
BRANCH   9  14
ATOM      2  O   UNL     1      -0.426  -0.421  22.197  0.00  0.00    -0.336 OA
ATOM      4  N   UNL     1       0.720  -0.604  24.114  0.00  0.00    -0.189 NA
ATOM      5  N   UNL     1       0.925  -0.278  21.858  0.00  0.00    -0.054 NA
ATOM     14  C   UNL     1      -0.458  -0.609  23.543  0.00  0.00    +0.245 A 
ATOM     18  C   UNL     1       1.537  -0.397  23.040  0.00  0.00    +0.222 A 
BRANCH  18  22
ATOM      6  N   UNL     1       3.581  -1.389  23.710  0.00  0.00    -0.249 NA
ATOM      8  N   UNL     1       4.995   0.904  22.929  0.00  0.00    -0.260 NA
ATOM     22  C   UNL     1       2.962  -0.314  23.184  0.00  0.00    +0.129 A 
ATOM     24  C   UNL     1       3.656   0.813  22.800  0.00  0.00    +0.142 A 
ATOM     27  C   UNL     1       4.920  -1.297  23.839  0.00  0.00    +0.131 A 
ATOM     30  C   UNL     1       5.614  -0.171  23.456  0.00  0.00    +0.130 A 
ENDBRANCH  18  22
ENDBRANCH   9  14
BRANCH  11   1
ATOM      1  O   UNL     1      -4.559  -3.137  23.973  0.00  0.00    -0.390 OA
ATOM     31  H   UNL     1      -5.387  -3.089  23.464  0.00  0.00    +0.210 HD
ENDBRANCH  11   1
BRANCH   3  13
ATOM     13  C   UNL     1      -2.992   1.349  23.946  0.00  0.00    +0.120 C 
BRANCH  13  15
ATOM     15  C   UNL     1      -1.968   1.664  25.003  0.00  0.00    -0.033 A 
ATOM     16  C   UNL     1      -1.294   2.885  24.979  0.00  0.00    +0.005 A 
ATOM     17  C   UNL     1      -1.693   0.735  26.008  0.00  0.00    +0.005 A 
ATOM     19  C   UNL     1      -0.345   3.178  25.959  0.00  0.00    +0.010 A 
ATOM     20  C   UNL     1      -0.745   1.028  26.987  0.00  0.00    +0.010 A 
ATOM     21  C   UNL     1      -0.070   2.249  26.963  0.00  0.00    +0.000 A 
BRANCH  21  23
ATOM      7  N   UNL     1       2.054   3.115  27.520  0.00  0.00    -0.255 NA
ATOM     23  C   UNL     1       0.915   2.552  27.979  0.00  0.00    +0.071 A 
ATOM     25  C   UNL     1       0.672   2.269  29.314  0.00  0.00    +0.028 A 
ATOM     26  C   UNL     1       1.662   2.586  30.236  0.00  0.00    +0.004 A 
ATOM     28  C   UNL     1       2.994   3.409  28.446  0.00  0.00    +0.111 A 
ATOM     29  C   UNL     1       2.848   3.167  29.802  0.00  0.00    +0.020 A 
ENDBRANCH  21  23
ENDBRANCH  13  15
ENDBRANCH   3  13
TORSDOF 6
ENDMDL
