MODEL 1
REMARK VINA RESULT:       3.3      0.000      0.000
REMARK  Name = 9419221
REMARK  4 active torsions:
REMARK  status: ('A' for Active; 'I' for Inactive)
REMARK    1  A    between atoms: N_3  and  C_13
REMARK    2  A    between atoms: C_13  and  C_19
REMARK    3  A    between atoms: C_14  and  C_18
REMARK    4  A    between atoms: C_24  and  C_28
REMARK                            x       y       z     vdW  Elec       q    Type
REMARK                         _______ _______ _______ _____ _____    ______ ____
ROOT
ATOM      2  O   UNL     1      -0.632   6.058  24.690  0.00  0.00    -0.268 OA
ATOM      3  N   UNL     1       0.385   1.251  23.842  0.00  0.00    -0.297 NA
ATOM      4  N   UNL     1      -1.051   3.792  25.108  0.00  0.00    -0.311 N 
ATOM      6  C   UNL     1       0.741   2.251  26.107  0.00  0.00    +0.024 C 
ATOM      7  C   UNL     1      -1.460   1.349  25.530  0.00  0.00    +0.051 C 
ATOM      8  C   UNL     1      -0.446   1.484  26.664  0.00  0.00    +0.017 C 
ATOM      9  C   UNL     1       1.358   1.493  24.914  0.00  0.00    +0.090 C 
ATOM     10  C   UNL     1      -0.814   0.575  24.355  0.00  0.00    +0.094 C 
ATOM     11  C   UNL     1       0.276   3.659  25.728  0.00  0.00    +0.130 C 
ATOM     12  C   UNL     1      -1.963   2.720  25.068  0.00  0.00    +0.034 A 
ATOM     14  C   UNL     1      -3.227   2.923  24.614  0.00  0.00    +0.002 A 
ATOM     15  C   UNL     1      -1.385   5.083  24.664  0.00  0.00    +0.252 A 
ATOM     16  C   UNL     1      -3.607   4.241  24.142  0.00  0.00    +0.015 A 
ATOM     17  C   UNL     1      -2.758   5.268  24.142  0.00  0.00    +0.071 A 
ENDROOT
BRANCH  14  18
ATOM     18  C   UNL     1      -4.225   1.831  24.573  0.00  0.00    -0.015 A 
ATOM     20  C   UNL     1      -3.813   0.528  24.309  0.00  0.00    +0.027 A 
ATOM     22  C   UNL     1      -5.568   2.116  24.797  0.00  0.00    +0.008 A 
ATOM     24  C   UNL     1      -4.755  -0.501  24.271  0.00  0.00    +0.052 A 
ATOM     26  C   UNL     1      -6.510   1.087  24.759  0.00  0.00    +0.002 A 
ATOM     27  C   UNL     1      -6.103  -0.221  24.496  0.00  0.00    +0.019 A 
BRANCH  24  28
ATOM      5  N   UNL     1      -4.004  -2.932  23.782  0.00  0.00    -0.191 NA
ATOM     28  C   UNL     1      -4.340  -1.841  24.001  0.00  0.00    +0.099 C 
ENDBRANCH  24  28
ENDBRANCH  14  18
BRANCH   3  13
ATOM     13  C   UNL     1       0.988   0.490  22.751  0.00  0.00    +0.126 C 
BRANCH  13  19
ATOM      1  S   UNL     1       3.046  -1.176  23.526  0.00  0.00    -0.100 S 
ATOM     19  C   UNL     1       2.467   0.313  22.941  0.00  0.00    +0.004 A 
ATOM     21  C   UNL     1       3.455   1.222  22.700  0.00  0.00    +0.012 A 
ATOM     23  C   UNL     1       4.739   0.685  23.004  0.00  0.00    +0.008 A 
ATOM     25  C   UNL     1       4.662  -0.613  23.463  0.00  0.00    +0.045 A 
ENDBRANCH  13  19
ENDBRANCH   3  13
TORSDOF 4
ENDMDL
MODEL 2
REMARK VINA RESULT:       3.4      1.310      2.148
REMARK  Name = 9419221
REMARK  4 active torsions:
REMARK  status: ('A' for Active; 'I' for Inactive)
REMARK    1  A    between atoms: N_3  and  C_13
REMARK    2  A    between atoms: C_13  and  C_19
REMARK    3  A    between atoms: C_14  and  C_18
REMARK    4  A    between atoms: C_24  and  C_28
REMARK                            x       y       z     vdW  Elec       q    Type
REMARK                         _______ _______ _______ _____ _____    ______ ____
ROOT
ATOM      2  O   UNL     1      -2.892   4.816  24.124  0.00  0.00    -0.268 OA
ATOM      3  N   UNL     1       0.578   1.289  23.505  0.00  0.00    -0.297 NA
ATOM      4  N   UNL     1      -1.944   2.770  24.756  0.00  0.00    -0.311 N 
ATOM      6  C   UNL     1       0.465   2.610  25.627  0.00  0.00    +0.024 C 
ATOM      7  C   UNL     1      -0.889   0.583  25.404  0.00  0.00    +0.051 C 
ATOM      8  C   UNL     1      -0.052   1.399  26.386  0.00  0.00    +0.017 C 
ATOM      9  C   UNL     1       1.319   2.163  24.423  0.00  0.00    +0.090 C 
ATOM     10  C   UNL     1      -0.002   0.142  24.217  0.00  0.00    +0.094 C 
ATOM     11  C   UNL     1      -0.732   3.468  25.209  0.00  0.00    +0.130 C 
ATOM     12  C   UNL     1      -2.102   1.379  24.912  0.00  0.00    +0.034 A 
ATOM     14  C   UNL     1      -3.290   0.794  24.611  0.00  0.00    +0.002 A 
ATOM     15  C   UNL     1      -2.971   3.595  24.266  0.00  0.00    +0.252 A 
ATOM     16  C   UNL     1      -4.372   1.613  24.097  0.00  0.00    +0.015 A 
ATOM     17  C   UNL     1      -4.244   2.927  23.913  0.00  0.00    +0.071 A 
ENDROOT
BRANCH  14  18
ATOM     18  C   UNL     1      -3.509  -0.659  24.778  0.00  0.00    -0.015 A 
ATOM     20  C   UNL     1      -4.151  -1.382  23.776  0.00  0.00    +0.027 A 
ATOM     22  C   UNL     1      -3.072  -1.294  25.937  0.00  0.00    +0.008 A 
ATOM     24  C   UNL     1      -4.356  -2.752  23.934  0.00  0.00    +0.052 A 
ATOM     26  C   UNL     1      -3.277  -2.665  26.094  0.00  0.00    +0.002 A 
ATOM     27  C   UNL     1      -3.919  -3.394  25.093  0.00  0.00    +0.019 A 
BRANCH  24  28
ATOM      5  N   UNL     1      -5.549  -4.109  22.077  0.00  0.00    -0.191 NA
ATOM     28  C   UNL     1      -5.014  -3.501  22.910  0.00  0.00    +0.099 C 
ENDBRANCH  24  28
ENDBRANCH  14  18
BRANCH   3  13
ATOM     13  C   UNL     1       1.430   0.847  22.404  0.00  0.00    +0.126 C 
BRANCH  13  19
ATOM      1  S   UNL     1       3.058  -1.090  23.505  0.00  0.00    -0.100 S 
ATOM     19  C   UNL     1       2.805   0.470  22.875  0.00  0.00    +0.004 A 
ATOM     21  C   UNL     1       3.931   1.240  22.867  0.00  0.00    +0.012 A 
ATOM     23  C   UNL     1       5.047   0.531  23.397  0.00  0.00    +0.008 A 
ATOM     25  C   UNL     1       4.712  -0.749  23.782  0.00  0.00    +0.045 A 
ENDBRANCH  13  19
ENDBRANCH   3  13
TORSDOF 4
ENDMDL
MODEL 3
REMARK VINA RESULT:       4.0      1.987      2.892
REMARK  Name = 9419221
REMARK  4 active torsions:
REMARK  status: ('A' for Active; 'I' for Inactive)
REMARK    1  A    between atoms: N_3  and  C_13
REMARK    2  A    between atoms: C_13  and  C_19
REMARK    3  A    between atoms: C_14  and  C_18
REMARK    4  A    between atoms: C_24  and  C_28
REMARK                            x       y       z     vdW  Elec       q    Type
REMARK                         _______ _______ _______ _____ _____    ______ ____
ROOT
ATOM      2  O   UNL     1      -4.689   4.771  24.930  0.00  0.00    -0.268 OA
ATOM      3  N   UNL     1      -0.162   2.829  24.157  0.00  0.00    -0.297 NA
ATOM      4  N   UNL     1      -3.105   3.094  25.335  0.00  0.00    -0.311 N 
ATOM      6  C   UNL     1      -0.844   3.610  26.433  0.00  0.00    +0.024 C 
ATOM      7  C   UNL     1      -1.372   1.321  25.745  0.00  0.00    +0.051 C 
ATOM      8  C   UNL     1      -0.931   2.177  26.931  0.00  0.00    +0.017 C 
ATOM      9  C   UNL     1       0.171   3.717  25.277  0.00  0.00    +0.090 C 
ATOM     10  C   UNL     1      -0.328   1.441  24.609  0.00  0.00    +0.094 C 
ATOM     11  C   UNL     1      -2.247   4.068  26.025  0.00  0.00    +0.130 C 
ATOM     12  C   UNL     1      -2.763   1.730  25.251  0.00  0.00    +0.034 A 
ATOM     14  C   UNL     1      -3.648   0.841  24.731  0.00  0.00    +0.002 A 
ATOM     15  C   UNL     1      -4.334   3.593  24.869  0.00  0.00    +0.252 A 
ATOM     16  C   UNL     1      -4.925   1.320  24.234  0.00  0.00    +0.015 A 
ATOM     17  C   UNL     1      -5.266   2.607  24.275  0.00  0.00    +0.071 A 
ENDROOT
BRANCH  14  18
ATOM     18  C   UNL     1      -3.341  -0.603  24.642  0.00  0.00    -0.015 A 
ATOM     20  C   UNL     1      -2.071  -1.062  24.980  0.00  0.00    +0.027 A 
ATOM     22  C   UNL     1      -4.323  -1.493  24.220  0.00  0.00    +0.008 A 
ATOM     24  C   UNL     1      -1.782  -2.424  24.897  0.00  0.00    +0.052 A 
ATOM     26  C   UNL     1      -4.034  -2.856  24.136  0.00  0.00    +0.002 A 
ATOM     27  C   UNL     1      -2.763  -3.321  24.474  0.00  0.00    +0.019 A 
BRANCH  24  28
ATOM      5  N   UNL     1       0.578  -3.290  25.523  0.00  0.00    -0.191 NA
ATOM     28  C   UNL     1      -0.480  -2.902  25.242  0.00  0.00    +0.099 C 
ENDBRANCH  24  28
ENDBRANCH  14  18
BRANCH   3  13
ATOM     13  C   UNL     1       0.844   2.920  23.102  0.00  0.00    +0.126 C 
BRANCH  13  19
ATOM      1  S   UNL     1       0.917   0.171  22.865  0.00  0.00    -0.100 S 
ATOM     19  C   UNL     1       1.688   1.680  23.023  0.00  0.00    +0.004 A 
ATOM     21  C   UNL     1       3.048   1.592  23.065  0.00  0.00    +0.012 A 
ATOM     23  C   UNL     1       3.483   0.239  22.963  0.00  0.00    +0.008 A 
ATOM     25  C   UNL     1       2.426  -0.637  22.848  0.00  0.00    +0.045 A 
ENDBRANCH  13  19
ENDBRANCH   3  13
TORSDOF 4
ENDMDL
MODEL 4
REMARK VINA RESULT:       4.6      2.894      5.012
REMARK  Name = 9419221
REMARK  4 active torsions:
REMARK  status: ('A' for Active; 'I' for Inactive)
REMARK    1  A    between atoms: N_3  and  C_13
REMARK    2  A    between atoms: C_13  and  C_19
REMARK    3  A    between atoms: C_14  and  C_18
REMARK    4  A    between atoms: C_24  and  C_28
REMARK                            x       y       z     vdW  Elec       q    Type
REMARK                         _______ _______ _______ _____ _____    ______ ____
ROOT
ATOM      2  O   UNL     1       0.074  -2.691  25.595  0.00  0.00    -0.268 OA
ATOM      3  N   UNL     1      -0.016   2.288  25.345  0.00  0.00    -0.297 NA
ATOM      4  N   UNL     1      -0.845  -0.720  24.725  0.00  0.00    -0.311 N 
ATOM      6  C   UNL     1       0.551   0.919  23.330  0.00  0.00    +0.024 C 
ATOM      7  C   UNL     1      -1.795   1.421  23.814  0.00  0.00    +0.051 C 
ATOM      8  C   UNL     1      -0.779   1.266  22.684  0.00  0.00    +0.017 C 
ATOM      9  C   UNL     1       0.984   2.037  24.300  0.00  0.00    +0.090 C 
ATOM     10  C   UNL     1      -1.338   2.555  24.761  0.00  0.00    +0.094 C 
ATOM     11  C   UNL     1       0.416  -0.439  24.024  0.00  0.00    +0.130 C 
ATOM     12  C   UNL     1      -1.976   0.108  24.583  0.00  0.00    +0.034 A 
ATOM     14  C   UNL     1      -3.160  -0.262  25.134  0.00  0.00    +0.002 A 
ATOM     15  C   UNL     1      -0.879  -1.923  25.451  0.00  0.00    +0.252 A 
ATOM     16  C   UNL     1      -3.233  -1.495  25.895  0.00  0.00    +0.015 A 
ATOM     17  C   UNL     1      -2.174  -2.286  26.070  0.00  0.00    +0.071 A 
ENDROOT
BRANCH  14  18
ATOM     18  C   UNL     1      -4.378   0.565  24.992  0.00  0.00    -0.015 A 
ATOM     20  C   UNL     1      -4.356   1.901  25.386  0.00  0.00    +0.027 A 
ATOM     22  C   UNL     1      -5.538   0.003  24.469  0.00  0.00    +0.008 A 
ATOM     24  C   UNL     1      -5.505   2.680  25.252  0.00  0.00    +0.052 A 
ATOM     26  C   UNL     1      -6.687   0.783  24.335  0.00  0.00    +0.002 A 
ATOM     27  C   UNL     1      -6.671   2.121  24.727  0.00  0.00    +0.019 A 
BRANCH  24  28
ATOM      5  N   UNL     1      -5.479   5.167  25.980  0.00  0.00    -0.191 NA
ATOM     28  C   UNL     1      -5.490   4.052  25.653  0.00  0.00    +0.099 C 
ENDBRANCH  24  28
ENDBRANCH  14  18
BRANCH   3  13
ATOM     13  C   UNL     1       0.403   3.383  26.216  0.00  0.00    +0.126 C 
BRANCH  13  19
ATOM      1  S   UNL     1       2.508   3.253  27.995  0.00  0.00    -0.100 S 
ATOM     19  C   UNL     1       0.911   2.885  27.538  0.00  0.00    +0.004 A 
ATOM     21  C   UNL     1       0.240   2.143  28.465  0.00  0.00    +0.012 A 
ATOM     23  C   UNL     1       1.059   1.861  29.596  0.00  0.00    +0.008 A 
ATOM     25  C   UNL     1       2.318   2.407  29.472  0.00  0.00    +0.045 A 
ENDBRANCH  13  19
ENDBRANCH   3  13
TORSDOF 4
ENDMDL
MODEL 5
REMARK VINA RESULT:       4.6      2.958      5.342
REMARK  Name = 9419221
REMARK  4 active torsions:
REMARK  status: ('A' for Active; 'I' for Inactive)
REMARK    1  A    between atoms: N_3  and  C_13
REMARK    2  A    between atoms: C_13  and  C_19
REMARK    3  A    between atoms: C_14  and  C_18
REMARK    4  A    between atoms: C_24  and  C_28
REMARK                            x       y       z     vdW  Elec       q    Type
REMARK                         _______ _______ _______ _____ _____    ______ ____
ROOT
ATOM      2  O   UNL     1       0.072  -3.005  25.693  0.00  0.00    -0.268 OA
ATOM      3  N   UNL     1      -0.067   1.904  24.831  0.00  0.00    -0.297 NA
ATOM      4  N   UNL     1      -0.897  -1.160  24.624  0.00  0.00    -0.311 N 
ATOM      6  C   UNL     1       0.430   0.297  22.980  0.00  0.00    +0.024 C 
ATOM      7  C   UNL     1      -1.899   0.848  23.494  0.00  0.00    +0.051 C 
ATOM      8  C   UNL     1      -0.929   0.557  22.351  0.00  0.00    +0.017 C 
ATOM      9  C   UNL     1       0.892   1.528  23.786  0.00  0.00    +0.090 C 
ATOM     10  C   UNL     1      -1.413   2.093  24.273  0.00  0.00    +0.094 C 
ATOM     11  C   UNL     1       0.332  -0.965  23.842  0.00  0.00    +0.130 C 
ATOM     12  C   UNL     1      -2.039  -0.359  24.426  0.00  0.00    +0.034 A 
ATOM     14  C   UNL     1      -3.197  -0.661  25.067  0.00  0.00    +0.002 A 
ATOM     15  C   UNL     1      -0.892  -2.263  25.494  0.00  0.00    +0.252 A 
ATOM     16  C   UNL     1      -3.229  -1.790  25.978  0.00  0.00    +0.015 A 
ATOM     17  C   UNL     1      -2.158  -2.550  26.206  0.00  0.00    +0.071 A 
ENDROOT
BRANCH  14  18
ATOM     18  C   UNL     1      -4.426   0.139  24.874  0.00  0.00    -0.015 A 
ATOM     20  C   UNL     1      -4.468   1.459  25.315  0.00  0.00    +0.027 A 
ATOM     22  C   UNL     1      -5.532  -0.433  24.254  0.00  0.00    +0.008 A 
ATOM     24  C   UNL     1      -5.628   2.213  25.133  0.00  0.00    +0.052 A 
ATOM     26  C   UNL     1      -6.691   0.321  24.072  0.00  0.00    +0.002 A 
ATOM     27  C   UNL     1      -6.739   1.644  24.511  0.00  0.00    +0.019 A 
BRANCH  24  28
ATOM      5  N   UNL     1      -5.719   4.670  25.949  0.00  0.00    -0.191 NA
ATOM     28  C   UNL     1      -5.678   3.568  25.583  0.00  0.00    +0.099 C 
ENDBRANCH  24  28
ENDBRANCH  14  18
BRANCH   3  13
ATOM     13  C   UNL     1       0.378   3.100  25.542  0.00  0.00    +0.126 C 
BRANCH  13  19
ATOM      1  S   UNL     1      -2.085   4.154  26.204  0.00  0.00    -0.100 S 
ATOM     19  C   UNL     1      -0.592   4.236  25.392  0.00  0.00    +0.004 A 
ATOM     21  C   UNL     1      -0.436   5.376  24.660  0.00  0.00    +0.012 A 
ATOM     23  C   UNL     1      -1.580   6.220  24.764  0.00  0.00    +0.008 A 
ATOM     25  C   UNL     1      -2.552   5.675  25.575  0.00  0.00    +0.045 A 
ENDBRANCH  13  19
ENDBRANCH   3  13
TORSDOF 4
ENDMDL
MODEL 6
REMARK VINA RESULT:       6.5      3.039      6.763
REMARK  Name = 9419221
REMARK  4 active torsions:
REMARK  status: ('A' for Active; 'I' for Inactive)
REMARK    1  A    between atoms: N_3  and  C_13
REMARK    2  A    between atoms: C_13  and  C_19
REMARK    3  A    between atoms: C_14  and  C_18
REMARK    4  A    between atoms: C_24  and  C_28
REMARK                            x       y       z     vdW  Elec       q    Type
REMARK                         _______ _______ _______ _____ _____    ______ ____
ROOT
ATOM      2  O   UNL     1       0.766  -0.761  21.609  0.00  0.00    -0.268 OA
ATOM      3  N   UNL     1      -3.462  -0.562  24.245  0.00  0.00    -0.297 NA
ATOM      4  N   UNL     1      -0.334  -0.665  23.675  0.00  0.00    -0.311 N 
ATOM      6  C   UNL     1      -1.925  -2.526  24.444  0.00  0.00    +0.024 C 
ATOM      7  C   UNL     1      -1.557  -0.569  25.868  0.00  0.00    +0.051 C 
ATOM      8  C   UNL     1      -1.509  -2.095  25.840  0.00  0.00    +0.017 C 
ATOM      9  C   UNL     1      -3.348  -2.021  24.129  0.00  0.00    +0.090 C 
ATOM     10  C   UNL     1      -2.998  -0.096  25.559  0.00  0.00    +0.094 C 
ATOM     11  C   UNL     1      -0.886  -2.008  23.446  0.00  0.00    +0.130 C 
ATOM     12  C   UNL     1      -0.561   0.037  24.875  0.00  0.00    +0.034 A 
ATOM     14  C   UNL     1       0.081   1.212  25.103  0.00  0.00    +0.002 A 
ATOM     15  C   UNL     1       0.520  -0.182  22.668  0.00  0.00    +0.252 A 
ATOM     16  C   UNL     1       0.967   1.745  24.085  0.00  0.00    +0.015 A 
ATOM     17  C   UNL     1       1.181   1.117  22.929  0.00  0.00    +0.071 A 
ENDROOT
BRANCH  14  18
ATOM     18  C   UNL     1      -0.111   1.973  26.357  0.00  0.00    -0.015 A 
ATOM     20  C   UNL     1       0.739   1.751  27.437  0.00  0.00    +0.027 A 
ATOM     22  C   UNL     1      -1.139   2.905  26.448  0.00  0.00    +0.008 A 
ATOM     24  C   UNL     1       0.558   2.470  28.619  0.00  0.00    +0.052 A 
ATOM     26  C   UNL     1      -1.319   3.624  27.630  0.00  0.00    +0.002 A 
ATOM     27  C   UNL     1      -0.471   3.406  28.716  0.00  0.00    +0.019 A 
BRANCH  24  28
ATOM      5  N   UNL     1       2.132   2.066  30.638  0.00  0.00    -0.191 NA
ATOM     28  C   UNL     1       1.426   2.247  29.732  0.00  0.00    +0.099 C 
ENDBRANCH  24  28
ENDBRANCH  14  18
BRANCH   3  13
ATOM     13  C   UNL     1      -4.831  -0.123  23.987  0.00  0.00    +0.126 C 
BRANCH  13  19
ATOM      1  S   UNL     1      -4.137   2.547  24.055  0.00  0.00    -0.100 S 
ATOM     19  C   UNL     1      -5.101   1.239  24.560  0.00  0.00    +0.004 A 
ATOM     21  C   UNL     1      -6.056   1.587  25.470  0.00  0.00    +0.012 A 
ATOM     23  C   UNL     1      -6.000   2.979  25.770  0.00  0.00    +0.008 A 
ATOM     25  C   UNL     1      -5.002   3.621  25.069  0.00  0.00    +0.045 A 
ENDBRANCH  13  19
ENDBRANCH   3  13
TORSDOF 4
ENDMDL
