MODEL 1
REMARK VINA RESULT:      -0.6      0.000      0.000
REMARK  Name = 7164930
REMARK  8 active torsions:
REMARK  status: ('A' for Active; 'I' for Inactive)
REMARK    1  A    between atoms: S_1  and  N_7
REMARK    2  A    between atoms: S_1  and  C_26
REMARK    3  A    between atoms: N_8  and  C_18
REMARK    4  A    between atoms: C_11  and  C_14
REMARK    5  A    between atoms: C_14  and  C_18
REMARK    6  A    between atoms: C_18  and  C_24
REMARK    7  A    between atoms: C_19  and  C_23
REMARK    8  A    between atoms: C_25  and  C_27
REMARK                            x       y       z     vdW  Elec       q    Type
REMARK                         _______ _______ _______ _____ _____    ______ ____
ROOT
ATOM      6  O   UNL     1       4.256   2.140  22.602  0.00  0.00    -0.276 OA
ATOM      7  N   UNL     1      -0.001  -0.235  24.033  0.00  0.00    -0.162 NA
ATOM      9  N   UNL     1       2.674   0.524  23.138  0.00  0.00    -0.298 N 
ATOM     19  C   UNL     1       0.508   1.165  24.117  0.00  0.00    +0.183 C 
ATOM     20  C   UNL     1       1.548   1.452  23.040  0.00  0.00    +0.137 C 
ATOM     21  C   UNL     1       0.871  -1.173  23.267  0.00  0.00    +0.129 C 
ATOM     22  C   UNL     1       2.342  -0.858  23.497  0.00  0.00    +0.125 C 
ATOM     25  C   UNL     1       3.971   0.979  22.904  0.00  0.00    +0.213 C 
ATOM     27  C   UNL     1       5.069  -0.049  23.032  0.00  0.00    +0.109 C 
ENDROOT
BRANCH  19  23
ATOM      2  O   UNL     1      -1.419   1.921  22.941  0.00  0.00    -0.274 OA
ATOM      8  N   UNL     1      -0.829   2.967  24.935  0.00  0.00    -0.303 N 
ATOM     23  C   UNL     1      -0.686   2.037  23.920  0.00  0.00    +0.234 C 
ATOM     33  H   UNL     1      -0.113   3.026  25.653  0.00  0.00    +0.149 HD
BRANCH   8  18
ATOM     18  C   UNL     1      -1.892   3.945  24.968  0.00  0.00    +0.159 C 
BRANCH  18  24
ATOM      5  O   UNL     1      -1.869   6.352  25.302  0.00  0.00    -0.274 OA
ATOM     10  N   UNL     1       0.006   5.348  24.433  0.00  0.00    -0.328 N 
ATOM     24  C   UNL     1      -1.277   5.338  24.940  0.00  0.00    +0.231 C 
ATOM     34  H   UNL     1       0.526   6.216  24.353  0.00  0.00    +0.145 HD
ATOM     35  H   UNL     1       0.477   4.506  24.119  0.00  0.00    +0.145 HD
ENDBRANCH  18  24
BRANCH  18  14
ATOM     14  C   UNL     1      -2.834   3.737  26.158  0.00  0.00    +0.035 C 
BRANCH  14  11
ATOM     11  C   UNL     1      -4.283   3.447  25.767  0.00  0.00    -0.009 C 
ATOM     12  C   UNL     1      -4.356   2.875  24.345  0.00  0.00    +0.003 C 
ATOM     13  C   UNL     1      -4.934   2.490  26.776  0.00  0.00    +0.003 C 
ATOM     15  C   UNL     1      -5.789   2.527  23.952  0.00  0.00    +0.000 C 
ATOM     16  C   UNL     1      -6.367   2.143  26.378  0.00  0.00    +0.000 C 
ATOM     17  C   UNL     1      -6.437   1.583  24.960  0.00  0.00    +0.000 C 
ENDBRANCH  14  11
ENDBRANCH  18  14
ENDBRANCH   8  18
ENDBRANCH  19  23
BRANCH   7   1
ATOM      1  S   UNL     1      -0.748  -0.868  25.439  0.00  0.00    +0.062 S 
ATOM      3  O   UNL     1      -1.036   0.219  26.352  0.00  0.00    -0.153 OA
ATOM      4  O   UNL     1      -0.014  -2.035  25.877  0.00  0.00    -0.153 OA
BRANCH   1  26
ATOM     26  C   UNL     1      -2.281  -1.416  24.754  0.00  0.00    +0.106 A 
ATOM     28  C   UNL     1      -2.484  -2.770  24.494  0.00  0.00    +0.028 A 
ATOM     29  C   UNL     1      -3.289  -0.493  24.473  0.00  0.00    +0.028 A 
ATOM     30  C   UNL     1      -3.694  -3.204  23.954  0.00  0.00    +0.002 A 
ATOM     31  C   UNL     1      -4.499  -0.926  23.932  0.00  0.00    +0.002 A 
ATOM     32  C   UNL     1      -4.702  -2.282  23.673  0.00  0.00    +0.000 A 
ENDBRANCH   1  26
ENDBRANCH   7   1
TORSDOF 7
ENDMDL
MODEL 2
REMARK VINA RESULT:       1.3      1.382      2.102
REMARK  Name = 7164930
REMARK  8 active torsions:
REMARK  status: ('A' for Active; 'I' for Inactive)
REMARK    1  A    between atoms: S_1  and  N_7
REMARK    2  A    between atoms: S_1  and  C_26
REMARK    3  A    between atoms: N_8  and  C_18
REMARK    4  A    between atoms: C_11  and  C_14
REMARK    5  A    between atoms: C_14  and  C_18
REMARK    6  A    between atoms: C_18  and  C_24
REMARK    7  A    between atoms: C_19  and  C_23
REMARK    8  A    between atoms: C_25  and  C_27
REMARK                            x       y       z     vdW  Elec       q    Type
REMARK                         _______ _______ _______ _____ _____    ______ ____
ROOT
ATOM      6  O   UNL     1       4.162   2.265  22.676  0.00  0.00    -0.276 OA
ATOM      7  N   UNL     1       0.006  -0.289  24.098  0.00  0.00    -0.162 NA
ATOM      9  N   UNL     1       2.629   0.585  23.152  0.00  0.00    -0.298 N 
ATOM     19  C   UNL     1       0.498   1.110  24.269  0.00  0.00    +0.183 C 
ATOM     20  C   UNL     1       1.486   1.498  23.174  0.00  0.00    +0.137 C 
ATOM     21  C   UNL     1       0.857  -1.149  23.224  0.00  0.00    +0.129 C 
ATOM     22  C   UNL     1       2.333  -0.827  23.416  0.00  0.00    +0.125 C 
ATOM     25  C   UNL     1       3.908   1.079  22.899  0.00  0.00    +0.213 C 
ATOM     27  C   UNL     1       5.024   0.064  22.899  0.00  0.00    +0.109 C 
ENDROOT
BRANCH  19  23
ATOM      2  O   UNL     1      -0.869   2.943  24.929  0.00  0.00    -0.274 OA
ATOM      8  N   UNL     1      -1.612   1.534  23.232  0.00  0.00    -0.303 N 
ATOM     23  C   UNL     1      -0.716   1.973  24.191  0.00  0.00    +0.234 C 
ATOM     33  H   UNL     1      -1.417   0.668  22.737  0.00  0.00    +0.149 HD
BRANCH   8  18
ATOM     18  C   UNL     1      -2.876   2.182  22.974  0.00  0.00    +0.159 C 
BRANCH  18  24
ATOM      5  O   UNL     1      -3.668   3.458  21.064  0.00  0.00    -0.274 OA
ATOM     10  N   UNL     1      -2.100   1.816  20.712  0.00  0.00    -0.328 N 
ATOM     24  C   UNL     1      -2.934   2.576  21.505  0.00  0.00    +0.231 C 
ATOM     34  H   UNL     1      -2.050   1.973  19.711  0.00  0.00    +0.145 HD
ATOM     35  H   UNL     1      -1.513   1.078  21.086  0.00  0.00    +0.145 HD
ENDBRANCH  18  24
BRANCH  18  14
ATOM     14  C   UNL     1      -3.122   3.366  23.916  0.00  0.00    +0.035 C 
BRANCH  14  11
ATOM     11  C   UNL     1      -4.453   3.307  24.663  0.00  0.00    -0.009 C 
ATOM     12  C   UNL     1      -5.259   2.073  24.237  0.00  0.00    +0.003 C 
ATOM     13  C   UNL     1      -4.223   3.312  26.181  0.00  0.00    +0.003 C 
ATOM     15  C   UNL     1      -6.571   1.963  25.009  0.00  0.00    +0.000 C 
ATOM     16  C   UNL     1      -5.537   3.200  26.950  0.00  0.00    +0.000 C 
ATOM     17  C   UNL     1      -6.340   1.977  26.517  0.00  0.00    +0.000 C 
ENDBRANCH  14  11
ENDBRANCH  18  14
ENDBRANCH   8  18
ENDBRANCH  19  23
BRANCH   7   1
ATOM      1  S   UNL     1      -0.669  -1.041  25.481  0.00  0.00    +0.062 S 
ATOM      3  O   UNL     1      -0.936  -0.033  26.485  0.00  0.00    -0.153 OA
ATOM      4  O   UNL     1       0.102  -2.224  25.798  0.00  0.00    -0.153 OA
BRANCH   1  26
ATOM     26  C   UNL     1      -2.221  -1.566  24.820  0.00  0.00    +0.106 A 
ATOM     28  C   UNL     1      -3.301  -0.684  24.792  0.00  0.00    +0.028 A 
ATOM     29  C   UNL     1      -2.366  -2.863  24.327  0.00  0.00    +0.028 A 
ATOM     30  C   UNL     1      -4.526  -1.099  24.271  0.00  0.00    +0.002 A 
ATOM     31  C   UNL     1      -3.591  -3.277  23.806  0.00  0.00    +0.002 A 
ATOM     32  C   UNL     1      -4.672  -2.395  23.777  0.00  0.00    +0.000 A 
ENDBRANCH   1  26
ENDBRANCH   7   1
TORSDOF 7
ENDMDL
MODEL 3
REMARK VINA RESULT:       3.2      2.793      4.971
REMARK  Name = 7164930
REMARK  8 active torsions:
REMARK  status: ('A' for Active; 'I' for Inactive)
REMARK    1  A    between atoms: S_1  and  N_7
REMARK    2  A    between atoms: S_1  and  C_26
REMARK    3  A    between atoms: N_8  and  C_18
REMARK    4  A    between atoms: C_11  and  C_14
REMARK    5  A    between atoms: C_14  and  C_18
REMARK    6  A    between atoms: C_18  and  C_24
REMARK    7  A    between atoms: C_19  and  C_23
REMARK    8  A    between atoms: C_25  and  C_27
REMARK                            x       y       z     vdW  Elec       q    Type
REMARK                         _______ _______ _______ _____ _____    ______ ____
ROOT
ATOM      6  O   UNL     1       1.329  -0.394  20.960  0.00  0.00    -0.276 OA
ATOM      7  N   UNL     1      -0.800   1.844  24.994  0.00  0.00    -0.162 NA
ATOM      9  N   UNL     1       0.904   0.422  23.094  0.00  0.00    -0.298 N 
ATOM     19  C   UNL     1      -1.050   1.857  23.523  0.00  0.00    +0.183 C 
ATOM     20  C   UNL     1      -0.529   0.591  22.851  0.00  0.00    +0.137 C 
ATOM     21  C   UNL     1       0.251   0.883  25.442  0.00  0.00    +0.129 C 
ATOM     22  C   UNL     1       1.383   0.804  24.426  0.00  0.00    +0.125 C 
ATOM     25  C   UNL     1       1.726  -0.071  22.081  0.00  0.00    +0.213 C 
ATOM     27  C   UNL     1       3.190  -0.209  22.423  0.00  0.00    +0.109 C 
ENDROOT
BRANCH  19  23
ATOM      2  O   UNL     1      -3.053   2.334  22.329  0.00  0.00    -0.274 OA
ATOM      8  N   UNL     1      -3.201   1.563  24.520  0.00  0.00    -0.303 N 
ATOM     23  C   UNL     1      -2.531   1.944  23.370  0.00  0.00    +0.234 C 
ATOM     33  H   UNL     1      -2.661   1.337  25.352  0.00  0.00    +0.149 HD
BRANCH   8  18
ATOM     18  C   UNL     1      -4.640   1.579  24.640  0.00  0.00    +0.159 C 
BRANCH  18  24
ATOM      5  O   UNL     1      -4.685   4.008  24.628  0.00  0.00    -0.274 OA
ATOM     10  N   UNL     1      -5.929   2.897  26.207  0.00  0.00    -0.328 N 
ATOM     24  C   UNL     1      -5.075   2.955  25.126  0.00  0.00    +0.231 C 
ATOM     34  H   UNL     1      -6.288   3.746  26.632  0.00  0.00    +0.145 HD
ATOM     35  H   UNL     1      -6.229   2.021  26.621  0.00  0.00    +0.145 HD
ENDBRANCH  18  24
BRANCH  18  14
ATOM     14  C   UNL     1      -5.160   0.443  25.528  0.00  0.00    +0.035 C 
BRANCH  14  11
ATOM     11  C   UNL     1      -4.364  -0.855  25.415  0.00  0.00    -0.009 C 
ATOM     12  C   UNL     1      -4.358  -1.363  23.966  0.00  0.00    +0.003 C 
ATOM     13  C   UNL     1      -2.932  -0.658  25.930  0.00  0.00    +0.003 C 
ATOM     15  C   UNL     1      -3.523  -2.632  23.817  0.00  0.00    +0.000 C 
ATOM     16  C   UNL     1      -2.099  -1.929  25.778  0.00  0.00    +0.000 C 
ATOM     17  C   UNL     1      -2.103  -2.436  24.339  0.00  0.00    +0.000 C 
ENDBRANCH  14  11
ENDBRANCH  18  14
ENDBRANCH   8  18
ENDBRANCH  19  23
BRANCH   7   1
ATOM      1  S   UNL     1      -0.836   3.358  25.794  0.00  0.00    +0.062 S 
ATOM      3  O   UNL     1      -2.162   3.577  26.333  0.00  0.00    -0.153 OA
ATOM      4  O   UNL     1      -0.200   4.350  24.954  0.00  0.00    -0.153 OA
BRANCH   1  26
ATOM     26  C   UNL     1       0.246   3.019  27.148  0.00  0.00    +0.106 A 
ATOM     28  C   UNL     1       1.614   3.257  27.023  0.00  0.00    +0.028 A 
ATOM     29  C   UNL     1      -0.268   2.511  28.342  0.00  0.00    +0.028 A 
ATOM     30  C   UNL     1       2.469   2.990  28.092  0.00  0.00    +0.002 A 
ATOM     31  C   UNL     1       0.587   2.243  29.410  0.00  0.00    +0.002 A 
ATOM     32  C   UNL     1       1.956   2.483  29.285  0.00  0.00    +0.000 A 
ENDBRANCH   1  26
ENDBRANCH   7   1
TORSDOF 7
ENDMDL
