MODEL 1
REMARK VINA RESULT:       8.3      0.000      0.000
REMARK  Name = 7134574
REMARK  8 active torsions:
REMARK  status: ('A' for Active; 'I' for Inactive)
REMARK    1  A    between atoms: N_7  and  C_24
REMARK    2  A    between atoms: N_9  and  C_15
REMARK    3  A    between atoms: N_11  and  C_33
REMARK    4  A    between atoms: C_12  and  C_18
REMARK    5  A    between atoms: C_13  and  C_27
REMARK    6  A    between atoms: C_18  and  C_24
REMARK    7  A    between atoms: C_24  and  C_31
REMARK    8  A    between atoms: C_25  and  C_26
REMARK                            x       y       z     vdW  Elec       q    Type
REMARK                         _______ _______ _______ _____ _____    ______ ____
ROOT
ATOM      2  O   UNL     1      -2.570   4.191  27.573  0.00  0.00    -0.274 OA
ATOM      6  N   UNL     1      -2.252   3.140  25.520  0.00  0.00    -0.289 N 
ATOM     13  C   UNL     1      -2.314   3.168  24.050  0.00  0.00    +0.164 C 
ATOM     14  C   UNL     1      -1.241   2.305  23.385  0.00  0.00    +0.054 C 
ATOM     15  C   UNL     1      -1.099   0.918  24.018  0.00  0.00    +0.078 C 
ATOM     19  C   UNL     1      -0.928   1.042  25.531  0.00  0.00    +0.041 C 
ATOM     20  C   UNL     1      -2.083   1.822  26.145  0.00  0.00    +0.110 C 
ATOM     26  C   UNL     1      -2.491   4.247  26.344  0.00  0.00    +0.233 C 
ENDROOT
BRANCH  15   9
ATOM      5  O   UNL     1       1.683   1.352  24.542  0.00  0.00    -0.253 OA
ATOM      9  N   UNL     1       0.011   0.200  23.438  0.00  0.00    -0.296 N 
ATOM     11  N   UNL     1       2.198  -0.374  23.038  0.00  0.00    -0.269 N 
ATOM     32  C   UNL     1       1.347   0.477  23.750  0.00  0.00    +0.304 C 
ATOM     41  H   UNL     1      -0.189  -0.589  22.831  0.00  0.00    +0.151 HD
ATOM     44  H   UNL     1       1.755  -1.047  22.417  0.00  0.00    +0.156 HD
BRANCH  11  33
ATOM      1  F   UNL     1       6.282  -2.412  24.524  0.00  0.00    -0.205 F 
ATOM     33  C   UNL     1       3.611  -0.416  23.071  0.00  0.00    +0.037 A 
ATOM     34  C   UNL     1       4.263  -1.412  23.796  0.00  0.00    +0.061 A 
ATOM     35  C   UNL     1       4.353   0.542  22.379  0.00  0.00    +0.023 A 
ATOM     36  C   UNL     1       5.657  -1.454  23.828  0.00  0.00    +0.125 A 
ATOM     37  C   UNL     1       5.747   0.500  22.411  0.00  0.00    +0.005 A 
ATOM     38  C   UNL     1       6.399  -0.497  23.136  0.00  0.00    +0.038 A 
ENDBRANCH  11  33
ENDBRANCH  15   9
BRANCH  26  25
ATOM      8  N   UNL     1      -3.627   5.377  24.599  0.00  0.00    -0.306 NA
ATOM     25  C   UNL     1      -2.646   5.567  25.666  0.00  0.00    +0.141 C 
ATOM     28  C   UNL     1      -1.359   6.026  24.990  0.00  0.00    +0.029 C 
ATOM     29  C   UNL     1      -1.687   6.034  23.505  0.00  0.00    +0.017 C 
ATOM     30  C   UNL     1      -3.191   6.212  23.483  0.00  0.00    +0.081 C 
ATOM     40  H   UNL     1      -4.564   5.632  24.906  0.00  0.00    +0.123 HD
ENDBRANCH  26  25
BRANCH  13  27
ATOM      3  O   UNL     1      -4.160   2.962  22.547  0.00  0.00    -0.274 OA
ATOM      7  N   UNL     1      -4.366   2.121  24.708  0.00  0.00    -0.302 N 
ATOM     27  C   UNL     1      -3.701   2.743  23.665  0.00  0.00    +0.234 C 
ATOM     39  H   UNL     1      -3.895   1.986  25.596  0.00  0.00    +0.150 HD
BRANCH   7  24
ATOM     24  C   UNL     1      -5.724   1.638  24.603  0.00  0.00    +0.159 C 
BRANCH  24  31
ATOM      4  O   UNL     1      -7.112   1.365  26.579  0.00  0.00    -0.274 OA
ATOM     10  N   UNL     1      -6.497   3.488  25.957  0.00  0.00    -0.328 N 
ATOM     31  C   UNL     1      -6.508   2.116  25.818  0.00  0.00    +0.231 C 
ATOM     42  H   UNL     1      -6.990   3.937  26.724  0.00  0.00    +0.145 HD
ATOM     43  H   UNL     1      -6.011   4.100  25.311  0.00  0.00    +0.145 HD
ENDBRANCH  24  31
BRANCH  24  18
ATOM     18  C   UNL     1      -5.786   0.119  24.418  0.00  0.00    +0.035 C 
BRANCH  18  12
ATOM     12  C   UNL     1      -4.436  -0.584  24.552  0.00  0.00    -0.009 C 
ATOM     16  C   UNL     1      -4.414  -1.877  23.725  0.00  0.00    +0.003 C 
ATOM     17  C   UNL     1      -4.121  -0.875  26.026  0.00  0.00    +0.003 C 
ATOM     21  C   UNL     1      -3.093  -2.626  23.884  0.00  0.00    +0.000 C 
ATOM     22  C   UNL     1      -2.801  -1.625  26.183  0.00  0.00    +0.000 C 
ATOM     23  C   UNL     1      -2.779  -2.904  25.351  0.00  0.00    +0.000 C 
ENDBRANCH  18  12
ENDBRANCH  24  18
ENDBRANCH   7  24
ENDBRANCH  13  27
TORSDOF 8
ENDMDL
MODEL 2
REMARK VINA RESULT:      10.8      1.660      4.779
REMARK  Name = 7134574
REMARK  8 active torsions:
REMARK  status: ('A' for Active; 'I' for Inactive)
REMARK    1  A    between atoms: N_7  and  C_24
REMARK    2  A    between atoms: N_9  and  C_15
REMARK    3  A    between atoms: N_11  and  C_33
REMARK    4  A    between atoms: C_12  and  C_18
REMARK    5  A    between atoms: C_13  and  C_27
REMARK    6  A    between atoms: C_18  and  C_24
REMARK    7  A    between atoms: C_24  and  C_31
REMARK    8  A    between atoms: C_25  and  C_26
REMARK                            x       y       z     vdW  Elec       q    Type
REMARK                         _______ _______ _______ _____ _____    ______ ____
ROOT
ATOM      2  O   UNL     1      -4.466  -0.858  22.513  0.00  0.00    -0.274 OA
ATOM      6  N   UNL     1      -2.791   0.164  23.768  0.00  0.00    -0.289 N 
ATOM     13  C   UNL     1      -2.147   0.419  25.066  0.00  0.00    +0.164 C 
ATOM     14  C   UNL     1      -0.637   0.641  24.956  0.00  0.00    +0.054 C 
ATOM     15  C   UNL     1      -0.245   1.590  23.820  0.00  0.00    +0.078 C 
ATOM     19  C   UNL     1      -0.891   1.144  22.510  0.00  0.00    +0.041 C 
ATOM     20  C   UNL     1      -2.404   1.043  22.658  0.00  0.00    +0.110 C 
ATOM     26  C   UNL     1      -3.839  -0.744  23.570  0.00  0.00    +0.233 C 
ENDROOT
BRANCH  15   9
ATOM      5  O   UNL     1       1.581  -0.616  23.807  0.00  0.00    -0.253 OA
ATOM      9  N   UNL     1       1.190   1.658  23.682  0.00  0.00    -0.296 N 
ATOM     11  N   UNL     1       3.352   0.900  23.535  0.00  0.00    -0.269 N 
ATOM     32  C   UNL     1       2.014   0.527  23.686  0.00  0.00    +0.304 C 
ATOM     41  H   UNL     1       1.616   2.563  23.502  0.00  0.00    +0.151 HD
ATOM     44  H   UNL     1       3.542   1.895  23.450  0.00  0.00    +0.156 HD
BRANCH  11  33
ATOM      1  F   UNL     1       8.081   0.294  22.971  0.00  0.00    -0.205 F 
ATOM     33  C   UNL     1       4.488   0.058  23.490  0.00  0.00    +0.037 A 
ATOM     34  C   UNL     1       5.749   0.601  23.247  0.00  0.00    +0.061 A 
ATOM     35  C   UNL     1       4.347  -1.316  23.688  0.00  0.00    +0.023 A 
ATOM     36  C   UNL     1       6.870  -0.228  23.203  0.00  0.00    +0.125 A 
ATOM     37  C   UNL     1       5.468  -2.145  23.645  0.00  0.00    +0.005 A 
ATOM     38  C   UNL     1       6.729  -1.602  23.402  0.00  0.00    +0.038 A 
ENDBRANCH  11  33
ENDBRANCH  15   9
BRANCH  26  25
ATOM      8  N   UNL     1      -3.600  -1.016  25.911  0.00  0.00    -0.306 NA
ATOM     25  C   UNL     1      -4.192  -1.625  24.721  0.00  0.00    +0.141 C 
ATOM     28  C   UNL     1      -3.576  -3.015  24.598  0.00  0.00    +0.029 C 
ATOM     29  C   UNL     1      -2.596  -3.104  25.758  0.00  0.00    +0.017 C 
ATOM     30  C   UNL     1      -3.154  -2.116  26.761  0.00  0.00    +0.081 C 
ATOM     40  H   UNL     1      -4.270  -0.422  26.397  0.00  0.00    +0.123 HD
ENDBRANCH  26  25
BRANCH  13  27
ATOM      3  O   UNL     1      -2.289   2.342  26.477  0.00  0.00    -0.274 OA
ATOM      7  N   UNL     1      -4.161   1.703  25.249  0.00  0.00    -0.302 N 
ATOM     27  C   UNL     1      -2.849   1.597  25.677  0.00  0.00    +0.234 C 
ATOM     39  H   UNL     1      -4.529   1.034  24.582  0.00  0.00    +0.150 HD
BRANCH   7  24
ATOM     24  C   UNL     1      -5.060   2.738  25.707  0.00  0.00    +0.159 C 
BRANCH  24  31
ATOM      4  O   UNL     1      -6.848   1.980  27.167  0.00  0.00    -0.274 OA
ATOM     10  N   UNL     1      -7.073   1.664  24.904  0.00  0.00    -0.328 N 
ATOM     31  C   UNL     1      -6.408   2.108  26.027  0.00  0.00    +0.231 C 
ATOM     42  H   UNL     1      -7.982   1.216  24.980  0.00  0.00    +0.145 HD
ATOM     43  H   UNL     1      -6.691   1.757  23.969  0.00  0.00    +0.145 HD
ENDBRANCH  24  31
BRANCH  24  18
ATOM     18  C   UNL     1      -5.167   3.895  24.709  0.00  0.00    +0.035 C 
BRANCH  18  12
ATOM     12  C   UNL     1      -3.870   4.677  24.514  0.00  0.00    -0.009 C 
ATOM     16  C   UNL     1      -2.899   3.899  23.614  0.00  0.00    +0.003 C 
ATOM     17  C   UNL     1      -3.221   4.997  25.867  0.00  0.00    +0.003 C 
ATOM     21  C   UNL     1      -1.573   4.636  23.446  0.00  0.00    +0.000 C 
ATOM     22  C   UNL     1      -1.894   5.732  25.696  0.00  0.00    +0.000 C 
ATOM     23  C   UNL     1      -0.936   4.961  24.794  0.00  0.00    +0.000 C 
ENDBRANCH  18  12
ENDBRANCH  24  18
ENDBRANCH   7  24
ENDBRANCH  13  27
TORSDOF 8
ENDMDL
MODEL 3
REMARK VINA RESULT:      11.9      2.086      4.966
REMARK  Name = 7134574
REMARK  8 active torsions:
REMARK  status: ('A' for Active; 'I' for Inactive)
REMARK    1  A    between atoms: N_7  and  C_24
REMARK    2  A    between atoms: N_9  and  C_15
REMARK    3  A    between atoms: N_11  and  C_33
REMARK    4  A    between atoms: C_12  and  C_18
REMARK    5  A    between atoms: C_13  and  C_27
REMARK    6  A    between atoms: C_18  and  C_24
REMARK    7  A    between atoms: C_24  and  C_31
REMARK    8  A    between atoms: C_25  and  C_26
REMARK                            x       y       z     vdW  Elec       q    Type
REMARK                         _______ _______ _______ _____ _____    ______ ____
ROOT
ATOM      2  O   UNL     1      -3.749   0.070  22.001  0.00  0.00    -0.274 OA
ATOM      6  N   UNL     1      -1.853   0.214  23.346  0.00  0.00    -0.289 N 
ATOM     13  C   UNL     1      -1.234   0.212  24.681  0.00  0.00    +0.164 C 
ATOM     14  C   UNL     1       0.186  -0.358  24.686  0.00  0.00    +0.054 C 
ATOM     15  C   UNL     1       1.059   0.179  23.548  0.00  0.00    +0.078 C 
ATOM     19  C   UNL     1       0.343   0.015  22.209  0.00  0.00    +0.041 C 
ATOM     20  C   UNL     1      -1.021   0.694  22.236  0.00  0.00    +0.110 C 
ATOM     26  C   UNL     1      -3.204  -0.063  23.100  0.00  0.00    +0.233 C 
ENDROOT
BRANCH  15   9
ATOM      5  O   UNL     1       3.632   1.417  23.328  0.00  0.00    -0.253 OA
ATOM      9  N   UNL     1       2.339  -0.488  23.525  0.00  0.00    -0.296 N 
ATOM     11  N   UNL     1       4.621  -0.709  23.419  0.00  0.00    -0.269 N 
ATOM     32  C   UNL     1       3.555   0.195  23.415  0.00  0.00    +0.304 C 
ATOM     41  H   UNL     1       2.362  -1.494  23.667  0.00  0.00    +0.151 HD
ATOM     44  H   UNL     1       4.384  -1.695  23.495  0.00  0.00    +0.156 HD
BRANCH  11  33
ATOM      1  F   UNL     1       9.025  -1.831  21.871  0.00  0.00    -0.205 F 
ATOM     33  C   UNL     1       6.003  -0.422  23.326  0.00  0.00    +0.037 A 
ATOM     34  C   UNL     1       6.850  -1.286  22.632  0.00  0.00    +0.061 A 
ATOM     35  C   UNL     1       6.519   0.725  23.930  0.00  0.00    +0.023 A 
ATOM     36  C   UNL     1       8.213  -1.002  22.539  0.00  0.00    +0.125 A 
ATOM     37  C   UNL     1       7.882   1.008  23.837  0.00  0.00    +0.005 A 
ATOM     38  C   UNL     1       8.729   0.145  23.143  0.00  0.00    +0.038 A 
ENDBRANCH  11  33
ENDBRANCH  15   9
BRANCH  26  25
ATOM      8  N   UNL     1      -3.204  -0.333  25.454  0.00  0.00    -0.306 NA
ATOM     25  C   UNL     1      -4.009  -0.559  24.254  0.00  0.00    +0.141 C 
ATOM     28  C   UNL     1      -4.262  -2.061  24.182  0.00  0.00    +0.029 C 
ATOM     29  C   UNL     1      -3.519  -2.633  25.380  0.00  0.00    +0.017 C 
ATOM     30  C   UNL     1      -3.460  -1.465  26.341  0.00  0.00    +0.081 C 
ATOM     40  H   UNL     1      -3.445   0.549  25.902  0.00  0.00    +0.123 HD
ENDBRANCH  26  25
BRANCH  13  27
ATOM      3  O   UNL     1      -0.774   1.949  26.255  0.00  0.00    -0.274 OA
ATOM      7  N   UNL     1      -1.956   2.467  24.318  0.00  0.00    -0.302 N 
ATOM     27  C   UNL     1      -1.278   1.626  25.183  0.00  0.00    +0.234 C 
ATOM     39  H   UNL     1      -2.335   2.100  23.452  0.00  0.00    +0.150 HD
BRANCH   7  24
ATOM     24  C   UNL     1      -2.160   3.874  24.581  0.00  0.00    +0.159 C 
BRANCH  24  31
ATOM      4  O   UNL     1      -0.637   5.697  25.093  0.00  0.00    -0.274 OA
ATOM     10  N   UNL     1       0.225   3.771  24.186  0.00  0.00    -0.328 N 
ATOM     31  C   UNL     1      -0.802   4.556  24.668  0.00  0.00    +0.231 C 
ATOM     42  H   UNL     1       1.182   4.112  24.180  0.00  0.00    +0.145 HD
ATOM     43  H   UNL     1       0.074   2.838  23.819  0.00  0.00    +0.145 HD
ENDBRANCH  24  31
BRANCH  24  18
ATOM     18  C   UNL     1      -3.023   4.111  25.824  0.00  0.00    +0.035 C 
BRANCH  18  12
ATOM     12  C   UNL     1      -4.469   3.638  25.682  0.00  0.00    -0.009 C 
ATOM     16  C   UNL     1      -4.825   2.644  26.796  0.00  0.00    +0.003 C 
ATOM     17  C   UNL     1      -4.703   3.015  24.299  0.00  0.00    +0.003 C 
ATOM     21  C   UNL     1      -6.250   2.115  26.645  0.00  0.00    +0.000 C 
ATOM     22  C   UNL     1      -6.126   2.486  24.152  0.00  0.00    +0.000 C 
ATOM     23  C   UNL     1      -6.480   1.505  25.267  0.00  0.00    +0.000 C 
ENDBRANCH  18  12
ENDBRANCH  24  18
ENDBRANCH   7  24
ENDBRANCH  13  27
TORSDOF 8
ENDMDL
