MODEL 1
REMARK VINA RESULT:       0.7      0.000      0.000
REMARK  Name = 51136649
REMARK  8 active torsions:
REMARK  status: ('A' for Active; 'I' for Inactive)
REMARK    1  A    between atoms: O_2  and  C_17
REMARK    2  A    between atoms: O_4  and  C_25
REMARK    3  A    between atoms: O_4  and  C_31
REMARK    4  A    between atoms: C_7  and  C_12
REMARK    5  A    between atoms: C_8  and  C_13
REMARK    6  A    between atoms: C_12  and  C_14
REMARK    7  A    between atoms: C_13  and  C_17
REMARK    8  A    between atoms: C_15  and  C_21
REMARK                            x       y       z     vdW  Elec       q    Type
REMARK                         _______ _______ _______ _____ _____    ______ ____
ROOT
ATOM      1  O   UNL     1      -5.567   1.056  25.975  0.00  0.00    -0.270 OA
ATOM      5  N   UNL     1      -4.191   1.713  24.201  0.00  0.00    -0.297 N 
ATOM      7  C   UNL     1      -1.932   2.255  23.319  0.00  0.00    +0.016 C 
ATOM      8  C   UNL     1      -2.311   3.757  23.381  0.00  0.00    +0.006 C 
ATOM      9  C   UNL     1      -3.382   4.026  24.451  0.00  0.00    +0.023 C 
ATOM     10  C   UNL     1      -3.202   1.400  23.160  0.00  0.00    +0.112 C 
ATOM     11  C   UNL     1      -4.594   3.117  24.262  0.00  0.00    +0.108 C 
ATOM     15  C   UNL     1      -4.743   0.798  25.099  0.00  0.00    +0.247 C 
ENDROOT
BRANCH  15  21
ATOM     21  C   UNL     1      -4.316  -0.603  25.007  0.00  0.00    +0.037 A 
ATOM     26  C   UNL     1      -3.629  -1.194  26.069  0.00  0.00    +0.013 A 
ATOM     27  C   UNL     1      -4.597  -1.344  23.860  0.00  0.00    +0.013 A 
ATOM     28  C   UNL     1      -3.224  -2.525  25.982  0.00  0.00    +0.001 A 
ATOM     29  C   UNL     1      -4.191  -2.676  23.773  0.00  0.00    +0.001 A 
ATOM     30  C   UNL     1      -3.504  -3.267  24.835  0.00  0.00    +0.000 A 
ENDBRANCH  15  21
BRANCH   7  12
ATOM     12  C   UNL     1      -1.111   1.771  24.520  0.00  0.00    +0.061 C 
BRANCH  12  14
ATOM      6  N   UNL     1      -1.146  -0.623  24.339  0.00  0.00    -0.287 NA
ATOM     14  C   UNL     1      -0.449   0.454  24.192  0.00  0.00    +0.044 C 
ATOM     16  C   UNL     1       0.961   0.460  23.725  0.00  0.00    -0.001 A 
ATOM     18  C   UNL     1       1.656  -0.754  23.803  0.00  0.00    -0.033 A 
ATOM     19  C   UNL     1       0.947  -1.956  24.355  0.00  0.00    +0.059 C 
ATOM     20  C   UNL     1      -0.523  -1.897  23.963  0.00  0.00    +0.146 C 
ATOM     22  C   UNL     1       1.593   1.607  23.242  0.00  0.00    +0.013 A 
ATOM     23  C   UNL     1       2.998  -0.807  23.417  0.00  0.00    +0.050 A 
ATOM     24  C   UNL     1       2.930   1.542  22.846  0.00  0.00    +0.046 A 
ATOM     25  C   UNL     1       3.632   0.339  22.935  0.00  0.00    +0.120 A 
BRANCH  25   4
ATOM      4  O   UNL     1       4.936   0.285  22.553  0.00  0.00    -0.495 OA
ATOM     31  C   UNL     1       5.890  -0.069  23.553  0.00  0.00    +0.277 C 
ENDBRANCH  25   4
ENDBRANCH  12  14
ENDBRANCH   7  12
BRANCH   8  13
ATOM     13  C   UNL     1      -1.105   4.674  23.583  0.00  0.00    +0.124 C 
BRANCH  13  17
ATOM      3  O   UNL     1      -1.524   6.256  25.391  0.00  0.00    -0.251 OA
ATOM     17  C   UNL     1      -1.042   5.207  24.987  0.00  0.00    +0.305 C 
BRANCH  17   2
ATOM      2  O   UNL     1      -0.355   4.340  25.775  0.00  0.00    -0.481 OA
ATOM     32  H   UNL     1      -0.255   4.679  26.691  0.00  0.00    +0.295 HD
ENDBRANCH  17   2
ENDBRANCH  13  17
ENDBRANCH   8  13
TORSDOF 7
ENDMDL
MODEL 2
REMARK VINA RESULT:       0.9      2.135      4.850
REMARK  Name = 51136649
REMARK  8 active torsions:
REMARK  status: ('A' for Active; 'I' for Inactive)
REMARK    1  A    between atoms: O_2  and  C_17
REMARK    2  A    between atoms: O_4  and  C_25
REMARK    3  A    between atoms: O_4  and  C_31
REMARK    4  A    between atoms: C_7  and  C_12
REMARK    5  A    between atoms: C_8  and  C_13
REMARK    6  A    between atoms: C_12  and  C_14
REMARK    7  A    between atoms: C_13  and  C_17
REMARK    8  A    between atoms: C_15  and  C_21
REMARK                            x       y       z     vdW  Elec       q    Type
REMARK                         _______ _______ _______ _____ _____    ______ ____
ROOT
ATOM      1  O   UNL     1      -6.067   2.589  23.909  0.00  0.00    -0.270 OA
ATOM      5  N   UNL     1      -4.908   0.907  25.049  0.00  0.00    -0.297 N 
ATOM      7  C   UNL     1      -3.004  -0.684  25.178  0.00  0.00    +0.016 C 
ATOM      8  C   UNL     1      -3.982  -1.825  24.798  0.00  0.00    +0.006 C 
ATOM      9  C   UNL     1      -5.177  -1.299  23.986  0.00  0.00    +0.023 C 
ATOM     10  C   UNL     1      -3.773   0.459  25.867  0.00  0.00    +0.112 C 
ATOM     11  C   UNL     1      -5.867  -0.141  24.703  0.00  0.00    +0.108 C 
ATOM     15  C   UNL     1      -5.120   2.211  24.597  0.00  0.00    +0.247 C 
ENDROOT
BRANCH  15  21
ATOM     21  C   UNL     1      -4.137   3.236  24.965  0.00  0.00    +0.037 A 
ATOM     26  C   UNL     1      -4.052   3.680  26.285  0.00  0.00    +0.013 A 
ATOM     27  C   UNL     1      -3.287   3.767  23.995  0.00  0.00    +0.013 A 
ATOM     28  C   UNL     1      -3.116   4.653  26.634  0.00  0.00    +0.001 A 
ATOM     29  C   UNL     1      -2.352   4.741  24.344  0.00  0.00    +0.001 A 
ATOM     30  C   UNL     1      -2.266   5.184  25.664  0.00  0.00    +0.000 A 
ENDBRANCH  15  21
BRANCH   7  12
ATOM     12  C   UNL     1      -2.192  -0.143  23.995  0.00  0.00    +0.061 C 
BRANCH  12  14
ATOM      6  N   UNL     1      -1.322   1.534  25.478  0.00  0.00    -0.287 NA
ATOM     14  C   UNL     1      -1.067   0.728  24.501  0.00  0.00    +0.044 C 
ATOM     16  C   UNL     1       0.266   0.623  23.854  0.00  0.00    -0.001 A 
ATOM     18  C   UNL     1       1.156   1.683  24.067  0.00  0.00    -0.033 A 
ATOM     19  C   UNL     1       0.708   2.842  24.909  0.00  0.00    +0.059 C 
ATOM     20  C   UNL     1      -0.216   2.337  26.009  0.00  0.00    +0.146 C 
ATOM     22  C   UNL     1       0.634  -0.461  23.055  0.00  0.00    +0.013 A 
ATOM     23  C   UNL     1       2.411   1.664  23.453  0.00  0.00    +0.050 A 
ATOM     24  C   UNL     1       1.896  -0.478  22.458  0.00  0.00    +0.046 A 
ATOM     25  C   UNL     1       2.781   0.582  22.654  0.00  0.00    +0.120 A 
BRANCH  25   4
ATOM      4  O   UNL     1       4.006   0.561  22.063  0.00  0.00    -0.495 OA
ATOM     31  C   UNL     1       5.123   0.250  22.895  0.00  0.00    +0.277 C 
ENDBRANCH  25   4
ENDBRANCH  12  14
ENDBRANCH   7  12
BRANCH   8  13
ATOM     13  C   UNL     1      -3.302  -2.983  24.068  0.00  0.00    +0.124 C 
BRANCH  13  17
ATOM      3  O   UNL     1      -1.284  -2.825  25.428  0.00  0.00    -0.251 OA
ATOM     17  C   UNL     1      -1.826  -3.027  24.351  0.00  0.00    +0.305 C 
BRANCH  17   2
ATOM      2  O   UNL     1      -1.151  -3.331  23.213  0.00  0.00    -0.481 OA
ATOM     32  H   UNL     1      -1.343  -2.693  22.493  0.00  0.00    +0.295 HD
ENDBRANCH  17   2
ENDBRANCH  13  17
ENDBRANCH   8  13
TORSDOF 7
ENDMDL
MODEL 3
REMARK VINA RESULT:       1.7      2.043      6.318
REMARK  Name = 51136649
REMARK  8 active torsions:
REMARK  status: ('A' for Active; 'I' for Inactive)
REMARK    1  A    between atoms: O_2  and  C_17
REMARK    2  A    between atoms: O_4  and  C_25
REMARK    3  A    between atoms: O_4  and  C_31
REMARK    4  A    between atoms: C_7  and  C_12
REMARK    5  A    between atoms: C_8  and  C_13
REMARK    6  A    between atoms: C_12  and  C_14
REMARK    7  A    between atoms: C_13  and  C_17
REMARK    8  A    between atoms: C_15  and  C_21
REMARK                            x       y       z     vdW  Elec       q    Type
REMARK                         _______ _______ _______ _____ _____    ______ ____
ROOT
ATOM      1  O   UNL     1      -1.637  -3.009  23.358  0.00  0.00    -0.270 OA
ATOM      5  N   UNL     1      -0.326  -1.360  24.376  0.00  0.00    -0.297 N 
ATOM      7  C   UNL     1       0.512   0.978  24.450  0.00  0.00    +0.016 C 
ATOM      8  C   UNL     1       1.863   0.470  23.882  0.00  0.00    +0.006 C 
ATOM      9  C   UNL     1       1.682  -0.816  23.057  0.00  0.00    +0.023 C 
ATOM     10  C   UNL     1      -0.197  -0.158  25.210  0.00  0.00    +0.112 C 
ATOM     11  C   UNL     1       0.935  -1.883  23.853  0.00  0.00    +0.108 C 
ATOM     15  C   UNL     1      -1.524  -2.006  24.060  0.00  0.00    +0.247 C 
ENDROOT
BRANCH  15  21
ATOM     21  C   UNL     1      -2.770  -1.453  24.603  0.00  0.00    +0.037 A 
ATOM     26  C   UNL     1      -2.831  -1.048  25.937  0.00  0.00    +0.013 A 
ATOM     27  C   UNL     1      -3.892  -1.329  23.785  0.00  0.00    +0.013 A 
ATOM     28  C   UNL     1      -4.014  -0.521  26.453  0.00  0.00    +0.001 A 
ATOM     29  C   UNL     1      -5.077  -0.802  24.301  0.00  0.00    +0.001 A 
ATOM     30  C   UNL     1      -5.138  -0.398  25.635  0.00  0.00    +0.000 A 
ENDBRANCH  15  21
BRANCH   7  12
ATOM     12  C   UNL     1      -0.422   1.574  23.390  0.00  0.00    +0.061 C 
BRANCH  12  14
ATOM      6  N   UNL     1      -0.076   3.911  23.820  0.00  0.00    -0.287 NA
ATOM     14  C   UNL     1      -0.913   2.928  23.844  0.00  0.00    +0.044 C 
ATOM     16  C   UNL     1      -2.321   3.062  24.298  0.00  0.00    -0.001 A 
ATOM     18  C   UNL     1      -2.633   4.194  25.061  0.00  0.00    -0.033 A 
ATOM     19  C   UNL     1      -1.540   5.174  25.376  0.00  0.00    +0.059 C 
ATOM     20  C   UNL     1      -0.570   5.238  24.204  0.00  0.00    +0.146 C 
ATOM     22  C   UNL     1      -3.303   2.113  24.007  0.00  0.00    +0.013 A 
ATOM     23  C   UNL     1      -3.930   4.360  25.553  0.00  0.00    +0.050 A 
ATOM     24  C   UNL     1      -4.600   2.294  24.491  0.00  0.00    +0.046 A 
ATOM     25  C   UNL     1      -4.912   3.412  25.264  0.00  0.00    +0.120 A 
BRANCH  25   4
ATOM      4  O   UNL     1      -6.177   3.578  25.737  0.00  0.00    -0.495 OA
ATOM     31  C   UNL     1      -6.741   2.494  26.473  0.00  0.00    +0.277 C 
ENDBRANCH  25   4
ENDBRANCH  12  14
ENDBRANCH   7  12
BRANCH   8  13
ATOM     13  C   UNL     1       2.612   1.528  23.073  0.00  0.00    +0.124 C 
BRANCH  13  17
ATOM      3  O   UNL     1       4.947   0.930  23.442  0.00  0.00    -0.251 OA
ATOM     17  C   UNL     1       3.990   1.064  22.693  0.00  0.00    +0.305 C 
BRANCH  17   2
ATOM      2  O   UNL     1       4.034   0.803  21.361  0.00  0.00    -0.481 OA
ATOM     32  H   UNL     1       3.137   0.781  20.963  0.00  0.00    +0.295 HD
ENDBRANCH  17   2
ENDBRANCH  13  17
ENDBRANCH   8  13
TORSDOF 7
ENDMDL
MODEL 4
REMARK VINA RESULT:       1.9     16.553     18.965
REMARK  Name = 51136649
REMARK  8 active torsions:
REMARK  status: ('A' for Active; 'I' for Inactive)
REMARK    1  A    between atoms: O_2  and  C_17
REMARK    2  A    between atoms: O_4  and  C_25
REMARK    3  A    between atoms: O_4  and  C_31
REMARK    4  A    between atoms: C_7  and  C_12
REMARK    5  A    between atoms: C_8  and  C_13
REMARK    6  A    between atoms: C_12  and  C_14
REMARK    7  A    between atoms: C_13  and  C_17
REMARK    8  A    between atoms: C_15  and  C_21
REMARK                            x       y       z     vdW  Elec       q    Type
REMARK                         _______ _______ _______ _____ _____    ______ ____
ROOT
ATOM      1  O   UNL     1      14.805  -3.730  32.154  0.00  0.00    -0.270 OA
ATOM      5  N   UNL     1      14.808  -4.772  30.059  0.00  0.00    -0.297 N 
ATOM      7  C   UNL     1      15.032  -6.828  28.681  0.00  0.00    +0.016 C 
ATOM      8  C   UNL     1      16.453  -6.355  28.278  0.00  0.00    +0.006 C 
ATOM      9  C   UNL     1      17.070  -5.440  29.350  0.00  0.00    +0.023 C 
ATOM     10  C   UNL     1      14.159  -5.613  29.044  0.00  0.00    +0.112 C 
ATOM     11  C   UNL     1      16.136  -4.283  29.694  0.00  0.00    +0.108 C 
ATOM     15  C   UNL     1      14.264  -4.429  31.299  0.00  0.00    +0.247 C 
ENDROOT
BRANCH  15  21
ATOM     21  C   UNL     1      12.928  -4.938  31.631  0.00  0.00    +0.037 A 
ATOM     26  C   UNL     1      12.134  -4.261  32.557  0.00  0.00    +0.013 A 
ATOM     27  C   UNL     1      12.452  -6.097  31.019  0.00  0.00    +0.013 A 
ATOM     28  C   UNL     1      10.864  -4.744  32.872  0.00  0.00    +0.001 A 
ATOM     29  C   UNL     1      11.181  -6.580  31.334  0.00  0.00    +0.001 A 
ATOM     30  C   UNL     1      10.387  -5.904  32.260  0.00  0.00    +0.000 A 
ENDBRANCH  15  21
BRANCH   7  12
ATOM     12  C   UNL     1      15.019  -7.853  29.821  0.00  0.00    +0.061 C 
BRANCH  12  14
ATOM      6  N   UNL     1      14.384  -9.597  28.297  0.00  0.00    -0.287 NA
ATOM     14  C   UNL     1      14.160  -9.034  29.438  0.00  0.00    +0.044 C 
ATOM     16  C   UNL     1      13.103  -9.485  30.379  0.00  0.00    -0.001 A 
ATOM     18  C   UNL     1      12.094 -10.301  29.851  0.00  0.00    -0.033 A 
ATOM     19  C   UNL     1      12.139 -10.649  28.392  0.00  0.00    +0.059 C 
ATOM     20  C   UNL     1      13.591 -10.781  27.950  0.00  0.00    +0.146 C 
ATOM     22  C   UNL     1      13.083  -9.117  31.726  0.00  0.00    +0.013 A 
ATOM     23  C   UNL     1      11.049 -10.727  30.675  0.00  0.00    +0.050 A 
ATOM     24  C   UNL     1      12.043  -9.559  32.544  0.00  0.00    +0.046 A 
ATOM     25  C   UNL     1      11.027 -10.359  32.021  0.00  0.00    +0.120 A 
BRANCH  25   4
ATOM      4  O   UNL     1      10.013 -10.781  32.823  0.00  0.00    -0.495 OA
ATOM     31  C   UNL     1       8.780 -10.067  32.739  0.00  0.00    +0.277 C 
ENDBRANCH  25   4
ENDBRANCH  12  14
ENDBRANCH   7  12
BRANCH   8  13
ATOM     13  C   UNL     1      17.399  -7.509  27.944  0.00  0.00    +0.124 C 
BRANCH  13  17
ATOM      3  O   UNL     1      17.182  -7.425  25.517  0.00  0.00    -0.251 OA
ATOM     17  C   UNL     1      17.145  -8.052  26.566  0.00  0.00    +0.305 C 
BRANCH  17   2
ATOM      2  O   UNL     1      16.860  -9.378  26.642  0.00  0.00    -0.481 OA
ATOM     32  H   UNL     1      17.129  -9.857  25.830  0.00  0.00    +0.295 HD
ENDBRANCH  17   2
ENDBRANCH  13  17
ENDBRANCH   8  13
TORSDOF 7
ENDMDL
MODEL 5
REMARK VINA RESULT:       2.0      1.894      5.460
REMARK  Name = 51136649
REMARK  8 active torsions:
REMARK  status: ('A' for Active; 'I' for Inactive)
REMARK    1  A    between atoms: O_2  and  C_17
REMARK    2  A    between atoms: O_4  and  C_25
REMARK    3  A    between atoms: O_4  and  C_31
REMARK    4  A    between atoms: C_7  and  C_12
REMARK    5  A    between atoms: C_8  and  C_13
REMARK    6  A    between atoms: C_12  and  C_14
REMARK    7  A    between atoms: C_13  and  C_17
REMARK    8  A    between atoms: C_15  and  C_21
REMARK                            x       y       z     vdW  Elec       q    Type
REMARK                         _______ _______ _______ _____ _____    ______ ____
ROOT
ATOM      1  O   UNL     1      -3.151   5.226  25.996  0.00  0.00    -0.270 OA
ATOM      5  N   UNL     1      -2.137   3.757  24.485  0.00  0.00    -0.297 N 
ATOM      7  C   UNL     1      -0.924   1.635  24.035  0.00  0.00    +0.016 C 
ATOM      8  C   UNL     1       0.379   2.460  23.873  0.00  0.00    +0.006 C 
ATOM      9  C   UNL     1       0.320   3.774  24.671  0.00  0.00    +0.023 C 
ATOM     10  C   UNL     1      -2.145   2.513  23.703  0.00  0.00    +0.112 C 
ATOM     11  C   UNL     1      -0.935   4.574  24.328  0.00  0.00    +0.108 C 
ATOM     15  C   UNL     1      -3.156   4.189  25.336  0.00  0.00    +0.247 C 
ENDROOT
BRANCH  15  21
ATOM     21  C   UNL     1      -4.348   3.343  25.469  0.00  0.00    +0.037 A 
ATOM     26  C   UNL     1      -4.886   3.089  26.732  0.00  0.00    +0.013 A 
ATOM     27  C   UNL     1      -4.944   2.795  24.334  0.00  0.00    +0.013 A 
ATOM     28  C   UNL     1      -6.019   2.286  26.858  0.00  0.00    +0.001 A 
ATOM     29  C   UNL     1      -6.079   1.992  24.461  0.00  0.00    +0.001 A 
ATOM     30  C   UNL     1      -6.616   1.738  25.723  0.00  0.00    +0.000 A 
ENDBRANCH  15  21
BRANCH   7  12
ATOM     12  C   UNL     1      -1.087   0.997  25.419  0.00  0.00    +0.061 C 
BRANCH  12  14
ATOM      6  N   UNL     1      -0.051  -1.163  25.592  0.00  0.00    -0.287 NA
ATOM     14  C   UNL     1      -1.122  -0.507  25.289  0.00  0.00    +0.044 C 
ATOM     16  C   UNL     1      -2.372  -1.155  24.816  0.00  0.00    -0.001 A 
ATOM     18  C   UNL     1      -2.261  -2.468  24.340  0.00  0.00    -0.033 A 
ATOM     19  C   UNL     1      -0.909  -3.118  24.327  0.00  0.00    +0.059 C 
ATOM     20  C   UNL     1      -0.103  -2.627  25.523  0.00  0.00    +0.146 C 
ATOM     22  C   UNL     1      -3.608  -0.506  24.820  0.00  0.00    +0.013 A 
ATOM     23  C   UNL     1      -3.393  -3.120  23.844  0.00  0.00    +0.050 A 
ATOM     24  C   UNL     1      -4.736  -1.170  24.335  0.00  0.00    +0.046 A 
ATOM     25  C   UNL     1      -4.629  -2.472  23.846  0.00  0.00    +0.120 A 
BRANCH  25   4
ATOM      4  O   UNL     1      -5.731  -3.111  23.370  0.00  0.00    -0.495 OA
ATOM     31  C   UNL     1      -5.532  -4.045  22.309  0.00  0.00    +0.277 C 
ENDBRANCH  25   4
ENDBRANCH  12  14
ENDBRANCH   7  12
BRANCH   8  13
ATOM     13  C   UNL     1       1.639   1.671  24.227  0.00  0.00    +0.124 C 
BRANCH  13  17
ATOM      3  O   UNL     1       1.474  -0.151  22.614  0.00  0.00    -0.251 OA
ATOM     17  C   UNL     1       2.084   0.797  23.088  0.00  0.00    +0.305 C 
BRANCH  17   2
ATOM      2  O   UNL     1       3.296   1.213  22.639  0.00  0.00    -0.481 OA
ATOM     32  H   UNL     1       3.315   2.182  22.480  0.00  0.00    +0.295 HD
ENDBRANCH  17   2
ENDBRANCH  13  17
ENDBRANCH   8  13
TORSDOF 7
ENDMDL
MODEL 6
REMARK VINA RESULT:       3.0      2.009      6.353
REMARK  Name = 51136649
REMARK  8 active torsions:
REMARK  status: ('A' for Active; 'I' for Inactive)
REMARK    1  A    between atoms: O_2  and  C_17
REMARK    2  A    between atoms: O_4  and  C_25
REMARK    3  A    between atoms: O_4  and  C_31
REMARK    4  A    between atoms: C_7  and  C_12
REMARK    5  A    between atoms: C_8  and  C_13
REMARK    6  A    between atoms: C_12  and  C_14
REMARK    7  A    between atoms: C_13  and  C_17
REMARK    8  A    between atoms: C_15  and  C_21
REMARK                            x       y       z     vdW  Elec       q    Type
REMARK                         _______ _______ _______ _____ _____    ______ ____
ROOT
ATOM      1  O   UNL     1      -3.000  -2.921  23.521  0.00  0.00    -0.270 OA
ATOM      5  N   UNL     1      -1.282  -1.597  24.396  0.00  0.00    -0.297 N 
ATOM      7  C   UNL     1       0.067   0.489  24.340  0.00  0.00    +0.016 C 
ATOM      8  C   UNL     1       1.224  -0.323  23.701  0.00  0.00    +0.006 C 
ATOM      9  C   UNL     1       0.698  -1.546  22.931  0.00  0.00    +0.023 C 
ATOM     10  C   UNL     1      -0.824  -0.443  25.182  0.00  0.00    +0.112 C 
ATOM     11  C   UNL     1      -0.212  -2.402  23.809  0.00  0.00    +0.108 C 
ATOM     15  C   UNL     1      -2.613  -1.958  24.181  0.00  0.00    +0.247 C 
ENDROOT
BRANCH  15  21
ATOM     21  C   UNL     1      -3.660  -1.127  24.787  0.00  0.00    +0.037 A 
ATOM     26  C   UNL     1      -4.771  -0.745  24.034  0.00  0.00    +0.013 A 
ATOM     27  C   UNL     1      -3.545  -0.720  26.116  0.00  0.00    +0.013 A 
ATOM     28  C   UNL     1      -5.766   0.044  24.611  0.00  0.00    +0.001 A 
ATOM     29  C   UNL     1      -4.540   0.069  26.693  0.00  0.00    +0.001 A 
ATOM     30  C   UNL     1      -5.651   0.451  25.940  0.00  0.00    +0.000 A 
ENDBRANCH  15  21
BRANCH   7  12
ATOM     12  C   UNL     1      -0.781   1.265  23.326  0.00  0.00    +0.061 C 
BRANCH  12  14
ATOM      6  N   UNL     1       0.004   3.475  23.840  0.00  0.00    -0.287 NA
ATOM     14  C   UNL     1      -1.008   2.674  23.820  0.00  0.00    +0.044 C 
ATOM     16  C   UNL     1      -2.371   3.066  24.261  0.00  0.00    -0.001 A 
ATOM     18  C   UNL     1      -2.471   4.213  25.058  0.00  0.00    -0.033 A 
ATOM     19  C   UNL     1      -1.215   4.951  25.420  0.00  0.00    +0.059 C 
ATOM     20  C   UNL     1      -0.228   4.861  24.263  0.00  0.00    +0.146 C 
ATOM     22  C   UNL     1      -3.513   2.337  23.925  0.00  0.00    +0.013 A 
ATOM     23  C   UNL     1      -3.720   4.613  25.540  0.00  0.00    +0.050 A 
ATOM     24  C   UNL     1      -4.759   2.752  24.398  0.00  0.00    +0.046 A 
ATOM     25  C   UNL     1      -4.863   3.885  25.205  0.00  0.00    +0.120 A 
BRANCH  25   4
ATOM      4  O   UNL     1      -6.079   4.280  25.669  0.00  0.00    -0.495 OA
ATOM     31  C   UNL     1      -6.520   5.587  25.303  0.00  0.00    +0.277 C 
ENDBRANCH  25   4
ENDBRANCH  12  14
ENDBRANCH   7  12
BRANCH   8  13
ATOM     13  C   UNL     1       2.133   0.524  22.811  0.00  0.00    +0.124 C 
BRANCH  13  17
ATOM      3  O   UNL     1       4.466   1.163  23.114  0.00  0.00    -0.251 OA
ATOM     17  C   UNL     1       3.584   0.318  23.144  0.00  0.00    +0.305 C 
BRANCH  17   2
ATOM      2  O   UNL     1       3.793  -0.978  23.494  0.00  0.00    -0.481 OA
ATOM     32  H   UNL     1       4.621  -1.088  24.009  0.00  0.00    +0.295 HD
ENDBRANCH  17   2
ENDBRANCH  13  17
ENDBRANCH   8  13
TORSDOF 7
ENDMDL
