MODEL 1
REMARK VINA RESULT:      -0.1      0.000      0.000
REMARK  Name = 26742544
REMARK  10 active torsions:
REMARK  status: ('A' for Active; 'I' for Inactive)
REMARK    1  A    between atoms: O_3  and  C_20
REMARK    2  A    between atoms: O_3  and  C_25
REMARK    3  A    between atoms: O_4  and  C_22
REMARK    4  A    between atoms: O_4  and  C_28
REMARK    5  A    between atoms: O_5  and  C_24
REMARK    6  A    between atoms: O_5  and  C_29
REMARK    7  A    between atoms: N_7  and  C_17
REMARK    8  A    between atoms: C_17  and  C_19
REMARK    9  A    between atoms: C_18  and  C_20
REMARK   10  A    between atoms: C_19  and  C_21
REMARK                            x       y       z     vdW  Elec       q    Type
REMARK                         _______ _______ _______ _____ _____    ______ ____
ROOT
ATOM      1  O   UNL     1      -6.153   2.376  27.017  0.00  0.00    -0.276 OA
ATOM      2  O   UNL     1      -0.335  -1.230  25.550  0.00  0.00    -0.273 OA
ATOM      6  N   UNL     1      -2.325  -0.902  24.397  0.00  0.00    -0.299 N 
ATOM      7  N   UNL     1      -4.828   3.185  25.294  0.00  0.00    -0.301 N 
ATOM      8  C   UNL     1      -4.110   0.577  23.491  0.00  0.00    +0.011 C 
ATOM      9  C   UNL     1      -5.021   0.120  24.655  0.00  0.00    +0.004 C 
ATOM     10  C   UNL     1      -4.198  -0.309  25.884  0.00  0.00    +0.023 C 
ATOM     11  C   UNL     1      -3.069  -0.520  23.189  0.00  0.00    +0.111 C 
ATOM     12  C   UNL     1      -3.404   1.929  23.704  0.00  0.00    +0.024 C 
ATOM     13  C   UNL     1      -6.139   1.111  25.002  0.00  0.00    +0.100 C 
ATOM     14  C   UNL     1      -3.158  -1.363  25.508  0.00  0.00    +0.108 C 
ATOM     15  C   UNL     1      -4.368   3.092  23.910  0.00  0.00    +0.108 C 
ATOM     16  C   UNL     1      -5.713   2.282  25.869  0.00  0.00    +0.216 C 
ATOM     18  C   UNL     1      -0.938  -0.879  24.532  0.00  0.00    +0.241 C 
ENDROOT
BRANCH   7  17
ATOM     17  C   UNL     1      -4.301   4.292  26.083  0.00  0.00    +0.112 C 
BRANCH  17  19
ATOM     19  C   UNL     1      -2.931   3.985  26.681  0.00  0.00    +0.058 C 
BRANCH  19  21
ATOM     21  C   UNL     1      -1.811   4.098  25.677  0.00  0.00    -0.001 A 
ATOM     22  C   UNL     1      -0.879   3.071  25.528  0.00  0.00    +0.165 A 
ATOM     23  C   UNL     1      -1.715   5.247  24.890  0.00  0.00    +0.007 A 
ATOM     24  C   UNL     1       0.150   3.193  24.593  0.00  0.00    +0.162 A 
ATOM     26  C   UNL     1      -0.686   5.369  23.956  0.00  0.00    +0.004 A 
ATOM     27  C   UNL     1       0.245   4.342  23.807  0.00  0.00    +0.049 A 
BRANCH  22   4
ATOM      4  O   UNL     1      -0.969   1.946  26.293  0.00  0.00    -0.491 OA
ATOM     28  C   UNL     1      -0.052   1.827  27.378  0.00  0.00    +0.277 C 
ENDBRANCH  22   4
BRANCH  24   5
ATOM      5  O   UNL     1       1.067   2.197  24.436  0.00  0.00    -0.491 OA
ATOM     29  C   UNL     1       1.964   2.312  23.335  0.00  0.00    +0.277 C 
ENDBRANCH  24   5
ENDBRANCH  19  21
ENDBRANCH  17  19
ENDBRANCH   7  17
BRANCH  18  20
ATOM     20  C   UNL     1      -0.151  -0.389  23.342  0.00  0.00    +0.255 C 
BRANCH  20   3
ATOM      3  O   UNL     1       1.158  -0.883  23.495  0.00  0.00    -0.374 OA
ATOM     25  C   UNL     1       2.003  -0.504  22.410  0.00  0.00    +0.194 C 
ENDBRANCH  20   3
ENDBRANCH  18  20
TORSDOF 7
ENDMDL
MODEL 2
REMARK VINA RESULT:       0.1      1.719      5.124
REMARK  Name = 26742544
REMARK  10 active torsions:
REMARK  status: ('A' for Active; 'I' for Inactive)
REMARK    1  A    between atoms: O_3  and  C_20
REMARK    2  A    between atoms: O_3  and  C_25
REMARK    3  A    between atoms: O_4  and  C_22
REMARK    4  A    between atoms: O_4  and  C_28
REMARK    5  A    between atoms: O_5  and  C_24
REMARK    6  A    between atoms: O_5  and  C_29
REMARK    7  A    between atoms: N_7  and  C_17
REMARK    8  A    between atoms: C_17  and  C_19
REMARK    9  A    between atoms: C_18  and  C_20
REMARK   10  A    between atoms: C_19  and  C_21
REMARK                            x       y       z     vdW  Elec       q    Type
REMARK                         _______ _______ _______ _____ _____    ______ ____
ROOT
ATOM      1  O   UNL     1      -0.990  -2.965  22.768  0.00  0.00    -0.276 OA
ATOM      2  O   UNL     1      -5.751   2.032  23.938  0.00  0.00    -0.273 OA
ATOM      6  N   UNL     1      -5.000   0.235  25.205  0.00  0.00    -0.299 N 
ATOM      7  N   UNL     1      -0.476  -1.391  24.392  0.00  0.00    -0.301 N 
ATOM      8  C   UNL     1      -3.170  -1.132  26.193  0.00  0.00    +0.011 C 
ATOM      9  C   UNL     1      -3.426  -2.192  25.095  0.00  0.00    +0.004 C 
ATOM     10  C   UNL     1      -4.026  -1.559  23.825  0.00  0.00    +0.023 C 
ATOM     11  C   UNL     1      -4.463  -0.331  26.449  0.00  0.00    +0.111 C 
ATOM     12  C   UNL     1      -2.001  -0.169  25.913  0.00  0.00    +0.024 C 
ATOM     13  C   UNL     1      -2.221  -3.093  24.800  0.00  0.00    +0.100 C 
ATOM     14  C   UNL     1      -5.277  -0.746  24.155  0.00  0.00    +0.108 C 
ATOM     15  C   UNL     1      -0.660  -0.874  25.747  0.00  0.00    +0.108 C 
ATOM     16  C   UNL     1      -1.172  -2.483  23.888  0.00  0.00    +0.216 C 
ATOM     18  C   UNL     1      -5.276   1.584  24.985  0.00  0.00    +0.241 C 
ENDROOT
BRANCH   7  17
ATOM     17  C   UNL     1       0.489  -0.692  23.553  0.00  0.00    +0.112 C 
BRANCH  17  19
ATOM     19  C   UNL     1       0.730   0.745  24.010  0.00  0.00    +0.058 C 
BRANCH  19  21
ATOM     21  C   UNL     1      -0.484   1.625  23.848  0.00  0.00    -0.001 A 
ATOM     22  C   UNL     1      -0.675   2.736  24.670  0.00  0.00    +0.165 A 
ATOM     23  C   UNL     1      -1.422   1.317  22.862  0.00  0.00    +0.007 A 
ATOM     24  C   UNL     1      -1.805   3.539  24.506  0.00  0.00    +0.162 A 
ATOM     26  C   UNL     1      -2.552   2.120  22.698  0.00  0.00    +0.004 A 
ATOM     27  C   UNL     1      -2.742   3.231  23.519  0.00  0.00    +0.049 A 
BRANCH  22   4
ATOM      4  O   UNL     1       0.239   3.042  25.634  0.00  0.00    -0.491 OA
ATOM     28  C   UNL     1       0.042   2.458  26.919  0.00  0.00    +0.277 C 
ENDBRANCH  22   4
BRANCH  24   5
ATOM      5  O   UNL     1      -2.003   4.628  25.300  0.00  0.00    -0.491 OA
ATOM     29  C   UNL     1      -1.345   5.835  24.920  0.00  0.00    +0.277 C 
ENDBRANCH  24   5
ENDBRANCH  19  21
ENDBRANCH  17  19
ENDBRANCH   7  17
BRANCH  18  20
ATOM     20  C   UNL     1      -4.961   2.531  26.115  0.00  0.00    +0.255 C 
BRANCH  20   3
ATOM      3  O   UNL     1      -5.964   3.517  26.104  0.00  0.00    -0.374 OA
ATOM     25  C   UNL     1      -5.527   4.720  25.473  0.00  0.00    +0.194 C 
ENDBRANCH  20   3
ENDBRANCH  18  20
TORSDOF 7
ENDMDL
MODEL 3
REMARK VINA RESULT:       0.7      1.869      4.751
REMARK  Name = 26742544
REMARK  10 active torsions:
REMARK  status: ('A' for Active; 'I' for Inactive)
REMARK    1  A    between atoms: O_3  and  C_20
REMARK    2  A    between atoms: O_3  and  C_25
REMARK    3  A    between atoms: O_4  and  C_22
REMARK    4  A    between atoms: O_4  and  C_28
REMARK    5  A    between atoms: O_5  and  C_24
REMARK    6  A    between atoms: O_5  and  C_29
REMARK    7  A    between atoms: N_7  and  C_17
REMARK    8  A    between atoms: C_17  and  C_19
REMARK    9  A    between atoms: C_18  and  C_20
REMARK   10  A    between atoms: C_19  and  C_21
REMARK                            x       y       z     vdW  Elec       q    Type
REMARK                         _______ _______ _______ _____ _____    ______ ____
ROOT
ATOM      1  O   UNL     1      -2.640   6.217  23.571  0.00  0.00    -0.276 OA
ATOM      2  O   UNL     1      -0.459  -0.435  23.482  0.00  0.00    -0.273 OA
ATOM      6  N   UNL     1       0.053   1.379  24.839  0.00  0.00    -0.299 N 
ATOM      7  N   UNL     1      -3.311   4.872  25.338  0.00  0.00    -0.301 N 
ATOM      8  C   UNL     1      -0.621   3.303  26.268  0.00  0.00    +0.011 C 
ATOM      9  C   UNL     1      -0.247   4.247  25.101  0.00  0.00    +0.004 C 
ATOM     10  C   UNL     1      -0.375   3.541  23.738  0.00  0.00    +0.023 C 
ATOM     11  C   UNL     1       0.199   2.000  26.162  0.00  0.00    +0.111 C 
ATOM     12  C   UNL     1      -2.121   2.971  26.388  0.00  0.00    +0.024 C 
ATOM     13  C   UNL     1      -0.959   5.604  25.140  0.00  0.00    +0.100 C 
ATOM     14  C   UNL     1       0.424   2.239  23.715  0.00  0.00    +0.108 C 
ATOM     15  C   UNL     1      -2.999   4.200  26.597  0.00  0.00    +0.108 C 
ATOM     16  C   UNL     1      -2.380   5.599  24.607  0.00  0.00    +0.216 C 
ATOM     18  C   UNL     1      -0.370   0.072  24.603  0.00  0.00    +0.241 C 
ENDROOT
BRANCH   7  17
ATOM     17  C   UNL     1      -4.680   4.744  24.853  0.00  0.00    +0.112 C 
BRANCH  17  19
ATOM     19  C   UNL     1      -5.296   3.388  25.191  0.00  0.00    +0.058 C 
BRANCH  19  21
ATOM     21  C   UNL     1      -4.617   2.241  24.485  0.00  0.00    -0.001 A 
ATOM     22  C   UNL     1      -4.738   0.936  24.962  0.00  0.00    +0.165 A 
ATOM     23  C   UNL     1      -3.862   2.497  23.340  0.00  0.00    +0.007 A 
ATOM     24  C   UNL     1      -4.104  -0.113  24.297  0.00  0.00    +0.162 A 
ATOM     26  C   UNL     1      -3.227   1.448  22.674  0.00  0.00    +0.004 A 
ATOM     27  C   UNL     1      -3.349   0.144  23.152  0.00  0.00    +0.049 A 
BRANCH  22   4
ATOM      4  O   UNL     1      -5.476   0.681  26.081  0.00  0.00    -0.491 OA
ATOM     28  C   UNL     1      -6.540   1.583  26.373  0.00  0.00    +0.277 C 
ENDBRANCH  22   4
BRANCH  24   5
ATOM      5  O   UNL     1      -4.214  -1.392  24.751  0.00  0.00    -0.491 OA
ATOM     29  C   UNL     1      -4.344  -2.419  23.771  0.00  0.00    +0.277 C 
ENDBRANCH  24   5
ENDBRANCH  19  21
ENDBRANCH  17  19
ENDBRANCH   7  17
BRANCH  18  20
ATOM     20  C   UNL     1      -0.735  -0.749  25.814  0.00  0.00    +0.255 C 
BRANCH  20   3
ATOM      3  O   UNL     1      -0.254  -2.050  25.578  0.00  0.00    -0.374 OA
ATOM     25  C   UNL     1      -1.241  -2.886  24.978  0.00  0.00    +0.194 C 
ENDBRANCH  20   3
ENDBRANCH  18  20
TORSDOF 7
ENDMDL
MODEL 4
REMARK VINA RESULT:       1.0      1.972      4.028
REMARK  Name = 26742544
REMARK  10 active torsions:
REMARK  status: ('A' for Active; 'I' for Inactive)
REMARK    1  A    between atoms: O_3  and  C_20
REMARK    2  A    between atoms: O_3  and  C_25
REMARK    3  A    between atoms: O_4  and  C_22
REMARK    4  A    between atoms: O_4  and  C_28
REMARK    5  A    between atoms: O_5  and  C_24
REMARK    6  A    between atoms: O_5  and  C_29
REMARK    7  A    between atoms: N_7  and  C_17
REMARK    8  A    between atoms: C_17  and  C_19
REMARK    9  A    between atoms: C_18  and  C_20
REMARK   10  A    between atoms: C_19  and  C_21
REMARK                            x       y       z     vdW  Elec       q    Type
REMARK                         _______ _______ _______ _____ _____    ______ ____
ROOT
ATOM      1  O   UNL     1      -2.018   5.374  26.030  0.00  0.00    -0.276 OA
ATOM      2  O   UNL     1      -4.125  -1.299  26.202  0.00  0.00    -0.273 OA
ATOM      6  N   UNL     1      -4.731   0.517  24.886  0.00  0.00    -0.299 N 
ATOM      7  N   UNL     1      -1.433   4.046  24.221  0.00  0.00    -0.301 N 
ATOM      8  C   UNL     1      -4.156   2.454  23.433  0.00  0.00    +0.011 C 
ATOM      9  C   UNL     1      -4.474   3.389  24.625  0.00  0.00    +0.004 C 
ATOM     10  C   UNL     1      -4.263   2.677  25.974  0.00  0.00    +0.023 C 
ATOM     11  C   UNL     1      -4.956   1.143  23.577  0.00  0.00    +0.111 C 
ATOM     12  C   UNL     1      -2.662   2.139  23.228  0.00  0.00    +0.024 C 
ATOM     13  C   UNL     1      -3.778   4.753  24.554  0.00  0.00    +0.100 C 
ATOM     14  C   UNL     1      -5.046   1.367  26.034  0.00  0.00    +0.108 C 
ATOM     15  C   UNL     1      -1.809   3.378  22.977  0.00  0.00    +0.108 C 
ATOM     16  C   UNL     1      -2.330   4.759  25.007  0.00  0.00    +0.216 C 
ATOM     18  C   UNL     1      -4.283  -0.787  25.090  0.00  0.00    +0.241 C 
ENDROOT
BRANCH   7  17
ATOM     17  C   UNL     1      -0.039   3.929  24.628  0.00  0.00    +0.112 C 
BRANCH  17  19
ATOM     19  C   UNL     1       0.173   2.852  25.689  0.00  0.00    +0.058 C 
BRANCH  19  21
ATOM     21  C   UNL     1       0.062   1.453  25.137  0.00  0.00    -0.001 A 
ATOM     22  C   UNL     1       0.868   1.037  24.077  0.00  0.00    +0.165 A 
ATOM     23  C   UNL     1      -0.860   0.569  25.700  0.00  0.00    +0.007 A 
ATOM     24  C   UNL     1       0.752  -0.261  23.579  0.00  0.00    +0.162 A 
ATOM     26  C   UNL     1      -0.976  -0.729  25.202  0.00  0.00    +0.004 A 
ATOM     27  C   UNL     1      -0.169  -1.144  24.143  0.00  0.00    +0.049 A 
BRANCH  22   4
ATOM      4  O   UNL     1       1.771   1.897  23.524  0.00  0.00    -0.491 OA
ATOM     28  C   UNL     1       3.030   1.351  23.138  0.00  0.00    +0.277 C 
ENDBRANCH  22   4
BRANCH  24   5
ATOM      5  O   UNL     1       1.534  -0.680  22.545  0.00  0.00    -0.491 OA
ATOM     29  C   UNL     1       0.950  -0.666  21.245  0.00  0.00    +0.277 C 
ENDBRANCH  24   5
ENDBRANCH  19  21
ENDBRANCH  17  19
ENDBRANCH   7  17
BRANCH  18  20
ATOM     20  C   UNL     1      -3.977  -1.598  23.857  0.00  0.00    +0.255 C 
BRANCH  20   3
ATOM      3  O   UNL     1      -3.961  -2.947  24.256  0.00  0.00    -0.374 OA
ATOM     25  C   UNL     1      -2.656  -3.517  24.167  0.00  0.00    +0.194 C 
ENDBRANCH  20   3
ENDBRANCH  18  20
TORSDOF 7
ENDMDL
MODEL 5
REMARK VINA RESULT:       1.0      1.962      3.922
REMARK  Name = 26742544
REMARK  10 active torsions:
REMARK  status: ('A' for Active; 'I' for Inactive)
REMARK    1  A    between atoms: O_3  and  C_20
REMARK    2  A    between atoms: O_3  and  C_25
REMARK    3  A    between atoms: O_4  and  C_22
REMARK    4  A    between atoms: O_4  and  C_28
REMARK    5  A    between atoms: O_5  and  C_24
REMARK    6  A    between atoms: O_5  and  C_29
REMARK    7  A    between atoms: N_7  and  C_17
REMARK    8  A    between atoms: C_17  and  C_19
REMARK    9  A    between atoms: C_18  and  C_20
REMARK   10  A    between atoms: C_19  and  C_21
REMARK                            x       y       z     vdW  Elec       q    Type
REMARK                         _______ _______ _______ _____ _____    ______ ____
ROOT
ATOM      1  O   UNL     1      -4.709   0.021  26.586  0.00  0.00    -0.276 OA
ATOM      2  O   UNL     1       1.158   1.872  23.246  0.00  0.00    -0.273 OA
ATOM      6  N   UNL     1       0.568  -0.003  24.484  0.00  0.00    -0.299 N 
ATOM      7  N   UNL     1      -4.154  -1.199  24.694  0.00  0.00    -0.301 N 
ATOM      8  C   UNL     1      -0.990  -1.868  25.023  0.00  0.00    +0.011 C 
ATOM      9  C   UNL     1      -1.445  -1.072  26.269  0.00  0.00    +0.004 C 
ATOM     10  C   UNL     1      -1.264   0.444  26.070  0.00  0.00    +0.023 C 
ATOM     11  C   UNL     1       0.448  -1.458  24.645  0.00  0.00    +0.111 C 
ATOM     12  C   UNL     1      -1.912  -1.745  23.795  0.00  0.00    +0.024 C 
ATOM     13  C   UNL     1      -2.844  -1.445  26.775  0.00  0.00    +0.100 C 
ATOM     14  C   UNL     1       0.169   0.777  25.656  0.00  0.00    +0.108 C 
ATOM     15  C   UNL     1      -3.335  -2.227  24.054  0.00  0.00    +0.108 C 
ATOM     16  C   UNL     1      -3.992  -0.805  26.016  0.00  0.00    +0.216 C 
ATOM     18  C   UNL     1       1.043   0.647  23.346  0.00  0.00    +0.241 C 
ENDROOT
BRANCH   7  17
ATOM     17  C   UNL     1      -5.178  -0.574  23.866  0.00  0.00    +0.112 C 
BRANCH  17  19
ATOM     19  C   UNL     1      -5.365   0.907  24.186  0.00  0.00    +0.058 C 
BRANCH  19  21
ATOM     21  C   UNL     1      -4.105   1.714  23.995  0.00  0.00    -0.001 A 
ATOM     22  C   UNL     1      -3.797   2.770  24.853  0.00  0.00    +0.165 A 
ATOM     23  C   UNL     1      -3.243   1.393  22.946  0.00  0.00    +0.007 A 
ATOM     24  C   UNL     1      -2.627   3.506  24.662  0.00  0.00    +0.162 A 
ATOM     26  C   UNL     1      -2.073   2.129  22.755  0.00  0.00    +0.004 A 
ATOM     27  C   UNL     1      -1.765   3.184  23.613  0.00  0.00    +0.049 A 
BRANCH  22   4
ATOM      4  O   UNL     1      -4.636   3.087  25.880  0.00  0.00    -0.491 OA
ATOM     28  C   UNL     1      -5.658   4.042  25.608  0.00  0.00    +0.277 C 
ENDBRANCH  22   4
BRANCH  24   5
ATOM      5  O   UNL     1      -2.313   4.539  25.493  0.00  0.00    -0.491 OA
ATOM     29  C   UNL     1      -1.251   5.398  25.085  0.00  0.00    +0.277 C 
ENDBRANCH  24   5
ENDBRANCH  19  21
ENDBRANCH  17  19
ENDBRANCH   7  17
BRANCH  18  20
ATOM     20  C   UNL     1       1.432  -0.227  22.181  0.00  0.00    +0.255 C 
BRANCH  20   3
ATOM      3  O   UNL     1       2.717   0.183  21.782  0.00  0.00    -0.374 OA
ATOM     25  C   UNL     1       3.685  -0.012  22.811  0.00  0.00    +0.194 C 
ENDBRANCH  20   3
ENDBRANCH  18  20
TORSDOF 7
ENDMDL
MODEL 6
REMARK VINA RESULT:       1.1      1.674      3.428
REMARK  Name = 26742544
REMARK  10 active torsions:
REMARK  status: ('A' for Active; 'I' for Inactive)
REMARK    1  A    between atoms: O_3  and  C_20
REMARK    2  A    between atoms: O_3  and  C_25
REMARK    3  A    between atoms: O_4  and  C_22
REMARK    4  A    between atoms: O_4  and  C_28
REMARK    5  A    between atoms: O_5  and  C_24
REMARK    6  A    between atoms: O_5  and  C_29
REMARK    7  A    between atoms: N_7  and  C_17
REMARK    8  A    between atoms: C_17  and  C_19
REMARK    9  A    between atoms: C_18  and  C_20
REMARK   10  A    between atoms: C_19  and  C_21
REMARK                            x       y       z     vdW  Elec       q    Type
REMARK                         _______ _______ _______ _____ _____    ______ ____
ROOT
ATOM      1  O   UNL     1      -5.109   0.454  26.669  0.00  0.00    -0.276 OA
ATOM      2  O   UNL     1       1.156   1.981  23.945  0.00  0.00    -0.273 OA
ATOM      6  N   UNL     1       0.184  -0.004  24.661  0.00  0.00    -0.299 N 
ATOM      7  N   UNL     1      -4.678  -0.334  24.531  0.00  0.00    -0.301 N 
ATOM      8  C   UNL     1      -1.701  -1.629  24.697  0.00  0.00    +0.011 C 
ATOM      9  C   UNL     1      -2.074  -1.100  26.103  0.00  0.00    +0.004 C 
ATOM     10  C   UNL     1      -1.621   0.359  26.298  0.00  0.00    +0.023 C 
ATOM     11  C   UNL     1      -0.196  -1.406  24.445  0.00  0.00    +0.111 C 
ATOM     12  C   UNL     1      -2.522  -1.037  23.536  0.00  0.00    +0.024 C 
ATOM     13  C   UNL     1      -3.541  -1.326  26.488  0.00  0.00    +0.100 C 
ATOM     14  C   UNL     1      -0.133   0.518  25.991  0.00  0.00    +0.108 C 
ATOM     15  C   UNL     1      -4.019  -1.301  23.655  0.00  0.00    +0.108 C 
ATOM     16  C   UNL     1      -4.519  -0.319  25.911  0.00  0.00    +0.216 C 
ATOM     18  C   UNL     1       0.824   0.812  23.730  0.00  0.00    +0.241 C 
ENDROOT
BRANCH   7  17
ATOM     17  C   UNL     1      -5.533   0.654  23.884  0.00  0.00    +0.112 C 
BRANCH  17  19
ATOM     19  C   UNL     1      -4.739   1.808  23.278  0.00  0.00    +0.058 C 
BRANCH  19  21
ATOM     21  C   UNL     1      -4.103   2.695  24.318  0.00  0.00    -0.001 A 
ATOM     22  C   UNL     1      -2.729   2.935  24.309  0.00  0.00    +0.165 A 
ATOM     23  C   UNL     1      -4.906   3.280  25.298  0.00  0.00    +0.007 A 
ATOM     24  C   UNL     1      -2.157   3.759  25.280  0.00  0.00    +0.162 A 
ATOM     26  C   UNL     1      -4.335   4.103  26.269  0.00  0.00    +0.004 A 
ATOM     27  C   UNL     1      -2.961   4.344  26.259  0.00  0.00    +0.049 A 
BRANCH  22   4
ATOM      4  O   UNL     1      -1.939   2.367  23.353  0.00  0.00    -0.491 OA
ATOM     28  C   UNL     1      -2.445   2.355  22.021  0.00  0.00    +0.277 C 
ENDBRANCH  22   4
BRANCH  24   5
ATOM      5  O   UNL     1      -0.817   4.003  25.281  0.00  0.00    -0.491 OA
ATOM     29  C   UNL     1      -0.378   5.209  24.661  0.00  0.00    +0.277 C 
ENDBRANCH  24   5
ENDBRANCH  19  21
ENDBRANCH  17  19
ENDBRANCH   7  17
BRANCH  18  20
ATOM     20  C   UNL     1       1.115   0.201  22.382  0.00  0.00    +0.255 C 
BRANCH  20   3
ATOM      3  O   UNL     1       2.394  -0.376  22.469  0.00  0.00    -0.374 OA
ATOM     25  C   UNL     1       3.430   0.600  22.365  0.00  0.00    +0.194 C 
ENDBRANCH  20   3
ENDBRANCH  18  20
TORSDOF 7
ENDMDL
MODEL 7
REMARK VINA RESULT:       1.3      1.553      5.101
REMARK  Name = 26742544
REMARK  10 active torsions:
REMARK  status: ('A' for Active; 'I' for Inactive)
REMARK    1  A    between atoms: O_3  and  C_20
REMARK    2  A    between atoms: O_3  and  C_25
REMARK    3  A    between atoms: O_4  and  C_22
REMARK    4  A    between atoms: O_4  and  C_28
REMARK    5  A    between atoms: O_5  and  C_24
REMARK    6  A    between atoms: O_5  and  C_29
REMARK    7  A    between atoms: N_7  and  C_17
REMARK    8  A    between atoms: C_17  and  C_19
REMARK    9  A    between atoms: C_18  and  C_20
REMARK   10  A    between atoms: C_19  and  C_21
REMARK                            x       y       z     vdW  Elec       q    Type
REMARK                         _______ _______ _______ _____ _____    ______ ____
ROOT
ATOM      1  O   UNL     1      -1.834  -2.724  23.281  0.00  0.00    -0.276 OA
ATOM      2  O   UNL     1      -3.044   4.113  24.179  0.00  0.00    -0.273 OA
ATOM      6  N   UNL     1      -4.407   2.236  24.300  0.00  0.00    -0.299 N 
ATOM      7  N   UNL     1      -2.324  -2.023  25.437  0.00  0.00    -0.301 N 
ATOM      8  C   UNL     1      -4.898  -0.063  25.118  0.00  0.00    +0.011 C 
ATOM      9  C   UNL     1      -4.524  -0.597  23.715  0.00  0.00    +0.004 C 
ATOM     10  C   UNL     1      -3.528   0.337  23.001  0.00  0.00    +0.023 C 
ATOM     11  C   UNL     1      -5.386   1.396  25.002  0.00  0.00    +0.111 C 
ATOM     12  C   UNL     1      -3.782  -0.162  26.175  0.00  0.00    +0.024 C 
ATOM     13  C   UNL     1      -4.081  -2.065  23.700  0.00  0.00    +0.100 C 
ATOM     14  C   UNL     1      -4.052   1.771  22.960  0.00  0.00    +0.108 C 
ATOM     15  C   UNL     1      -3.308  -1.590  26.426  0.00  0.00    +0.108 C 
ATOM     16  C   UNL     1      -2.641  -2.305  24.114  0.00  0.00    +0.216 C 
ATOM     18  C   UNL     1      -3.846   3.410  24.800  0.00  0.00    +0.241 C 
ENDROOT
BRANCH   7  17
ATOM     17  C   UNL     1      -0.947  -2.145  25.898  0.00  0.00    +0.112 C 
BRANCH  17  19
ATOM     19  C   UNL     1       0.029  -1.331  25.052  0.00  0.00    +0.058 C 
BRANCH  19  21
ATOM     21  C   UNL     1      -0.131   0.157  25.237  0.00  0.00    -0.001 A 
ATOM     22  C   UNL     1       0.067   1.035  24.171  0.00  0.00    +0.165 A 
ATOM     23  C   UNL     1      -0.484   0.654  26.492  0.00  0.00    +0.007 A 
ATOM     24  C   UNL     1      -0.085   2.409  24.360  0.00  0.00    +0.162 A 
ATOM     26  C   UNL     1      -0.637   2.028  26.682  0.00  0.00    +0.004 A 
ATOM     27  C   UNL     1      -0.438   2.904  25.615  0.00  0.00    +0.049 A 
BRANCH  22   4
ATOM      4  O   UNL     1       0.411   0.555  22.942  0.00  0.00    -0.491 OA
ATOM     28  C   UNL     1       1.782   0.220  22.739  0.00  0.00    +0.277 C 
ENDBRANCH  22   4
BRANCH  24   5
ATOM      5  O   UNL     1       0.104   3.277  23.327  0.00  0.00    -0.491 OA
ATOM     29  C   UNL     1      -0.090   4.662  23.602  0.00  0.00    +0.277 C 
ENDBRANCH  24   5
ENDBRANCH  19  21
ENDBRANCH  17  19
ENDBRANCH   7  17
BRANCH  18  20
ATOM     20  C   UNL     1      -4.261   3.820  26.190  0.00  0.00    +0.255 C 
BRANCH  20   3
ATOM      3  O   UNL     1      -5.661   3.954  26.169  0.00  0.00    -0.374 OA
ATOM     25  C   UNL     1      -6.076   5.142  25.497  0.00  0.00    +0.194 C 
ENDBRANCH  20   3
ENDBRANCH  18  20
TORSDOF 7
ENDMDL
MODEL 8
REMARK VINA RESULT:       1.4      1.730      5.830
REMARK  Name = 26742544
REMARK  10 active torsions:
REMARK  status: ('A' for Active; 'I' for Inactive)
REMARK    1  A    between atoms: O_3  and  C_20
REMARK    2  A    between atoms: O_3  and  C_25
REMARK    3  A    between atoms: O_4  and  C_22
REMARK    4  A    between atoms: O_4  and  C_28
REMARK    5  A    between atoms: O_5  and  C_24
REMARK    6  A    between atoms: O_5  and  C_29
REMARK    7  A    between atoms: N_7  and  C_17
REMARK    8  A    between atoms: C_17  and  C_19
REMARK    9  A    between atoms: C_18  and  C_20
REMARK   10  A    between atoms: C_19  and  C_21
REMARK                            x       y       z     vdW  Elec       q    Type
REMARK                         _______ _______ _______ _____ _____    ______ ____
ROOT
ATOM      1  O   UNL     1       0.612   3.641  26.256  0.00  0.00    -0.276 OA
ATOM      2  O   UNL     1      -6.181   2.134  27.028  0.00  0.00    -0.273 OA
ATOM      6  N   UNL     1      -5.032   3.578  25.616  0.00  0.00    -0.299 N 
ATOM      7  N   UNL     1      -0.408   2.488  24.521  0.00  0.00    -0.301 N 
ATOM      8  C   UNL     1      -3.204   4.061  23.997  0.00  0.00    +0.011 C 
ATOM      9  C   UNL     1      -2.448   4.791  25.132  0.00  0.00    +0.004 C 
ATOM     10  C   UNL     1      -2.836   4.240  26.517  0.00  0.00    +0.023 C 
ATOM     11  C   UNL     1      -4.721   4.098  24.279  0.00  0.00    +0.111 C 
ATOM     12  C   UNL     1      -2.754   2.611  23.737  0.00  0.00    +0.024 C 
ATOM     13  C   UNL     1      -0.931   4.870  24.925  0.00  0.00    +0.100 C 
ATOM     14  C   UNL     1      -4.351   4.265  26.714  0.00  0.00    +0.108 C 
ATOM     15  C   UNL     1      -1.283   2.492  23.350  0.00  0.00    +0.108 C 
ATOM     16  C   UNL     1      -0.166   3.613  25.299  0.00  0.00    +0.216 C 
ATOM     18  C   UNL     1      -5.917   2.537  25.892  0.00  0.00    +0.241 C 
ENDROOT
BRANCH   7  17
ATOM     17  C   UNL     1       0.220   1.218  24.860  0.00  0.00    +0.112 C 
BRANCH  17  19
ATOM     19  C   UNL     1      -0.423   0.554  26.076  0.00  0.00    +0.058 C 
BRANCH  19  21
ATOM     21  C   UNL     1      -1.399  -0.534  25.704  0.00  0.00    -0.001 A 
ATOM     22  C   UNL     1      -1.074  -1.486  24.737  0.00  0.00    +0.165 A 
ATOM     23  C   UNL     1      -2.640  -0.583  26.341  0.00  0.00    +0.007 A 
ATOM     24  C   UNL     1      -1.989  -2.485  24.406  0.00  0.00    +0.162 A 
ATOM     26  C   UNL     1      -3.555  -1.582  26.009  0.00  0.00    +0.004 A 
ATOM     27  C   UNL     1      -3.230  -2.533  25.043  0.00  0.00    +0.049 A 
BRANCH  22   4
ATOM      4  O   UNL     1       0.138  -1.443  24.113  0.00  0.00    -0.491 OA
ATOM     28  C   UNL     1       0.202  -0.743  22.873  0.00  0.00    +0.277 C 
ENDBRANCH  22   4
BRANCH  24   5
ATOM      5  O   UNL     1      -1.684  -3.422  23.464  0.00  0.00    -0.491 OA
ATOM     29  C   UNL     1      -2.749  -4.254  23.010  0.00  0.00    +0.277 C 
ENDBRANCH  24   5
ENDBRANCH  19  21
ENDBRANCH  17  19
ENDBRANCH   7  17
BRANCH  18  20
ATOM     20  C   UNL     1      -6.577   1.879  24.706  0.00  0.00    +0.255 C 
BRANCH  20   3
ATOM      3  O   UNL     1      -6.094   0.558  24.659  0.00  0.00    -0.374 OA
ATOM     25  C   UNL     1      -4.797   0.483  24.070  0.00  0.00    +0.194 C 
ENDBRANCH  20   3
ENDBRANCH  18  20
TORSDOF 7
ENDMDL
MODEL 9
REMARK VINA RESULT:       2.0      1.865      5.417
REMARK  Name = 26742544
REMARK  10 active torsions:
REMARK  status: ('A' for Active; 'I' for Inactive)
REMARK    1  A    between atoms: O_3  and  C_20
REMARK    2  A    between atoms: O_3  and  C_25
REMARK    3  A    between atoms: O_4  and  C_22
REMARK    4  A    between atoms: O_4  and  C_28
REMARK    5  A    between atoms: O_5  and  C_24
REMARK    6  A    between atoms: O_5  and  C_29
REMARK    7  A    between atoms: N_7  and  C_17
REMARK    8  A    between atoms: C_17  and  C_19
REMARK    9  A    between atoms: C_18  and  C_20
REMARK   10  A    between atoms: C_19  and  C_21
REMARK                            x       y       z     vdW  Elec       q    Type
REMARK                         _______ _______ _______ _____ _____    ______ ____
ROOT
ATOM      1  O   UNL     1       0.521  -0.652  22.575  0.00  0.00    -0.276 OA
ATOM      2  O   UNL     1      -6.045   1.167  24.183  0.00  0.00    -0.273 OA
ATOM      6  N   UNL     1      -4.544  -0.335  25.125  0.00  0.00    -0.299 N 
ATOM      7  N   UNL     1       0.217   0.536  24.544  0.00  0.00    -0.301 N 
ATOM      8  C   UNL     1      -2.293  -0.910  26.018  0.00  0.00    +0.011 C 
ATOM      9  C   UNL     1      -2.010  -1.667  24.699  0.00  0.00    +0.004 C 
ATOM     10  C   UNL     1      -2.828  -1.092  23.528  0.00  0.00    +0.023 C 
ATOM     11  C   UNL     1      -3.814  -0.877  26.278  0.00  0.00    +0.111 C 
ATOM     12  C   UNL     1      -1.716   0.516  26.092  0.00  0.00    +0.024 C 
ATOM     13  C   UNL     1      -0.520  -1.817  24.370  0.00  0.00    +0.100 C 
ATOM     14  C   UNL     1      -4.317  -1.046  23.867  0.00  0.00    +0.108 C 
ATOM     15  C   UNL     1      -0.199   0.565  25.944  0.00  0.00    +0.108 C 
ATOM     16  C   UNL     1       0.124  -0.595  23.741  0.00  0.00    +0.216 C 
ATOM     18  C   UNL     1      -5.423   0.747  25.162  0.00  0.00    +0.241 C 
ENDROOT
BRANCH   7  17
ATOM     17  C   UNL     1       0.745   1.779  23.995  0.00  0.00    +0.112 C 
BRANCH  17  19
ATOM     19  C   UNL     1      -0.288   2.537  23.165  0.00  0.00    +0.058 C 
BRANCH  19  21
ATOM     21  C   UNL     1      -1.231   3.359  24.008  0.00  0.00    -0.001 A 
ATOM     22  C   UNL     1      -2.610   3.158  23.939  0.00  0.00    +0.165 A 
ATOM     23  C   UNL     1      -0.710   4.328  24.865  0.00  0.00    +0.007 A 
ATOM     24  C   UNL     1      -3.468   3.927  24.726  0.00  0.00    +0.162 A 
ATOM     26  C   UNL     1      -1.568   5.098  25.652  0.00  0.00    +0.004 A 
ATOM     27  C   UNL     1      -2.946   4.896  25.583  0.00  0.00    +0.049 A 
BRANCH  22   4
ATOM      4  O   UNL     1      -3.124   2.211  23.103  0.00  0.00    -0.491 OA
ATOM     28  C   UNL     1      -2.693   2.244  21.745  0.00  0.00    +0.277 C 
ENDBRANCH  22   4
BRANCH  24   5
ATOM      5  O   UNL     1      -4.816   3.740  24.670  0.00  0.00    -0.491 OA
ATOM     29  C   UNL     1      -5.625   4.632  25.432  0.00  0.00    +0.277 C 
ENDBRANCH  24   5
ENDBRANCH  19  21
ENDBRANCH  17  19
ENDBRANCH   7  17
BRANCH  18  20
ATOM     20  C   UNL     1      -5.602   1.428  26.496  0.00  0.00    +0.255 C 
BRANCH  20   3
ATOM      3  O   UNL     1      -6.982   1.428  26.765  0.00  0.00    -0.374 OA
ATOM     25  C   UNL     1      -7.277   0.880  28.049  0.00  0.00    +0.194 C 
ENDBRANCH  20   3
ENDBRANCH  18  20
TORSDOF 7
ENDMDL
MODEL 10
REMARK VINA RESULT:       2.0      2.072      3.978
REMARK  Name = 26742544
REMARK  10 active torsions:
REMARK  status: ('A' for Active; 'I' for Inactive)
REMARK    1  A    between atoms: O_3  and  C_20
REMARK    2  A    between atoms: O_3  and  C_25
REMARK    3  A    between atoms: O_4  and  C_22
REMARK    4  A    between atoms: O_4  and  C_28
REMARK    5  A    between atoms: O_5  and  C_24
REMARK    6  A    between atoms: O_5  and  C_29
REMARK    7  A    between atoms: N_7  and  C_17
REMARK    8  A    between atoms: C_17  and  C_19
REMARK    9  A    between atoms: C_18  and  C_20
REMARK   10  A    between atoms: C_19  and  C_21
REMARK                            x       y       z     vdW  Elec       q    Type
REMARK                         _______ _______ _______ _____ _____    ______ ____
ROOT
ATOM      1  O   UNL     1      -2.263   5.396  26.354  0.00  0.00    -0.276 OA
ATOM      2  O   UNL     1      -4.189  -1.328  26.054  0.00  0.00    -0.273 OA
ATOM      6  N   UNL     1      -4.774   0.542  24.806  0.00  0.00    -0.299 N 
ATOM      7  N   UNL     1      -1.546   4.184  24.511  0.00  0.00    -0.301 N 
ATOM      8  C   UNL     1      -4.178   2.570  23.492  0.00  0.00    +0.011 C 
ATOM      9  C   UNL     1      -4.584   3.429  24.713  0.00  0.00    +0.004 C 
ATOM     10  C   UNL     1      -4.425   2.651  26.032  0.00  0.00    +0.023 C 
ATOM     11  C   UNL     1      -4.947   1.234  23.522  0.00  0.00    +0.111 C 
ATOM     12  C   UNL     1      -2.667   2.304  23.352  0.00  0.00    +0.024 C 
ATOM     13  C   UNL     1      -3.924   4.813  24.753  0.00  0.00    +0.100 C 
ATOM     14  C   UNL     1      -5.174   1.320  25.978  0.00  0.00    +0.108 C 
ATOM     15  C   UNL     1      -1.837   3.576  23.214  0.00  0.00    +0.108 C 
ATOM     16  C   UNL     1      -2.502   4.831  25.284  0.00  0.00    +0.216 C 
ATOM     18  C   UNL     1      -4.301  -0.759  24.964  0.00  0.00    +0.241 C 
ENDROOT
BRANCH   7  17
ATOM     17  C   UNL     1      -0.173   4.080  24.986  0.00  0.00    +0.112 C 
BRANCH  17  19
ATOM     19  C   UNL     1       0.089   2.778  25.739  0.00  0.00    +0.058 C 
BRANCH  19  21
ATOM     21  C   UNL     1       0.333   1.606  24.821  0.00  0.00    -0.001 A 
ATOM     22  C   UNL     1      -0.438   0.448  24.922  0.00  0.00    +0.165 A 
ATOM     23  C   UNL     1       1.343   1.691  23.862  0.00  0.00    +0.007 A 
ATOM     24  C   UNL     1      -0.198  -0.627  24.065  0.00  0.00    +0.162 A 
ATOM     26  C   UNL     1       1.583   0.616  23.005  0.00  0.00    +0.004 A 
ATOM     27  C   UNL     1       0.811  -0.541  23.106  0.00  0.00    +0.049 A 
BRANCH  22   4
ATOM      4  O   UNL     1      -1.427   0.361  25.857  0.00  0.00    -0.491 OA
ATOM     28  C   UNL     1      -1.201  -0.518  26.956  0.00  0.00    +0.277 C 
ENDBRANCH  22   4
BRANCH  24   5
ATOM      5  O   UNL     1      -0.944  -1.763  24.151  0.00  0.00    -0.491 OA
ATOM     29  C   UNL     1      -0.402  -2.837  24.915  0.00  0.00    +0.277 C 
ENDBRANCH  24   5
ENDBRANCH  19  21
ENDBRANCH  17  19
ENDBRANCH   7  17
BRANCH  18  20
ATOM     20  C   UNL     1      -3.908  -1.494  23.707  0.00  0.00    +0.255 C 
BRANCH  20   3
ATOM      3  O   UNL     1      -4.545  -2.747  23.757  0.00  0.00    -0.374 OA
ATOM     25  C   UNL     1      -3.627  -3.804  24.029  0.00  0.00    +0.194 C 
ENDBRANCH  20   3
ENDBRANCH  18  20
TORSDOF 7
ENDMDL
