MODEL 1
REMARK VINA RESULT:       5.2      0.000      0.000
REMARK  Name = 25389946
REMARK  7 active torsions:
REMARK  status: ('A' for Active; 'I' for Inactive)
REMARK    1  A    between atoms: O_2  and  C_19
REMARK    2  A    between atoms: O_2  and  C_31
REMARK    3  A    between atoms: N_6  and  C_10
REMARK    4  A    between atoms: N_6  and  C_22
REMARK    5  A    between atoms: C_8  and  C_16
REMARK    6  A    between atoms: C_11  and  C_19
REMARK    7  A    between atoms: C_22  and  C_30
REMARK                            x       y       z     vdW  Elec       q    Type
REMARK                         _______ _______ _______ _____ _____    ______ ____
ROOT
ATOM      4  N   UNL     1      -1.242   1.452  25.846  0.00  0.00    -0.274 NA
ATOM      5  N   UNL     1      -3.954  -0.177  23.821  0.00  0.00    -0.356 N 
ATOM      7  C   UNL     1      -2.305   1.522  24.796  0.00  0.00    +0.106 C 
ATOM      8  C   UNL     1      -0.676   2.790  26.153  0.00  0.00    +0.090 C 
ATOM      9  C   UNL     1      -3.440   2.461  25.233  0.00  0.00    +0.044 C 
ATOM     10  C   UNL     1      -2.897   3.863  25.510  0.00  0.00    +0.058 C 
ATOM     11  C   UNL     1      -0.231   0.394  25.577  0.00  0.00    +0.172 C 
ATOM     12  C   UNL     1      -1.790   3.786  26.560  0.00  0.00    +0.042 C 
ATOM     13  C   UNL     1      -2.811   0.141  24.501  0.00  0.00    +0.038 A 
ATOM     14  C   UNL     1      -0.853  -1.025  25.530  0.00  0.00    +0.068 C 
ATOM     15  C   UNL     1      -2.156  -1.030  24.810  0.00  0.00    -0.016 A 
ATOM     17  C   UNL     1      -2.948  -2.110  24.332  0.00  0.00    +0.003 A 
ATOM     18  C   UNL     1      -4.071  -1.547  23.718  0.00  0.00    +0.047 A 
ATOM     23  C   UNL     1      -2.821  -3.513  24.357  0.00  0.00    +0.010 A 
ATOM     24  C   UNL     1      -5.075  -2.322  23.127  0.00  0.00    +0.026 A 
ATOM     25  C   UNL     1      -3.819  -4.300  23.771  0.00  0.00    +0.001 A 
ATOM     28  C   UNL     1      -4.928  -3.712  23.165  0.00  0.00    +0.002 A 
ATOM     33  H   UNL     1      -4.620   0.486  23.450  0.00  0.00    +0.166 HD
ENDROOT
BRANCH   8  16
ATOM      1  F   UNL     1       3.193   2.773  30.277  0.00  0.00    -0.205 F 
ATOM     16  C   UNL     1       0.368   2.786  27.266  0.00  0.00    -0.030 A 
ATOM     20  C   UNL     1       1.686   3.152  26.988  0.00  0.00    +0.008 A 
ATOM     21  C   UNL     1       0.006   2.416  28.562  0.00  0.00    +0.008 A 
ATOM     26  C   UNL     1       2.640   3.147  28.005  0.00  0.00    +0.038 A 
ATOM     27  C   UNL     1       0.960   2.412  29.578  0.00  0.00    +0.038 A 
ATOM     29  C   UNL     1       2.278   2.777  29.300  0.00  0.00    +0.123 A 
ENDBRANCH   8  16
BRANCH  11  19
ATOM      3  O   UNL     1       1.014   1.781  24.047  0.00  0.00    -0.249 OA
ATOM     19  C   UNL     1       0.520   0.692  24.311  0.00  0.00    +0.325 C 
BRANCH  19   2
ATOM      2  O   UNL     1       0.557  -0.424  23.529  0.00  0.00    -0.467 OA
ATOM     31  C   UNL     1       1.424  -0.349  22.391  0.00  0.00    +0.280 C 
ENDBRANCH  19   2
ENDBRANCH  11  19
BRANCH  10   6
ATOM      6  N   UNL     1      -3.978   4.740  25.956  0.00  0.00    -0.303 NA
ATOM     34  H   UNL     1      -4.123   4.615  26.959  0.00  0.00    +0.123 HD
BRANCH   6  22
ATOM     22  C   UNL     1      -5.218   4.424  25.264  0.00  0.00    +0.170 C 
BRANCH  22  30
ATOM     30  C   UNL     1      -5.802   3.181  25.775  0.00  0.00    -0.090 C 
ATOM     32  C   UNL     1      -6.277   2.159  26.191  0.00  0.00    +0.005 C 
ENDBRANCH  22  30
ENDBRANCH   6  22
ENDBRANCH  10   6
TORSDOF 6
ENDMDL
MODEL 2
REMARK VINA RESULT:       5.4      3.383      6.522
REMARK  Name = 25389946
REMARK  7 active torsions:
REMARK  status: ('A' for Active; 'I' for Inactive)
REMARK    1  A    between atoms: O_2  and  C_19
REMARK    2  A    between atoms: O_2  and  C_31
REMARK    3  A    between atoms: N_6  and  C_10
REMARK    4  A    between atoms: N_6  and  C_22
REMARK    5  A    between atoms: C_8  and  C_16
REMARK    6  A    between atoms: C_11  and  C_19
REMARK    7  A    between atoms: C_22  and  C_30
REMARK                            x       y       z     vdW  Elec       q    Type
REMARK                         _______ _______ _______ _____ _____    ______ ____
ROOT
ATOM      4  N   UNL     1      -2.020   0.993  24.266  0.00  0.00    -0.274 NA
ATOM      5  N   UNL     1       1.126  -0.936  23.567  0.00  0.00    -0.356 N 
ATOM      7  C   UNL     1      -1.328  -0.272  23.868  0.00  0.00    +0.106 C 
ATOM      8  C   UNL     1      -3.480   0.793  24.451  0.00  0.00    +0.090 C 
ATOM      9  C   UNL     1      -1.557  -1.370  24.918  0.00  0.00    +0.044 C 
ATOM     10  C   UNL     1      -3.052  -1.635  25.097  0.00  0.00    +0.058 C 
ATOM     11  C   UNL     1      -1.653   2.150  23.404  0.00  0.00    +0.172 C 
ATOM     12  C   UNL     1      -3.762  -0.336  25.472  0.00  0.00    +0.042 C 
ATOM     13  C   UNL     1       0.132  -0.001  23.659  0.00  0.00    +0.038 A 
ATOM     14  C   UNL     1      -0.139   2.477  23.460  0.00  0.00    +0.068 C 
ATOM     15  C   UNL     1       0.691   1.241  23.453  0.00  0.00    -0.016 A 
ATOM     17  C   UNL     1       2.088   1.063  23.263  0.00  0.00    +0.003 A 
ATOM     18  C   UNL     1       2.335  -0.311  23.341  0.00  0.00    +0.047 A 
ATOM     23  C   UNL     1       3.171   1.934  23.028  0.00  0.00    +0.010 A 
ATOM     24  C   UNL     1       3.615  -0.857  23.196  0.00  0.00    +0.026 A 
ATOM     25  C   UNL     1       4.457   1.401  22.882  0.00  0.00    +0.001 A 
ATOM     28  C   UNL     1       4.674   0.027  22.965  0.00  0.00    +0.002 A 
ATOM     33  H   UNL     1       1.002  -1.935  23.653  0.00  0.00    +0.166 HD
ENDROOT
BRANCH   8  16
ATOM      1  F   UNL     1      -6.246   5.408  26.191  0.00  0.00    -0.205 F 
ATOM     16  C   UNL     1      -4.227   2.038  24.921  0.00  0.00    -0.030 A 
ATOM     20  C   UNL     1      -5.620   2.035  24.982  0.00  0.00    +0.008 A 
ATOM     21  C   UNL     1      -3.515   3.182  25.289  0.00  0.00    +0.008 A 
ATOM     26  C   UNL     1      -6.303   3.173  25.411  0.00  0.00    +0.038 A 
ATOM     27  C   UNL     1      -4.198   4.319  25.718  0.00  0.00    +0.038 A 
ATOM     29  C   UNL     1      -5.591   4.315  25.779  0.00  0.00    +0.123 A 
ENDBRANCH   8  16
BRANCH  11  19
ATOM      3  O   UNL     1      -1.983   0.847  21.402  0.00  0.00    -0.249 OA
ATOM     19  C   UNL     1      -2.099   1.915  21.989  0.00  0.00    +0.325 C 
BRANCH  19   2
ATOM      2  O   UNL     1      -2.639   3.061  21.484  0.00  0.00    -0.467 OA
ATOM     31  C   UNL     1      -3.947   3.388  21.965  0.00  0.00    +0.280 C 
ENDBRANCH  19   2
ENDBRANCH  11  19
BRANCH  10   6
ATOM      6  N   UNL     1      -3.261  -2.658  26.120  0.00  0.00    -0.303 NA
ATOM     34  H   UNL     1      -2.394  -2.799  26.639  0.00  0.00    +0.123 HD
BRANCH   6  22
ATOM     22  C   UNL     1      -3.653  -3.921  25.515  0.00  0.00    +0.170 C 
BRANCH  22  30
ATOM     30  C   UNL     1      -4.119  -3.721  24.139  0.00  0.00    -0.090 C 
ATOM     32  C   UNL     1      -4.500  -3.551  23.013  0.00  0.00    +0.005 C 
ENDBRANCH  22  30
ENDBRANCH   6  22
ENDBRANCH  10   6
TORSDOF 6
ENDMDL
MODEL 3
REMARK VINA RESULT:       5.9      2.326      5.778
REMARK  Name = 25389946
REMARK  7 active torsions:
REMARK  status: ('A' for Active; 'I' for Inactive)
REMARK    1  A    between atoms: O_2  and  C_19
REMARK    2  A    between atoms: O_2  and  C_31
REMARK    3  A    between atoms: N_6  and  C_10
REMARK    4  A    between atoms: N_6  and  C_22
REMARK    5  A    between atoms: C_8  and  C_16
REMARK    6  A    between atoms: C_11  and  C_19
REMARK    7  A    between atoms: C_22  and  C_30
REMARK                            x       y       z     vdW  Elec       q    Type
REMARK                         _______ _______ _______ _____ _____    ______ ____
ROOT
ATOM      4  N   UNL     1      -0.689   0.654  24.583  0.00  0.00    -0.274 NA
ATOM      5  N   UNL     1      -4.272   1.345  25.473  0.00  0.00    -0.356 N 
ATOM      7  C   UNL     1      -1.967   0.253  25.247  0.00  0.00    +0.106 C 
ATOM      8  C   UNL     1       0.318  -0.437  24.610  0.00  0.00    +0.090 C 
ATOM      9  C   UNL     1      -2.560  -0.995  24.577  0.00  0.00    +0.044 C 
ATOM     10  C   UNL     1      -1.565  -2.155  24.632  0.00  0.00    +0.058 C 
ATOM     11  C   UNL     1      -0.187   1.978  25.043  0.00  0.00    +0.172 C 
ATOM     12  C   UNL     1      -0.249  -1.733  23.981  0.00  0.00    +0.042 C 
ATOM     13  C   UNL     1      -2.929   1.404  25.224  0.00  0.00    +0.038 A 
ATOM     14  C   UNL     1      -1.182   3.128  24.745  0.00  0.00    +0.068 C 
ATOM     15  C   UNL     1      -2.588   2.722  25.015  0.00  0.00    -0.016 A 
ATOM     17  C   UNL     1      -3.776   3.497  25.105  0.00  0.00    +0.003 A 
ATOM     18  C   UNL     1      -4.818   2.609  25.391  0.00  0.00    +0.047 A 
ATOM     23  C   UNL     1      -4.072   4.869  24.975  0.00  0.00    +0.010 A 
ATOM     24  C   UNL     1      -6.143   3.028  25.553  0.00  0.00    +0.026 A 
ATOM     25  C   UNL     1      -5.394   5.301  25.133  0.00  0.00    +0.001 A 
ATOM     28  C   UNL     1      -6.412   4.393  25.418  0.00  0.00    +0.002 A 
ATOM     33  H   UNL     1      -4.794   0.506  25.683  0.00  0.00    +0.166 HD
ENDROOT
BRANCH   8  16
ATOM      1  F   UNL     1       5.142   0.794  21.929  0.00  0.00    -0.205 F 
ATOM     16  C   UNL     1       1.620  -0.104  23.887  0.00  0.00    -0.030 A 
ATOM     20  C   UNL     1       1.825   1.177  23.374  0.00  0.00    +0.008 A 
ATOM     21  C   UNL     1       2.605  -1.082  23.738  0.00  0.00    +0.008 A 
ATOM     26  C   UNL     1       3.016   1.480  22.712  0.00  0.00    +0.038 A 
ATOM     27  C   UNL     1       3.794  -0.778  23.077  0.00  0.00    +0.038 A 
ATOM     29  C   UNL     1       4.000   0.503  22.563  0.00  0.00    +0.123 A 
ENDBRANCH   8  16
BRANCH  11  19
ATOM      3  O   UNL     1      -0.346   1.150  27.303  0.00  0.00    -0.249 OA
ATOM     19  C   UNL     1       0.156   1.931  26.505  0.00  0.00    +0.325 C 
BRANCH  19   2
ATOM      2  O   UNL     1       1.096   2.880  26.784  0.00  0.00    -0.467 OA
ATOM     31  C   UNL     1       1.646   2.830  28.105  0.00  0.00    +0.280 C 
ENDBRANCH  19   2
ENDBRANCH  11  19
BRANCH  10   6
ATOM      6  N   UNL     1      -2.124  -3.328  23.963  0.00  0.00    -0.303 NA
ATOM     34  H   UNL     1      -2.094  -3.188  22.953  0.00  0.00    +0.123 HD
BRANCH   6  22
ATOM     22  C   UNL     1      -3.507  -3.540  24.363  0.00  0.00    +0.170 C 
BRANCH  22  30
ATOM     30  C   UNL     1      -4.358  -2.435  23.911  0.00  0.00    -0.090 C 
ATOM     32  C   UNL     1      -5.052  -1.527  23.543  0.00  0.00    +0.005 C 
ENDBRANCH  22  30
ENDBRANCH   6  22
ENDBRANCH  10   6
TORSDOF 6
ENDMDL
