MODEL 1
REMARK VINA RESULT:       6.7      0.000      0.000
REMARK  Name = 7155412
REMARK  4 active torsions:
REMARK  status: ('A' for Active; 'I' for Inactive)
REMARK    1  A    between atoms: O_3  and  C_29
REMARK    2  A    between atoms: O_3  and  C_30
REMARK    3  A    between atoms: C_13  and  C_18
REMARK    4  A    between atoms: C_15  and  C_19
REMARK                            x       y       z     vdW  Elec       q    Type
REMARK                         _______ _______ _______ _____ _____    ______ ____
ROOT
ATOM      1  O   UNL     1      -1.977   3.758  28.368  0.00  0.00    -0.268 OA
ATOM      2  O   UNL     1      -5.676   1.901  25.433  0.00  0.00    -0.270 OA
ATOM      4  N   UNL     1      -3.972   2.588  23.988  0.00  0.00    -0.297 N 
ATOM      5  N   UNL     1      -1.762   3.497  26.051  0.00  0.00    -0.311 N 
ATOM      6  C   UNL     1      -3.154   4.893  24.409  0.00  0.00    +0.027 C 
ATOM      7  C   UNL     1      -1.597   3.187  23.562  0.00  0.00    +0.054 C 
ATOM      8  C   UNL     1      -1.995   4.659  23.453  0.00  0.00    +0.018 C 
ATOM      9  C   UNL     1      -4.350   3.998  24.039  0.00  0.00    +0.113 C 
ATOM     10  C   UNL     1      -2.667   4.636  25.836  0.00  0.00    +0.130 C 
ATOM     11  C   UNL     1      -2.794   2.298  23.157  0.00  0.00    +0.117 C 
ATOM     12  C   UNL     1      -1.137   2.831  24.979  0.00  0.00    +0.034 A 
ATOM     13  C   UNL     1      -0.189   1.889  25.226  0.00  0.00    +0.002 A 
ATOM     14  C   UNL     1      -1.471   3.200  27.394  0.00  0.00    +0.252 A 
ATOM     15  C   UNL     1      -4.690   1.655  24.740  0.00  0.00    +0.247 C 
ATOM     16  C   UNL     1       0.133   1.553  26.598  0.00  0.00    +0.015 A 
ATOM     17  C   UNL     1      -0.464   2.141  27.634  0.00  0.00    +0.071 A 
ENDROOT
BRANCH  13  18
ATOM     18  C   UNL     1       0.510   1.182  24.130  0.00  0.00    -0.016 A 
ATOM     20  C   UNL     1       1.783   1.590  23.746  0.00  0.00    +0.008 A 
ATOM     21  C   UNL     1      -0.110   0.111  23.492  0.00  0.00    +0.008 A 
ATOM     24  C   UNL     1       2.443   0.923  22.713  0.00  0.00    +0.001 A 
ATOM     25  C   UNL     1       0.551  -0.556  22.460  0.00  0.00    +0.001 A 
ATOM     28  C   UNL     1       1.827  -0.149  22.070  0.00  0.00    +0.000 A 
ENDBRANCH  13  18
BRANCH  15  19
ATOM     19  C   UNL     1      -4.236   0.259  24.733  0.00  0.00    +0.037 A 
ATOM     22  C   UNL     1      -4.762  -0.634  23.803  0.00  0.00    +0.016 A 
ATOM     23  C   UNL     1      -3.281  -0.165  25.653  0.00  0.00    +0.016 A 
ATOM     26  C   UNL     1      -4.331  -1.961  23.794  0.00  0.00    +0.046 A 
ATOM     27  C   UNL     1      -2.850  -1.491  25.644  0.00  0.00    +0.046 A 
ATOM     29  C   UNL     1      -3.375  -2.390  24.714  0.00  0.00    +0.120 A 
BRANCH  29   3
ATOM      3  O   UNL     1      -2.952  -3.683  24.705  0.00  0.00    -0.495 OA
ATOM     30  C   UNL     1      -2.123  -4.087  23.616  0.00  0.00    +0.277 C 
ENDBRANCH  29   3
ENDBRANCH  15  19
TORSDOF 3
ENDMDL
MODEL 2
REMARK VINA RESULT:       9.1      2.216      5.086
REMARK  Name = 7155412
REMARK  4 active torsions:
REMARK  status: ('A' for Active; 'I' for Inactive)
REMARK    1  A    between atoms: O_3  and  C_29
REMARK    2  A    between atoms: O_3  and  C_30
REMARK    3  A    between atoms: C_13  and  C_18
REMARK    4  A    between atoms: C_15  and  C_19
REMARK                            x       y       z     vdW  Elec       q    Type
REMARK                         _______ _______ _______ _____ _____    ______ ____
ROOT
ATOM      1  O   UNL     1      -4.304   4.448  21.384  0.00  0.00    -0.268 OA
ATOM      2  O   UNL     1      -1.312   5.416  25.367  0.00  0.00    -0.270 OA
ATOM      4  N   UNL     1      -2.694   3.640  25.999  0.00  0.00    -0.297 N 
ATOM      5  N   UNL     1      -4.281   3.126  23.317  0.00  0.00    -0.311 N 
ATOM      6  C   UNL     1      -5.107   4.032  25.571  0.00  0.00    +0.027 C 
ATOM      7  C   UNL     1      -4.202   1.749  25.419  0.00  0.00    +0.054 C 
ATOM      8  C   UNL     1      -5.403   2.573  25.884  0.00  0.00    +0.018 C 
ATOM      9  C   UNL     1      -3.837   4.497  26.305  0.00  0.00    +0.113 C 
ATOM     10  C   UNL     1      -4.982   4.188  24.054  0.00  0.00    +0.130 C 
ATOM     11  C   UNL     1      -2.938   2.201  26.184  0.00  0.00    +0.117 C 
ATOM     12  C   UNL     1      -3.976   1.886  23.910  0.00  0.00    +0.034 A 
ATOM     13  C   UNL     1      -3.469   0.878  23.152  0.00  0.00    +0.002 A 
ATOM     14  C   UNL     1      -4.046   3.389  21.956  0.00  0.00    +0.252 A 
ATOM     15  C   UNL     1      -1.514   4.212  25.519  0.00  0.00    +0.247 C 
ATOM     16  C   UNL     1      -3.209   1.113  21.745  0.00  0.00    +0.015 A 
ATOM     17  C   UNL     1      -3.456   2.286  21.162  0.00  0.00    +0.071 A 
ENDROOT
BRANCH  13  18
ATOM     18  C   UNL     1      -3.157  -0.449  23.727  0.00  0.00    -0.016 A 
ATOM     20  C   UNL     1      -1.883  -0.706  24.221  0.00  0.00    +0.008 A 
ATOM     21  C   UNL     1      -4.142  -1.431  23.771  0.00  0.00    +0.008 A 
ATOM     24  C   UNL     1      -1.589  -1.957  24.764  0.00  0.00    +0.001 A 
ATOM     25  C   UNL     1      -3.849  -2.682  24.315  0.00  0.00    +0.001 A 
ATOM     28  C   UNL     1      -2.572  -2.946  24.810  0.00  0.00    +0.000 A 
ENDBRANCH  13  18
BRANCH  15  19
ATOM     19  C   UNL     1      -0.411   3.318  25.144  0.00  0.00    +0.037 A 
ATOM     22  C   UNL     1      -0.129   3.097  23.798  0.00  0.00    +0.016 A 
ATOM     23  C   UNL     1       0.348   2.699  26.133  0.00  0.00    +0.016 A 
ATOM     26  C   UNL     1       0.919   2.249  23.439  0.00  0.00    +0.046 A 
ATOM     27  C   UNL     1       1.395   1.851  25.774  0.00  0.00    +0.046 A 
ATOM     29  C   UNL     1       1.681   1.626  24.428  0.00  0.00    +0.120 A 
BRANCH  29   3
ATOM      3  O   UNL     1       2.705   0.800  24.079  0.00  0.00    -0.495 OA
ATOM     30  C   UNL     1       2.803   0.432  22.704  0.00  0.00    +0.277 C 
ENDBRANCH  29   3
ENDBRANCH  15  19
TORSDOF 3
ENDMDL
MODEL 3
REMARK VINA RESULT:       9.1      2.049      4.381
REMARK  Name = 7155412
REMARK  4 active torsions:
REMARK  status: ('A' for Active; 'I' for Inactive)
REMARK    1  A    between atoms: O_3  and  C_29
REMARK    2  A    between atoms: O_3  and  C_30
REMARK    3  A    between atoms: C_13  and  C_18
REMARK    4  A    between atoms: C_15  and  C_19
REMARK                            x       y       z     vdW  Elec       q    Type
REMARK                         _______ _______ _______ _____ _____    ______ ____
ROOT
ATOM      1  O   UNL     1       0.981   2.371  27.765  0.00  0.00    -0.268 OA
ATOM      2  O   UNL     1      -2.189   5.122  24.914  0.00  0.00    -0.270 OA
ATOM      4  N   UNL     1      -1.654   3.225  23.658  0.00  0.00    -0.297 N 
ATOM      5  N   UNL     1       0.135   1.627  25.712  0.00  0.00    -0.311 N 
ATOM      6  C   UNL     1       0.781   2.765  23.505  0.00  0.00    +0.027 C 
ATOM      7  C   UNL     1      -0.813   0.890  23.503  0.00  0.00    +0.054 C 
ATOM      8  C   UNL     1       0.487   1.406  22.887  0.00  0.00    +0.018 C 
ATOM      9  C   UNL     1      -0.365   3.751  23.214  0.00  0.00    +0.113 C 
ATOM     10  C   UNL     1       1.007   2.578  25.006  0.00  0.00    +0.130 C 
ATOM     11  C   UNL     1      -1.962   1.869  23.178  0.00  0.00    +0.117 C 
ATOM     12  C   UNL     1      -0.687   0.717  25.020  0.00  0.00    +0.034 A 
ATOM     13  C   UNL     1      -1.357  -0.247  25.705  0.00  0.00    +0.002 A 
ATOM     14  C   UNL     1       0.269   1.609  27.112  0.00  0.00    +0.252 A 
ATOM     15  C   UNL     1      -2.449   3.988  24.515  0.00  0.00    +0.247 C 
ATOM     16  C   UNL     1      -1.247  -0.295  27.149  0.00  0.00    +0.015 A 
ATOM     17  C   UNL     1      -0.504   0.573  27.835  0.00  0.00    +0.071 A 
ENDROOT
BRANCH  13  18
ATOM     18  C   UNL     1      -2.212  -1.240  25.017  0.00  0.00    -0.016 A 
ATOM     20  C   UNL     1      -3.557  -0.961  24.799  0.00  0.00    +0.008 A 
ATOM     21  C   UNL     1      -1.664  -2.447  24.592  0.00  0.00    +0.008 A 
ATOM     24  C   UNL     1      -4.363  -1.897  24.150  0.00  0.00    +0.001 A 
ATOM     25  C   UNL     1      -2.470  -3.382  23.942  0.00  0.00    +0.001 A 
ATOM     28  C   UNL     1      -3.819  -3.108  23.722  0.00  0.00    +0.000 A 
ENDBRANCH  13  18
BRANCH  15  19
ATOM     19  C   UNL     1      -3.700   3.399  25.010  0.00  0.00    +0.037 A 
ATOM     22  C   UNL     1      -4.383   2.470  24.230  0.00  0.00    +0.016 A 
ATOM     23  C   UNL     1      -4.197   3.772  26.256  0.00  0.00    +0.016 A 
ATOM     26  C   UNL     1      -5.571   1.910  24.699  0.00  0.00    +0.046 A 
ATOM     27  C   UNL     1      -5.385   3.212  26.725  0.00  0.00    +0.046 A 
ATOM     29  C   UNL     1      -6.073   2.280  25.946  0.00  0.00    +0.120 A 
BRANCH  29   3
ATOM      3  O   UNL     1      -7.230   1.733  26.406  0.00  0.00    -0.495 OA
ATOM     30  C   UNL     1      -7.194   1.127  27.698  0.00  0.00    +0.277 C 
ENDBRANCH  29   3
ENDBRANCH  15  19
TORSDOF 3
ENDMDL
MODEL 4
REMARK VINA RESULT:       9.2      2.057      4.444
REMARK  Name = 7155412
REMARK  4 active torsions:
REMARK  status: ('A' for Active; 'I' for Inactive)
REMARK    1  A    between atoms: O_3  and  C_29
REMARK    2  A    between atoms: O_3  and  C_30
REMARK    3  A    between atoms: C_13  and  C_18
REMARK    4  A    between atoms: C_15  and  C_19
REMARK                            x       y       z     vdW  Elec       q    Type
REMARK                         _______ _______ _______ _____ _____    ______ ____
ROOT
ATOM      1  O   UNL     1       0.991   2.401  27.740  0.00  0.00    -0.268 OA
ATOM      2  O   UNL     1      -2.176   5.151  24.885  0.00  0.00    -0.270 OA
ATOM      4  N   UNL     1      -1.655   3.243  23.638  0.00  0.00    -0.297 N 
ATOM      5  N   UNL     1       0.134   1.649  25.695  0.00  0.00    -0.311 N 
ATOM      6  C   UNL     1       0.777   2.770  23.479  0.00  0.00    +0.027 C 
ATOM      7  C   UNL     1      -0.826   0.903  23.495  0.00  0.00    +0.054 C 
ATOM      8  C   UNL     1       0.474   1.409  22.870  0.00  0.00    +0.018 C 
ATOM      9  C   UNL     1      -0.365   3.760  23.186  0.00  0.00    +0.113 C 
ATOM     10  C   UNL     1       1.008   2.591  24.980  0.00  0.00    +0.130 C 
ATOM     11  C   UNL     1      -1.972   1.886  23.168  0.00  0.00    +0.117 C 
ATOM     12  C   UNL     1      -0.695   0.738  25.012  0.00  0.00    +0.034 A 
ATOM     13  C   UNL     1      -1.368  -0.218  25.705  0.00  0.00    +0.002 A 
ATOM     14  C   UNL     1       0.273   1.638  27.094  0.00  0.00    +0.252 A 
ATOM     15  C   UNL     1      -2.443   4.015  24.494  0.00  0.00    +0.247 C 
ATOM     16  C   UNL     1      -1.253  -0.257  27.149  0.00  0.00    +0.015 A 
ATOM     17  C   UNL     1      -0.503   0.611  27.827  0.00  0.00    +0.071 A 
ENDROOT
BRANCH  13  18
ATOM     18  C   UNL     1      -2.230  -1.210  25.026  0.00  0.00    -0.016 A 
ATOM     20  C   UNL     1      -1.695  -2.427  24.618  0.00  0.00    +0.008 A 
ATOM     21  C   UNL     1      -3.573  -0.920  24.802  0.00  0.00    +0.008 A 
ATOM     24  C   UNL     1      -2.508  -3.363  23.978  0.00  0.00    +0.001 A 
ATOM     25  C   UNL     1      -4.386  -1.857  24.163  0.00  0.00    +0.001 A 
ATOM     28  C   UNL     1      -3.854  -3.078  23.750  0.00  0.00    +0.000 A 
ENDBRANCH  13  18
BRANCH  15  19
ATOM     19  C   UNL     1      -3.695   3.436  24.997  0.00  0.00    +0.037 A 
ATOM     22  C   UNL     1      -4.169   3.800  26.254  0.00  0.00    +0.016 A 
ATOM     23  C   UNL     1      -4.403   2.529  24.214  0.00  0.00    +0.016 A 
ATOM     26  C   UNL     1      -5.359   3.252  26.733  0.00  0.00    +0.046 A 
ATOM     27  C   UNL     1      -5.593   1.980  24.692  0.00  0.00    +0.046 A 
ATOM     29  C   UNL     1      -6.071   2.341  25.952  0.00  0.00    +0.120 A 
BRANCH  29   3
ATOM      3  O   UNL     1      -7.233   1.807  26.417  0.00  0.00    -0.495 OA
ATOM     30  C   UNL     1      -7.176   1.117  27.665  0.00  0.00    +0.277 C 
ENDBRANCH  29   3
ENDBRANCH  15  19
TORSDOF 3
ENDMDL
MODEL 5
REMARK VINA RESULT:       9.5      2.207      5.630
REMARK  Name = 7155412
REMARK  4 active torsions:
REMARK  status: ('A' for Active; 'I' for Inactive)
REMARK    1  A    between atoms: O_3  and  C_29
REMARK    2  A    between atoms: O_3  and  C_30
REMARK    3  A    between atoms: C_13  and  C_18
REMARK    4  A    between atoms: C_15  and  C_19
REMARK                            x       y       z     vdW  Elec       q    Type
REMARK                         _______ _______ _______ _____ _____    ______ ____
ROOT
ATOM      1  O   UNL     1       0.634  -0.277  21.686  0.00  0.00    -0.268 OA
ATOM      2  O   UNL     1      -4.218  -1.048  22.953  0.00  0.00    -0.270 OA
ATOM      4  N   UNL     1      -2.987  -1.211  24.935  0.00  0.00    -0.297 N 
ATOM      5  N   UNL     1      -0.088  -0.505  23.903  0.00  0.00    -0.311 N 
ATOM      6  C   UNL     1      -1.024  -2.723  24.787  0.00  0.00    +0.027 C 
ATOM      7  C   UNL     1      -0.932  -0.752  26.257  0.00  0.00    +0.054 C 
ATOM      8  C   UNL     1      -0.535  -2.223  26.138  0.00  0.00    +0.018 C 
ATOM      9  C   UNL     1      -2.553  -2.582  24.679  0.00  0.00    +0.113 C 
ATOM     10  C   UNL     1      -0.299  -1.944  23.689  0.00  0.00    +0.130 C 
ATOM     11  C   UNL     1      -2.470  -0.625  26.180  0.00  0.00    +0.117 C 
ATOM     12  C   UNL     1      -0.282   0.097  25.161  0.00  0.00    +0.034 A 
ATOM     13  C   UNL     1       0.073   1.395  25.355  0.00  0.00    +0.002 A 
ATOM     14  C   UNL     1       0.433   0.201  22.803  0.00  0.00    +0.252 A 
ATOM     15  C   UNL     1      -3.785  -0.555  23.994  0.00  0.00    +0.247 C 
ATOM     16  C   UNL     1       0.610   2.155  24.243  0.00  0.00    +0.015 A 
ATOM     17  C   UNL     1       0.774   1.623  23.031  0.00  0.00    +0.071 A 
ENDROOT
BRANCH  13  18
ATOM     18  C   UNL     1      -0.089   2.060  26.666  0.00  0.00    -0.016 A 
ATOM     20  C   UNL     1       0.928   1.983  27.611  0.00  0.00    +0.008 A 
ATOM     21  C   UNL     1      -1.260   2.759  26.945  0.00  0.00    +0.008 A 
ATOM     24  C   UNL     1       0.775   2.611  28.848  0.00  0.00    +0.001 A 
ATOM     25  C   UNL     1      -1.413   3.387  28.182  0.00  0.00    +0.001 A 
ATOM     28  C   UNL     1      -0.396   3.312  29.134  0.00  0.00    +0.000 A 
ENDBRANCH  13  18
BRANCH  15  19
ATOM     19  C   UNL     1      -4.138   0.849  24.240  0.00  0.00    +0.037 A 
ATOM     22  C   UNL     1      -5.251   1.157  25.018  0.00  0.00    +0.016 A 
ATOM     23  C   UNL     1      -3.356   1.865  23.696  0.00  0.00    +0.016 A 
ATOM     26  C   UNL     1      -5.586   2.490  25.252  0.00  0.00    +0.046 A 
ATOM     27  C   UNL     1      -3.692   3.198  23.931  0.00  0.00    +0.046 A 
ATOM     29  C   UNL     1      -4.807   3.511  24.709  0.00  0.00    +0.120 A 
BRANCH  29   3
ATOM      3  O   UNL     1      -5.131   4.813  24.939  0.00  0.00    -0.495 OA
ATOM     30  C   UNL     1      -6.270   5.061  25.763  0.00  0.00    +0.277 C 
ENDBRANCH  29   3
ENDBRANCH  15  19
TORSDOF 3
ENDMDL
