MODEL 1
REMARK VINA RESULT:       1.5      0.000      0.000
REMARK  Name = 38028009
REMARK  11 active torsions:
REMARK  status: ('A' for Active; 'I' for Inactive)
REMARK    1  A    between atoms: N_4  and  C_15
REMARK    2  A    between atoms: N_5  and  C_25
REMARK    3  A    between atoms: C_7  and  C_11
REMARK    4  A    between atoms: C_8  and  C_15
REMARK    5  A    between atoms: C_10  and  C_14
REMARK    6  A    between atoms: C_11  and  C_16
REMARK    7  A    between atoms: C_11  and  C_17
REMARK    8  A    between atoms: C_12  and  C_18
REMARK    9  A    between atoms: C_14  and  C_19
REMARK   10  A    between atoms: C_24  and  C_26
REMARK   11  A    between atoms: C_31  and  C_32
REMARK                            x       y       z     vdW  Elec       q    Type
REMARK                         _______ _______ _______ _____ _____    ______ ____
ROOT
ATOM      7  C   UNL     1      -1.579   0.278  24.982  0.00  0.00    +0.000 C 
ATOM      8  C   UNL     1      -1.018  -1.044  24.401  0.00  0.00    +0.032 C 
ATOM      9  C   UNL     1      -2.675  -0.015  26.019  0.00  0.00    +0.012 C 
ATOM     10  C   UNL     1      -3.844  -0.818  25.420  0.00  0.00    +0.023 C 
ATOM     12  C   UNL     1      -3.356  -1.997  24.601  0.00  0.00    -0.073 C 
ATOM     13  C   UNL     1      -2.087  -2.087  24.166  0.00  0.00    -0.022 C 
ATOM     18  C   UNL     1      -4.349  -3.092  24.332  0.00  0.00    +0.039 C 
ENDROOT
BRANCH   7  11
ATOM     11  C   UNL     1      -0.478   1.131  25.619  0.00  0.00    -0.013 C 
ATOM     16  C   UNL     1       0.221   1.976  24.558  0.00  0.00    +0.007 C 
ATOM     17  C   UNL     1      -1.057   2.016  26.718  0.00  0.00    +0.007 C 
ENDBRANCH   7  11
BRANCH  10  14
ATOM     14  C   UNL     1      -4.766   0.081  24.590  0.00  0.00    +0.103 C 
BRANCH  14  19
ATOM      1  O   UNL     1      -5.906   1.245  26.313  0.00  0.00    -0.276 OA
ATOM      3  N   UNL     1      -4.488   2.505  24.972  0.00  0.00    -0.299 N 
ATOM      5  N   UNL     1      -2.716   4.744  24.732  0.00  0.00    -0.302 NA
ATOM     19  C   UNL     1      -5.111   1.324  25.372  0.00  0.00    +0.216 C 
ATOM     20  C   UNL     1      -4.766   3.752  25.683  0.00  0.00    +0.123 C 
ATOM     21  C   UNL     1      -3.645   2.658  23.782  0.00  0.00    +0.123 C 
ATOM     22  C   UNL     1      -3.479   4.526  25.969  0.00  0.00    +0.103 C 
ATOM     23  C   UNL     1      -2.381   3.459  24.102  0.00  0.00    +0.103 C 
ATOM     25  C   UNL     1      -1.503   5.513  25.006  0.00  0.00    +0.105 C 
ENDBRANCH  14  19
ENDBRANCH  10  14
BRANCH   8  15
ATOM     15  C   UNL     1      -0.252  -0.794  23.098  0.00  0.00    +0.112 C 
BRANCH  15   4
ATOM      2  O   UNL     1       1.788  -0.190  21.170  0.00  0.00    -0.270 OA
ATOM      4  N   UNL     1       1.148  -0.659  23.351  0.00  0.00    -0.311 N 
ATOM     24  C   UNL     1       2.074  -0.363  22.351  0.00  0.00    +0.244 C 
ATOM     33  H   UNL     1       1.450  -0.696  24.319  0.00  0.00    +0.149 HD
BRANCH  24  26
ATOM     26  C   UNL     1       3.497  -0.283  22.771  0.00  0.00    +0.037 A 
ATOM     27  C   UNL     1       4.082  -1.345  23.460  0.00  0.00    +0.014 A 
ATOM     28  C   UNL     1       4.249   0.854  22.475  0.00  0.00    +0.014 A 
ATOM     29  C   UNL     1       5.418  -1.271  23.854  0.00  0.00    +0.019 A 
ATOM     30  C   UNL     1       5.586   0.929  22.868  0.00  0.00    +0.019 A 
ATOM     31  C   UNL     1       6.170  -0.134  23.557  0.00  0.00    +0.052 A 
BRANCH  31  32
ATOM      6  N   UNL     1       8.651   0.005  24.287  0.00  0.00    -0.191 NA
ATOM     32  C   UNL     1       7.539  -0.057  23.960  0.00  0.00    +0.099 C 
ENDBRANCH  31  32
ENDBRANCH  24  26
ENDBRANCH  15   4
ENDBRANCH   8  15
TORSDOF 7
ENDMDL
MODEL 2
REMARK VINA RESULT:       2.9      2.922      5.889
REMARK  Name = 38028009
REMARK  11 active torsions:
REMARK  status: ('A' for Active; 'I' for Inactive)
REMARK    1  A    between atoms: N_4  and  C_15
REMARK    2  A    between atoms: N_5  and  C_25
REMARK    3  A    between atoms: C_7  and  C_11
REMARK    4  A    between atoms: C_8  and  C_15
REMARK    5  A    between atoms: C_10  and  C_14
REMARK    6  A    between atoms: C_11  and  C_16
REMARK    7  A    between atoms: C_11  and  C_17
REMARK    8  A    between atoms: C_12  and  C_18
REMARK    9  A    between atoms: C_14  and  C_19
REMARK   10  A    between atoms: C_24  and  C_26
REMARK   11  A    between atoms: C_31  and  C_32
REMARK                            x       y       z     vdW  Elec       q    Type
REMARK                         _______ _______ _______ _____ _____    ______ ____
ROOT
ATOM      7  C   UNL     1      -3.435   2.152  23.728  0.00  0.00    +0.000 C 
ATOM      8  C   UNL     1      -4.279   3.378  24.157  0.00  0.00    +0.032 C 
ATOM      9  C   UNL     1      -4.315   0.894  23.658  0.00  0.00    +0.012 C 
ATOM     10  C   UNL     1      -4.985   0.576  25.007  0.00  0.00    +0.023 C 
ATOM     12  C   UNL     1      -5.615   1.807  25.627  0.00  0.00    -0.073 C 
ATOM     13  C   UNL     1      -5.297   3.051  25.225  0.00  0.00    -0.022 C 
ATOM     18  C   UNL     1      -6.653   1.576  26.689  0.00  0.00    +0.039 C 
ENDROOT
BRANCH   7  11
ATOM     11  C   UNL     1      -2.747   2.380  22.378  0.00  0.00    -0.013 C 
ATOM     16  C   UNL     1      -2.330   1.047  21.762  0.00  0.00    +0.007 C 
ATOM     17  C   UNL     1      -3.667   3.146  21.434  0.00  0.00    +0.007 C 
ENDBRANCH   7  11
BRANCH  10  14
ATOM     14  C   UNL     1      -3.996  -0.080  25.976  0.00  0.00    +0.103 C 
BRANCH  14  19
ATOM      1  O   UNL     1      -3.973  -2.248  25.018  0.00  0.00    -0.276 OA
ATOM      3  N   UNL     1      -1.952  -1.101  25.037  0.00  0.00    -0.299 N 
ATOM      5  N   UNL     1       0.574  -0.600  23.782  0.00  0.00    -0.302 NA
ATOM     19  C   UNL     1      -3.314  -1.245  25.302  0.00  0.00    +0.216 C 
ATOM     20  C   UNL     1      -1.221  -2.184  24.381  0.00  0.00    +0.123 C 
ATOM     21  C   UNL     1      -1.116   0.018  25.479  0.00  0.00    +0.123 C 
ATOM     22  C   UNL     1      -0.318  -1.650  23.270  0.00  0.00    +0.103 C 
ATOM     23  C   UNL     1      -0.209   0.508  24.348  0.00  0.00    +0.103 C 
ATOM     25  C   UNL     1       1.458  -0.115  22.724  0.00  0.00    +0.105 C 
ENDBRANCH  14  19
ENDBRANCH  10  14
BRANCH   8  15
ATOM     15  C   UNL     1      -3.383   4.525  24.638  0.00  0.00    +0.112 C 
BRANCH  15   4
ATOM      2  O   UNL     1      -0.597   3.889  24.358  0.00  0.00    -0.270 OA
ATOM      4  N   UNL     1      -2.501   4.080  25.672  0.00  0.00    -0.311 N 
ATOM     24  C   UNL     1      -1.155   3.792  25.447  0.00  0.00    +0.244 C 
ATOM     33  H   UNL     1      -2.867   4.065  26.618  0.00  0.00    +0.149 HD
BRANCH  24  26
ATOM     26  C   UNL     1      -0.378   3.314  26.621  0.00  0.00    +0.037 A 
ATOM     27  C   UNL     1       0.996   3.101  26.507  0.00  0.00    +0.014 A 
ATOM     28  C   UNL     1      -1.022   3.082  27.836  0.00  0.00    +0.014 A 
ATOM     29  C   UNL     1       1.725   2.654  27.609  0.00  0.00    +0.019 A 
ATOM     30  C   UNL     1      -0.292   2.635  28.938  0.00  0.00    +0.019 A 
ATOM     31  C   UNL     1       1.081   2.421  28.825  0.00  0.00    +0.052 A 
BRANCH  31  32
ATOM      6  N   UNL     1       2.434   1.590  30.870  0.00  0.00    -0.191 NA
ATOM     32  C   UNL     1       1.828   1.963  29.953  0.00  0.00    +0.099 C 
ENDBRANCH  31  32
ENDBRANCH  24  26
ENDBRANCH  15   4
ENDBRANCH   8  15
TORSDOF 7
ENDMDL
MODEL 3
REMARK VINA RESULT:       3.2      1.630      3.923
REMARK  Name = 38028009
REMARK  11 active torsions:
REMARK  status: ('A' for Active; 'I' for Inactive)
REMARK    1  A    between atoms: N_4  and  C_15
REMARK    2  A    between atoms: N_5  and  C_25
REMARK    3  A    between atoms: C_7  and  C_11
REMARK    4  A    between atoms: C_8  and  C_15
REMARK    5  A    between atoms: C_10  and  C_14
REMARK    6  A    between atoms: C_11  and  C_16
REMARK    7  A    between atoms: C_11  and  C_17
REMARK    8  A    between atoms: C_12  and  C_18
REMARK    9  A    between atoms: C_14  and  C_19
REMARK   10  A    between atoms: C_24  and  C_26
REMARK   11  A    between atoms: C_31  and  C_32
REMARK                            x       y       z     vdW  Elec       q    Type
REMARK                         _______ _______ _______ _____ _____    ______ ____
ROOT
ATOM      7  C   UNL     1      -2.681   2.394  23.635  0.00  0.00    +0.000 C 
ATOM      8  C   UNL     1      -1.323   2.190  24.350  0.00  0.00    +0.032 C 
ATOM      9  C   UNL     1      -3.323   3.720  24.072  0.00  0.00    +0.012 C 
ATOM     10  C   UNL     1      -3.559   3.779  25.592  0.00  0.00    +0.023 C 
ATOM     12  C   UNL     1      -2.339   3.331  26.370  0.00  0.00    -0.073 C 
ATOM     13  C   UNL     1      -1.343   2.633  25.795  0.00  0.00    -0.022 C 
ATOM     18  C   UNL     1      -2.267   3.742  27.814  0.00  0.00    +0.039 C 
ENDROOT
BRANCH   7  11
ATOM     11  C   UNL     1      -2.529   2.369  22.110  0.00  0.00    -0.013 C 
ATOM     16  C   UNL     1      -2.514   0.930  21.601  0.00  0.00    +0.007 C 
ATOM     17  C   UNL     1      -3.651   3.164  21.450  0.00  0.00    +0.007 C 
ENDBRANCH   7  11
BRANCH  10  14
ATOM     14  C   UNL     1      -4.794   2.964  25.992  0.00  0.00    +0.103 C 
BRANCH  14  19
ATOM      1  O   UNL     1      -5.761   2.420  23.897  0.00  0.00    -0.276 OA
ATOM      3  N   UNL     1      -4.763   0.676  25.063  0.00  0.00    -0.299 N 
ATOM      5  N   UNL     1      -3.355  -1.818  24.978  0.00  0.00    -0.302 NA
ATOM     19  C   UNL     1      -5.155   2.003  24.887  0.00  0.00    +0.216 C 
ATOM     20  C   UNL     1      -5.071  -0.316  24.034  0.00  0.00    +0.123 C 
ATOM     21  C   UNL     1      -4.162   0.124  26.280  0.00  0.00    +0.123 C 
ATOM     22  C   UNL     1      -3.863  -1.206  23.742  0.00  0.00    +0.103 C 
ATOM     23  C   UNL     1      -2.973  -0.780  25.946  0.00  0.00    +0.103 C 
ATOM     25  C   UNL     1      -2.220  -2.693  24.689  0.00  0.00    +0.105 C 
ENDBRANCH  14  19
ENDBRANCH  10  14
BRANCH   8  15
ATOM     15  C   UNL     1      -0.869   0.728  24.270  0.00  0.00    +0.112 C 
BRANCH  15   4
ATOM      2  O   UNL     1       0.596  -0.658  22.227  0.00  0.00    -0.270 OA
ATOM      4  N   UNL     1       0.552   0.644  24.147  0.00  0.00    -0.311 N 
ATOM     24  C   UNL     1       1.184  -0.054  23.119  0.00  0.00    +0.244 C 
ATOM     33  H   UNL     1       1.107   1.195  24.794  0.00  0.00    +0.149 HD
BRANCH  24  26
ATOM     26  C   UNL     1       2.670  -0.069  23.147  0.00  0.00    +0.037 A 
ATOM     27  C   UNL     1       3.347  -1.196  23.614  0.00  0.00    +0.014 A 
ATOM     28  C   UNL     1       3.388   1.041  22.703  0.00  0.00    +0.014 A 
ATOM     29  C   UNL     1       4.742  -1.211  23.639  0.00  0.00    +0.019 A 
ATOM     30  C   UNL     1       4.782   1.026  22.728  0.00  0.00    +0.019 A 
ATOM     31  C   UNL     1       5.460  -0.100  23.195  0.00  0.00    +0.052 A 
BRANCH  31  32
ATOM      6  N   UNL     1       8.048  -0.127  23.242  0.00  0.00    -0.191 NA
ATOM     32  C   UNL     1       6.888  -0.114  23.221  0.00  0.00    +0.099 C 
ENDBRANCH  31  32
ENDBRANCH  24  26
ENDBRANCH  15   4
ENDBRANCH   8  15
TORSDOF 7
ENDMDL
MODEL 4
REMARK VINA RESULT:       4.6      1.375      2.550
REMARK  Name = 38028009
REMARK  11 active torsions:
REMARK  status: ('A' for Active; 'I' for Inactive)
REMARK    1  A    between atoms: N_4  and  C_15
REMARK    2  A    between atoms: N_5  and  C_25
REMARK    3  A    between atoms: C_7  and  C_11
REMARK    4  A    between atoms: C_8  and  C_15
REMARK    5  A    between atoms: C_10  and  C_14
REMARK    6  A    between atoms: C_11  and  C_16
REMARK    7  A    between atoms: C_11  and  C_17
REMARK    8  A    between atoms: C_12  and  C_18
REMARK    9  A    between atoms: C_14  and  C_19
REMARK   10  A    between atoms: C_24  and  C_26
REMARK   11  A    between atoms: C_31  and  C_32
REMARK                            x       y       z     vdW  Elec       q    Type
REMARK                         _______ _______ _______ _____ _____    ______ ____
ROOT
ATOM      7  C   UNL     1      -2.736  -0.288  24.752  0.00  0.00    +0.000 C 
ATOM      8  C   UNL     1      -1.514   0.403  24.096  0.00  0.00    +0.032 C 
ATOM      9  C   UNL     1      -3.833  -0.542  23.708  0.00  0.00    +0.012 C 
ATOM     10  C   UNL     1      -4.311   0.759  23.038  0.00  0.00    +0.023 C 
ATOM     12  C   UNL     1      -3.149   1.628  22.600  0.00  0.00    -0.073 C 
ATOM     13  C   UNL     1      -1.904   1.445  23.074  0.00  0.00    -0.022 C 
ATOM     18  C   UNL     1      -3.442   2.683  21.570  0.00  0.00    +0.039 C 
ENDROOT
BRANCH   7  11
ATOM     11  C   UNL     1      -2.347  -1.608  25.427  0.00  0.00    -0.013 C 
ATOM     16  C   UNL     1      -3.527  -2.576  25.422  0.00  0.00    +0.007 C 
ATOM     17  C   UNL     1      -1.139  -2.226  24.731  0.00  0.00    +0.007 C 
ENDBRANCH   7  11
BRANCH  10  14
ATOM     14  C   UNL     1      -5.261   1.538  23.955  0.00  0.00    +0.103 C 
BRANCH  14  19
ATOM      1  O   UNL     1      -4.600   1.059  26.181  0.00  0.00    -0.276 OA
ATOM      3  N   UNL     1      -3.910   3.099  25.310  0.00  0.00    -0.299 N 
ATOM      5  N   UNL     1      -1.942   5.181  25.250  0.00  0.00    -0.302 NA
ATOM     19  C   UNL     1      -4.565   1.869  25.251  0.00  0.00    +0.216 C 
ATOM     20  C   UNL     1      -3.208   3.492  26.530  0.00  0.00    +0.123 C 
ATOM     21  C   UNL     1      -3.962   4.137  24.276  0.00  0.00    +0.123 C 
ATOM     22  C   UNL     1      -1.831   4.077  26.214  0.00  0.00    +0.103 C 
ATOM     23  C   UNL     1      -2.571   4.715  24.005  0.00  0.00    +0.103 C 
ATOM     25  C   UNL     1      -0.627   5.757  24.976  0.00  0.00    +0.105 C 
ENDBRANCH  14  19
ENDBRANCH  10  14
BRANCH   8  15
ATOM     15  C   UNL     1      -0.605   1.038  25.153  0.00  0.00    +0.112 C 
BRANCH  15   4
ATOM      2  O   UNL     1       0.430  -0.134  22.745  0.00  0.00    -0.270 OA
ATOM      4  N   UNL     1       0.772   0.834  24.826  0.00  0.00    -0.311 N 
ATOM     24  C   UNL     1       1.189   0.254  23.628  0.00  0.00    +0.244 C 
ATOM     33  H   UNL     1       1.461   1.214  25.467  0.00  0.00    +0.149 HD
BRANCH  24  26
ATOM     26  C   UNL     1       2.655   0.086  23.452  0.00  0.00    +0.037 A 
ATOM     27  C   UNL     1       3.272  -1.104  23.837  0.00  0.00    +0.014 A 
ATOM     28  C   UNL     1       3.413   1.118  22.897  0.00  0.00    +0.014 A 
ATOM     29  C   UNL     1       4.648  -1.262  23.669  0.00  0.00    +0.019 A 
ATOM     30  C   UNL     1       4.789   0.960  22.730  0.00  0.00    +0.019 A 
ATOM     31  C   UNL     1       5.407  -0.230  23.115  0.00  0.00    +0.052 A 
BRANCH  31  32
ATOM      6  N   UNL     1       7.960  -0.522  22.804  0.00  0.00    -0.191 NA
ATOM     32  C   UNL     1       6.816  -0.392  22.944  0.00  0.00    +0.099 C 
ENDBRANCH  31  32
ENDBRANCH  24  26
ENDBRANCH  15   4
ENDBRANCH   8  15
TORSDOF 7
ENDMDL
MODEL 5
REMARK VINA RESULT:       5.2      2.306      5.122
REMARK  Name = 38028009
REMARK  11 active torsions:
REMARK  status: ('A' for Active; 'I' for Inactive)
REMARK    1  A    between atoms: N_4  and  C_15
REMARK    2  A    between atoms: N_5  and  C_25
REMARK    3  A    between atoms: C_7  and  C_11
REMARK    4  A    between atoms: C_8  and  C_15
REMARK    5  A    between atoms: C_10  and  C_14
REMARK    6  A    between atoms: C_11  and  C_16
REMARK    7  A    between atoms: C_11  and  C_17
REMARK    8  A    between atoms: C_12  and  C_18
REMARK    9  A    between atoms: C_14  and  C_19
REMARK   10  A    between atoms: C_24  and  C_26
REMARK   11  A    between atoms: C_31  and  C_32
REMARK                            x       y       z     vdW  Elec       q    Type
REMARK                         _______ _______ _______ _____ _____    ______ ____
ROOT
ATOM      7  C   UNL     1      -3.560   2.522  23.766  0.00  0.00    +0.000 C 
ATOM      8  C   UNL     1      -3.796   3.882  24.468  0.00  0.00    +0.032 C 
ATOM      9  C   UNL     1      -4.886   1.760  23.615  0.00  0.00    +0.012 C 
ATOM     10  C   UNL     1      -5.566   1.498  24.971  0.00  0.00    +0.023 C 
ATOM     12  C   UNL     1      -5.596   2.742  25.836  0.00  0.00    -0.073 C 
ATOM     13  C   UNL     1      -4.808   3.803  25.588  0.00  0.00    -0.022 C 
ATOM     18  C   UNL     1      -6.587   2.757  26.966  0.00  0.00    +0.039 C 
ENDROOT
BRANCH   7  11
ATOM     11  C   UNL     1      -2.903   2.696  22.394  0.00  0.00    -0.013 C 
ATOM     16  C   UNL     1      -2.496   1.341  21.822  0.00  0.00    +0.007 C 
ATOM     17  C   UNL     1      -3.845   3.424  21.440  0.00  0.00    +0.007 C 
ENDBRANCH   7  11
BRANCH  10  14
ATOM     14  C   UNL     1      -4.896   0.333  25.710  0.00  0.00    +0.103 C 
BRANCH  14  19
ATOM      1  O   UNL     1      -5.072  -0.831  23.652  0.00  0.00    -0.276 OA
ATOM      3  N   UNL     1      -3.381  -1.517  25.091  0.00  0.00    -0.299 N 
ATOM      5  N   UNL     1      -0.761  -2.629  25.412  0.00  0.00    -0.302 NA
ATOM     19  C   UNL     1      -4.466  -0.721  24.721  0.00  0.00    +0.216 C 
ATOM     20  C   UNL     1      -2.900  -2.558  24.185  0.00  0.00    +0.123 C 
ATOM     21  C   UNL     1      -2.726  -1.500  26.402  0.00  0.00    +0.123 C 
ATOM     22  C   UNL     1      -1.375  -2.542  24.080  0.00  0.00    +0.103 C 
ATOM     23  C   UNL     1      -1.203  -1.509  26.256  0.00  0.00    +0.103 C 
ATOM     25  C   UNL     1       0.697  -2.646  25.305  0.00  0.00    +0.105 C 
ENDBRANCH  14  19
ENDBRANCH  10  14
BRANCH   8  15
ATOM     15  C   UNL     1      -2.484   4.463  25.005  0.00  0.00    +0.112 C 
BRANCH  15   4
ATOM      2  O   UNL     1      -1.583   1.846  25.771  0.00  0.00    -0.270 OA
ATOM      4  N   UNL     1      -1.361   3.757  24.472  0.00  0.00    -0.311 N 
ATOM     24  C   UNL     1      -0.992   2.483  24.904  0.00  0.00    +0.244 C 
ATOM     33  H   UNL     1      -0.878   4.179  23.686  0.00  0.00    +0.149 HD
BRANCH  24  26
ATOM     26  C   UNL     1       0.216   1.895  24.269  0.00  0.00    +0.037 A 
ATOM     27  C   UNL     1       0.217   0.556  23.876  0.00  0.00    +0.014 A 
ATOM     28  C   UNL     1       1.349   2.682  24.063  0.00  0.00    +0.014 A 
ATOM     29  C   UNL     1       1.351   0.005  23.279  0.00  0.00    +0.019 A 
ATOM     30  C   UNL     1       2.483   2.131  23.466  0.00  0.00    +0.019 A 
ATOM     31  C   UNL     1       2.484   0.793  23.073  0.00  0.00    +0.052 A 
BRANCH  31  32
ATOM      6  N   UNL     1       4.589  -0.230  21.967  0.00  0.00    -0.191 NA
ATOM     32  C   UNL     1       3.645   0.229  22.462  0.00  0.00    +0.099 C 
ENDBRANCH  31  32
ENDBRANCH  24  26
ENDBRANCH  15   4
ENDBRANCH   8  15
TORSDOF 7
ENDMDL
