MODEL 1
REMARK VINA RESULT:      -4.9      0.000      0.000
REMARK  Name = 11883300
REMARK  4 active torsions:
REMARK  status: ('A' for Active; 'I' for Inactive)
REMARK    1  A    between atoms: O_3  and  C_9
REMARK    2  A    between atoms: O_3  and  C_17
REMARK    3  A    between atoms: N_5  and  C_8
REMARK    4  A    between atoms: C_11  and  C_16
REMARK                            x       y       z     vdW  Elec       q    Type
REMARK                         _______ _______ _______ _____ _____    ______ ____
ROOT
ATOM      1  O   UNL     1      -0.616   1.582  25.717  0.00  0.00    -0.369 OA
ATOM      2  O   UNL     1      -2.207   1.628  23.096  0.00  0.00    -0.369 OA
ATOM      6  C   UNL     1      -0.791   1.728  23.357  0.00  0.00    +0.172 C 
ATOM      7  C   UNL     1      -0.636   2.527  24.634  0.00  0.00    +0.180 C 
ATOM      8  C   UNL     1      -0.231   0.370  23.709  0.00  0.00    +0.130 C 
ATOM      9  C   UNL     1      -1.890   3.368  24.649  0.00  0.00    +0.175 C 
ATOM     10  C   UNL     1      -0.579   0.249  25.182  0.00  0.00    +0.185 C 
ATOM     12  C   UNL     1      -2.913   2.424  24.059  0.00  0.00    +0.194 C 
ENDROOT
BRANCH   8   5
ATOM      4  O   UNL     1       1.176  -0.540  21.338  0.00  0.00    -0.276 OA
ATOM      5  N   UNL     1       1.195   0.322  23.501  0.00  0.00    -0.307 N 
ATOM     16  C   UNL     1       1.778  -0.131  22.328  0.00  0.00    +0.216 C 
ATOM     18  H   UNL     1       1.797   0.680  24.237  0.00  0.00    +0.149 HD
BRANCH  16  11
ATOM     11  C   UNL     1       3.262  -0.056  22.361  0.00  0.00    +0.075 C 
ATOM     13  C   UNL     1       3.970  -0.798  23.513  0.00  0.00    +0.013 C 
ATOM     14  C   UNL     1       3.880   1.243  22.919  0.00  0.00    +0.013 C 
ATOM     15  C   UNL     1       4.989   0.361  23.532  0.00  0.00    +0.001 C 
ENDBRANCH  16  11
ENDBRANCH   8   5
BRANCH   9   3
ATOM      3  O   UNL     1      -2.257   3.811  25.936  0.00  0.00    -0.375 OA
ATOM     17  C   UNL     1      -3.672   3.863  26.097  0.00  0.00    +0.194 C 
ENDBRANCH   9   3
TORSDOF 3
ENDMDL
MODEL 2
REMARK VINA RESULT:      -4.3      3.488      4.639
REMARK  Name = 11883300
REMARK  4 active torsions:
REMARK  status: ('A' for Active; 'I' for Inactive)
REMARK    1  A    between atoms: O_3  and  C_9
REMARK    2  A    between atoms: O_3  and  C_17
REMARK    3  A    between atoms: N_5  and  C_8
REMARK    4  A    between atoms: C_11  and  C_16
REMARK                            x       y       z     vdW  Elec       q    Type
REMARK                         _______ _______ _______ _____ _____    ______ ____
ROOT
ATOM      1  O   UNL     1      -3.504   2.572  23.665  0.00  0.00    -0.369 OA
ATOM      2  O   UNL     1      -1.064   3.419  25.318  0.00  0.00    -0.369 OA
ATOM      6  C   UNL     1      -1.817   2.189  25.286  0.00  0.00    +0.172 C 
ATOM      7  C   UNL     1      -3.269   2.568  25.083  0.00  0.00    +0.180 C 
ATOM      8  C   UNL     1      -1.470   1.401  24.045  0.00  0.00    +0.130 C 
ATOM      9  C   UNL     1      -3.328   3.960  25.664  0.00  0.00    +0.175 C 
ATOM     10  C   UNL     1      -2.343   2.059  22.991  0.00  0.00    +0.185 C 
ATOM     12  C   UNL     1      -1.979   4.524  25.279  0.00  0.00    +0.194 C 
ENDROOT
BRANCH   8   5
ATOM      4  O   UNL     1      -0.859  -0.312  26.308  0.00  0.00    -0.276 OA
ATOM      5  N   UNL     1      -1.800   0.005  24.202  0.00  0.00    -0.307 N 
ATOM     16  C   UNL     1      -1.464  -0.734  25.326  0.00  0.00    +0.216 C 
ATOM     18  H   UNL     1      -2.344  -0.441  23.470  0.00  0.00    +0.149 HD
BRANCH  16  11
ATOM     11  C   UNL     1      -1.939  -2.140  25.248  0.00  0.00    +0.075 C 
ATOM     13  C   UNL     1      -2.072  -2.752  23.838  0.00  0.00    +0.013 C 
ATOM     14  C   UNL     1      -3.457  -2.371  25.408  0.00  0.00    +0.013 C 
ATOM     15  C   UNL     1      -3.317  -3.498  24.363  0.00  0.00    +0.001 C 
ENDBRANCH  16  11
ENDBRANCH   8   5
BRANCH   9   3
ATOM      3  O   UNL     1      -4.391   4.737  25.161  0.00  0.00    -0.375 OA
ATOM     17  C   UNL     1      -5.661   4.194  25.513  0.00  0.00    +0.194 C 
ENDBRANCH   9   3
TORSDOF 3
ENDMDL
MODEL 3
REMARK VINA RESULT:      -4.0      3.253      5.042
REMARK  Name = 11883300
REMARK  4 active torsions:
REMARK  status: ('A' for Active; 'I' for Inactive)
REMARK    1  A    between atoms: O_3  and  C_9
REMARK    2  A    between atoms: O_3  and  C_17
REMARK    3  A    between atoms: N_5  and  C_8
REMARK    4  A    between atoms: C_11  and  C_16
REMARK                            x       y       z     vdW  Elec       q    Type
REMARK                         _______ _______ _______ _____ _____    ______ ____
ROOT
ATOM      1  O   UNL     1      -2.106   2.746  23.767  0.00  0.00    -0.369 OA
ATOM      2  O   UNL     1       0.205   2.170  25.699  0.00  0.00    -0.369 OA
ATOM      6  C   UNL     1      -1.058   1.502  25.493  0.00  0.00    +0.172 C 
ATOM      7  C   UNL     1      -2.080   2.580  25.195  0.00  0.00    +0.180 C 
ATOM      8  C   UNL     1      -1.011   0.686  24.223  0.00  0.00    +0.130 C 
ATOM      9  C   UNL     1      -1.495   3.787  25.888  0.00  0.00    +0.175 C 
ATOM     10  C   UNL     1      -1.294   1.730  23.157  0.00  0.00    +0.185 C 
ATOM     12  C   UNL     1      -0.011   3.589  25.675  0.00  0.00    +0.194 C 
ENDROOT
BRANCH   8   5
ATOM      4  O   UNL     1      -1.837  -0.965  26.464  0.00  0.00    -0.276 OA
ATOM      5  N   UNL     1      -2.020  -0.346  24.227  0.00  0.00    -0.307 N 
ATOM     16  C   UNL     1      -2.346  -1.085  25.353  0.00  0.00    +0.216 C 
ATOM     18  H   UNL     1      -2.544  -0.504  23.371  0.00  0.00    +0.149 HD
BRANCH  16  11
ATOM     11  C   UNL     1      -3.432  -2.068  25.096  0.00  0.00    +0.075 C 
ATOM     13  C   UNL     1      -3.059  -3.317  24.272  0.00  0.00    +0.013 C 
ATOM     14  C   UNL     1      -4.432  -1.720  23.974  0.00  0.00    +0.013 C 
ATOM     15  C   UNL     1      -4.464  -3.227  23.641  0.00  0.00    +0.001 C 
ENDBRANCH  16  11
ENDBRANCH   8   5
BRANCH   9   3
ATOM      3  O   UNL     1      -1.947   5.013  25.362  0.00  0.00    -0.375 OA
ATOM     17  C   UNL     1      -0.899   5.735  24.720  0.00  0.00    +0.194 C 
ENDBRANCH   9   3
TORSDOF 3
ENDMDL
MODEL 4
REMARK VINA RESULT:      -3.3     15.645     17.300
REMARK  Name = 11883300
REMARK  4 active torsions:
REMARK  status: ('A' for Active; 'I' for Inactive)
REMARK    1  A    between atoms: O_3  and  C_9
REMARK    2  A    between atoms: O_3  and  C_17
REMARK    3  A    between atoms: N_5  and  C_8
REMARK    4  A    between atoms: C_11  and  C_16
REMARK                            x       y       z     vdW  Elec       q    Type
REMARK                         _______ _______ _______ _____ _____    ______ ____
ROOT
ATOM      1  O   UNL     1      -5.829  -8.203  11.435  0.00  0.00    -0.369 OA
ATOM      2  O   UNL     1      -7.097 -10.780  10.361  0.00  0.00    -0.369 OA
ATOM      6  C   UNL     1      -5.776 -10.506  10.873  0.00  0.00    +0.172 C 
ATOM      7  C   UNL     1      -5.405  -9.113  10.407  0.00  0.00    +0.180 C 
ATOM      8  C   UNL     1      -5.819 -10.384  12.378  0.00  0.00    +0.130 C 
ATOM      9  C   UNL     1      -6.227  -8.959   9.149  0.00  0.00    +0.175 C 
ATOM     10  C   UNL     1      -6.282  -8.952  12.574  0.00  0.00    +0.185 C 
ATOM     12  C   UNL     1      -7.497  -9.698   9.506  0.00  0.00    +0.194 C 
ENDROOT
BRANCH   8   5
ATOM      4  O   UNL     1      -5.083 -10.213  15.182  0.00  0.00    -0.276 OA
ATOM      5  N   UNL     1      -4.514 -10.597  12.957  0.00  0.00    -0.307 N 
ATOM     16  C   UNL     1      -4.259 -10.492  14.315  0.00  0.00    +0.216 C 
ATOM     18  H   UNL     1      -3.759 -10.880  12.340  0.00  0.00    +0.149 HD
BRANCH  16  11
ATOM     11  C   UNL     1      -2.840 -10.781  14.654  0.00  0.00    +0.075 C 
ATOM     13  C   UNL     1      -2.308 -10.196  15.978  0.00  0.00    +0.013 C 
ATOM     14  C   UNL     1      -1.769  -9.934  13.937  0.00  0.00    +0.013 C 
ATOM     15  C   UNL     1      -0.964  -9.978  15.253  0.00  0.00    +0.001 C 
ENDBRANCH  16  11
ENDBRANCH   8   5
BRANCH   9   3
ATOM      3  O   UNL     1      -6.476  -7.617   8.799  0.00  0.00    -0.375 OA
ATOM     17  C   UNL     1      -7.813  -7.424   8.347  0.00  0.00    +0.194 C 
ENDBRANCH   9   3
TORSDOF 3
ENDMDL
MODEL 5
REMARK VINA RESULT:      -3.3     16.063     16.881
REMARK  Name = 11883300
REMARK  4 active torsions:
REMARK  status: ('A' for Active; 'I' for Inactive)
REMARK    1  A    between atoms: O_3  and  C_9
REMARK    2  A    between atoms: O_3  and  C_17
REMARK    3  A    between atoms: N_5  and  C_8
REMARK    4  A    between atoms: C_11  and  C_16
REMARK                            x       y       z     vdW  Elec       q    Type
REMARK                         _______ _______ _______ _____ _____    ______ ____
ROOT
ATOM      1  O   UNL     1      -7.847  -9.573  16.473  0.00  0.00    -0.369 OA
ATOM      2  O   UNL     1     -10.251 -10.484  14.801  0.00  0.00    -0.369 OA
ATOM      6  C   UNL     1      -9.142  -9.616  14.487  0.00  0.00    +0.172 C 
ATOM      7  C   UNL     1      -8.834  -8.826  15.742  0.00  0.00    +0.180 C 
ATOM      8  C   UNL     1      -7.893 -10.433  14.257  0.00  0.00    +0.130 C 
ATOM      9  C   UNL     1     -10.165  -8.811  16.455  0.00  0.00    +0.175 C 
ATOM     10  C   UNL     1      -7.405 -10.681  15.673  0.00  0.00    +0.185 C 
ATOM     12  C   UNL     1     -10.719 -10.178  16.123  0.00  0.00    +0.194 C 
ENDROOT
BRANCH   8   5
ATOM      4  O   UNL     1      -7.610 -10.364  11.368  0.00  0.00    -0.276 OA
ATOM      5  N   UNL     1      -6.919  -9.696  13.489  0.00  0.00    -0.307 N 
ATOM     16  C   UNL     1      -6.863  -9.726  12.104  0.00  0.00    +0.216 C 
ATOM     18  H   UNL     1      -6.274  -9.092  13.990  0.00  0.00    +0.149 HD
BRANCH  16  11
ATOM     11  C   UNL     1      -5.783  -8.862  11.558  0.00  0.00    +0.075 C 
ATOM     13  C   UNL     1      -5.837  -8.554  10.047  0.00  0.00    +0.013 C 
ATOM     14  C   UNL     1      -4.421  -9.537  11.294  0.00  0.00    +0.013 C 
ATOM     15  C   UNL     1      -4.295  -8.624  10.056  0.00  0.00    +0.001 C 
ENDBRANCH  16  11
ENDBRANCH   8   5
BRANCH   9   3
ATOM      3  O   UNL     1     -10.059  -8.605  17.844  0.00  0.00    -0.375 OA
ATOM     17  C   UNL     1     -10.652  -9.667  18.587  0.00  0.00    +0.194 C 
ENDBRANCH   9   3
TORSDOF 3
ENDMDL
MODEL 6
REMARK VINA RESULT:      -3.2      2.078      6.511
REMARK  Name = 11883300
REMARK  4 active torsions:
REMARK  status: ('A' for Active; 'I' for Inactive)
REMARK    1  A    between atoms: O_3  and  C_9
REMARK    2  A    between atoms: O_3  and  C_17
REMARK    3  A    between atoms: N_5  and  C_8
REMARK    4  A    between atoms: C_11  and  C_16
REMARK                            x       y       z     vdW  Elec       q    Type
REMARK                         _______ _______ _______ _____ _____    ______ ____
ROOT
ATOM      1  O   UNL     1      -0.410  -0.377  24.561  0.00  0.00    -0.369 OA
ATOM      2  O   UNL     1       0.890   2.391  24.336  0.00  0.00    -0.369 OA
ATOM      6  C   UNL     1      -0.449   1.938  24.047  0.00  0.00    +0.172 C 
ATOM      7  C   UNL     1      -0.324   0.546  23.462  0.00  0.00    +0.180 C 
ATOM      8  C   UNL     1      -1.212   1.724  25.332  0.00  0.00    +0.130 C 
ATOM      9  C   UNL     1       1.059   0.567  22.857  0.00  0.00    +0.175 C 
ATOM     10  C   UNL     1      -0.748   0.342  25.758  0.00  0.00    +0.185 C 
ATOM     12  C   UNL     1       1.825   1.419  23.845  0.00  0.00    +0.194 C 
ENDROOT
BRANCH   8   5
ATOM      4  O   UNL     1      -2.857   4.036  24.715  0.00  0.00    -0.276 OA
ATOM      5  N   UNL     1      -2.637   1.751  25.105  0.00  0.00    -0.307 N 
ATOM     16  C   UNL     1      -3.339   2.911  24.814  0.00  0.00    +0.216 C 
ATOM     18  H   UNL     1      -3.138   0.868  25.116  0.00  0.00    +0.149 HD
BRANCH  16  11
ATOM     11  C   UNL     1      -4.789   2.663  24.602  0.00  0.00    +0.075 C 
ATOM     13  C   UNL     1      -5.733   3.016  25.770  0.00  0.00    +0.013 C 
ATOM     14  C   UNL     1      -5.273   1.205  24.752  0.00  0.00    +0.013 C 
ATOM     15  C   UNL     1      -6.566   1.781  25.370  0.00  0.00    +0.001 C 
ENDBRANCH  16  11
ENDBRANCH   8   5
BRANCH   9   3
ATOM      3  O   UNL     1       1.629  -0.712  22.708  0.00  0.00    -0.375 OA
ATOM     17  C   UNL     1       3.040  -0.695  22.910  0.00  0.00    +0.194 C 
ENDBRANCH   9   3
TORSDOF 3
ENDMDL
MODEL 7
REMARK VINA RESULT:      -3.2      2.370      6.247
REMARK  Name = 11883300
REMARK  4 active torsions:
REMARK  status: ('A' for Active; 'I' for Inactive)
REMARK    1  A    between atoms: O_3  and  C_9
REMARK    2  A    between atoms: O_3  and  C_17
REMARK    3  A    between atoms: N_5  and  C_8
REMARK    4  A    between atoms: C_11  and  C_16
REMARK                            x       y       z     vdW  Elec       q    Type
REMARK                         _______ _______ _______ _____ _____    ______ ____
ROOT
ATOM      1  O   UNL     1      -0.684   0.521  25.930  0.00  0.00    -0.369 OA
ATOM      2  O   UNL     1       0.353   1.147  23.112  0.00  0.00    -0.369 OA
ATOM      6  C   UNL     1      -0.965   1.247  23.690  0.00  0.00    +0.172 C 
ATOM      7  C   UNL     1      -1.121   0.074  24.635  0.00  0.00    +0.180 C 
ATOM      8  C   UNL     1      -1.044   2.455  24.595  0.00  0.00    +0.130 C 
ATOM      9  C   UNL     1      -0.177  -0.948  24.048  0.00  0.00    +0.175 C 
ATOM     10  C   UNL     1      -0.429   1.934  25.882  0.00  0.00    +0.185 C 
ATOM     12  C   UNL     1       0.957  -0.082  23.546  0.00  0.00    +0.194 C 
ENDROOT
BRANCH   8   5
ATOM      4  O   UNL     1      -3.223   2.342  22.678  0.00  0.00    -0.276 OA
ATOM      5  N   UNL     1      -2.411   2.869  24.796  0.00  0.00    -0.307 N 
ATOM     16  C   UNL     1      -3.387   2.776  23.816  0.00  0.00    +0.216 C 
ATOM     18  H   UNL     1      -2.677   3.203  25.718  0.00  0.00    +0.149 HD
BRANCH  16  11
ATOM     11  C   UNL     1      -4.716   3.248  24.285  0.00  0.00    +0.075 C 
ATOM     13  C   UNL     1      -4.776   3.866  25.697  0.00  0.00    +0.013 C 
ATOM     14  C   UNL     1      -5.694   2.170  24.798  0.00  0.00    +0.013 C 
ATOM     15  C   UNL     1      -6.161   3.204  25.845  0.00  0.00    +0.001 C 
ENDBRANCH  16  11
ENDBRANCH   8   5
BRANCH   9   3
ATOM      3  O   UNL     1       0.263  -1.909  24.979  0.00  0.00    -0.375 OA
ATOM     17  C   UNL     1      -0.786  -2.793  25.368  0.00  0.00    +0.194 C 
ENDBRANCH   9   3
TORSDOF 3
ENDMDL
MODEL 8
REMARK VINA RESULT:      -3.1     16.582     18.755
REMARK  Name = 11883300
REMARK  4 active torsions:
REMARK  status: ('A' for Active; 'I' for Inactive)
REMARK    1  A    between atoms: O_3  and  C_9
REMARK    2  A    between atoms: O_3  and  C_17
REMARK    3  A    between atoms: N_5  and  C_8
REMARK    4  A    between atoms: C_11  and  C_16
REMARK                            x       y       z     vdW  Elec       q    Type
REMARK                         _______ _______ _______ _____ _____    ______ ____
ROOT
ATOM      1  O   UNL     1      16.807  -8.626  27.911  0.00  0.00    -0.369 OA
ATOM      2  O   UNL     1      16.372  -6.200  26.086  0.00  0.00    -0.369 OA
ATOM      6  C   UNL     1      15.556  -6.768  27.131  0.00  0.00    +0.172 C 
ATOM      7  C   UNL     1      15.716  -8.272  27.045  0.00  0.00    +0.180 C 
ATOM      8  C   UNL     1      16.130  -6.420  28.484  0.00  0.00    +0.130 C 
ATOM      9  C   UNL     1      16.066  -8.481  25.591  0.00  0.00    +0.175 C 
ATOM     10  C   UNL     1      17.219  -7.466  28.652  0.00  0.00    +0.185 C 
ATOM     12  C   UNL     1      16.913  -7.265  25.289  0.00  0.00    +0.194 C 
ENDROOT
BRANCH   8   5
ATOM      4  O   UNL     1      15.506  -4.476  30.549  0.00  0.00    -0.276 OA
ATOM      5  N   UNL     1      15.133  -6.532  29.520  0.00  0.00    -0.307 N 
ATOM     16  C   UNL     1      14.906  -5.545  30.467  0.00  0.00    +0.216 C 
ATOM     18  H   UNL     1      14.540  -7.356  29.525  0.00  0.00    +0.149 HD
BRANCH  16  11
ATOM     11  C   UNL     1      13.809  -5.895  31.407  0.00  0.00    +0.075 C 
ATOM     13  C   UNL     1      12.445  -6.252  30.782  0.00  0.00    +0.013 C 
ATOM     14  C   UNL     1      13.095  -4.722  32.110  0.00  0.00    +0.013 C 
ATOM     15  C   UNL     1      11.793  -5.543  31.987  0.00  0.00    +0.001 C 
ENDBRANCH  16  11
ENDBRANCH   8   5
BRANCH   9   3
ATOM      3  O   UNL     1      16.758  -9.683  25.345  0.00  0.00    -0.375 OA
ATOM     17  C   UNL     1      15.869 -10.781  25.156  0.00  0.00    +0.194 C 
ENDBRANCH   9   3
TORSDOF 3
ENDMDL
MODEL 9
REMARK VINA RESULT:      -3.0     15.963     17.950
REMARK  Name = 11883300
REMARK  4 active torsions:
REMARK  status: ('A' for Active; 'I' for Inactive)
REMARK    1  A    between atoms: O_3  and  C_9
REMARK    2  A    between atoms: O_3  and  C_17
REMARK    3  A    between atoms: N_5  and  C_8
REMARK    4  A    between atoms: C_11  and  C_16
REMARK                            x       y       z     vdW  Elec       q    Type
REMARK                         _______ _______ _______ _____ _____    ______ ____
ROOT
ATOM      1  O   UNL     1      -6.460 -10.781  11.029  0.00  0.00    -0.369 OA
ATOM      2  O   UNL     1      -5.095  -8.042  11.222  0.00  0.00    -0.369 OA
ATOM      6  C   UNL     1      -6.313  -8.547  11.809  0.00  0.00    +0.172 C 
ATOM      7  C   UNL     1      -6.953  -9.454  10.779  0.00  0.00    +0.180 C 
ATOM      8  C   UNL     1      -5.989  -9.474  12.957  0.00  0.00    +0.130 C 
ATOM      9  C   UNL     1      -6.426  -8.897   9.479  0.00  0.00    +0.175 C 
ATOM     10  C   UNL     1      -5.693 -10.781  12.243  0.00  0.00    +0.185 C 
ATOM     12  C   UNL     1      -5.023  -8.479   9.857  0.00  0.00    +0.194 C 
ENDROOT
BRANCH   8   5
ATOM      4  O   UNL     1      -5.914  -9.986  15.814  0.00  0.00    -0.276 OA
ATOM      5  N   UNL     1      -7.111  -9.608  13.853  0.00  0.00    -0.307 N 
ATOM     16  C   UNL     1      -6.975  -9.854  15.211  0.00  0.00    +0.216 C 
ATOM     18  H   UNL     1      -8.043  -9.472  13.474  0.00  0.00    +0.149 HD
BRANCH  16  11
ATOM     11  C   UNL     1      -8.284  -9.927  15.913  0.00  0.00    +0.075 C 
ATOM     13  C   UNL     1      -8.945  -8.586  16.292  0.00  0.00    +0.013 C 
ATOM     14  C   UNL     1      -8.246 -10.248  17.422  0.00  0.00    +0.013 C 
ATOM     15  C   UNL     1      -9.439  -9.280  17.578  0.00  0.00    +0.001 C 
ENDBRANCH  16  11
ENDBRANCH   8   5
BRANCH   9   3
ATOM      3  O   UNL     1      -6.435  -9.828   8.421  0.00  0.00    -0.375 OA
ATOM     17  C   UNL     1      -7.749 -10.307   8.145  0.00  0.00    +0.194 C 
ENDBRANCH   9   3
TORSDOF 3
ENDMDL
MODEL 10
REMARK VINA RESULT:      -2.9      3.330      5.327
REMARK  Name = 11883300
REMARK  4 active torsions:
REMARK  status: ('A' for Active; 'I' for Inactive)
REMARK    1  A    between atoms: O_3  and  C_9
REMARK    2  A    between atoms: O_3  and  C_17
REMARK    3  A    between atoms: N_5  and  C_8
REMARK    4  A    between atoms: C_11  and  C_16
REMARK                            x       y       z     vdW  Elec       q    Type
REMARK                         _______ _______ _______ _____ _____    ______ ____
ROOT
ATOM      1  O   UNL     1      -2.633  -1.061  26.175  0.00  0.00    -0.369 OA
ATOM      2  O   UNL     1      -0.447  -1.610  24.095  0.00  0.00    -0.369 OA
ATOM      6  C   UNL     1      -1.112  -0.389  24.484  0.00  0.00    +0.172 C 
ATOM      7  C   UNL     1      -2.555  -0.749  24.774  0.00  0.00    +0.180 C 
ATOM      8  C   UNL     1      -0.583   0.088  25.816  0.00  0.00    +0.130 C 
ATOM      9  C   UNL     1      -2.766  -1.973  23.916  0.00  0.00    +0.175 C 
ATOM     10  C   UNL     1      -1.376  -0.755  26.799  0.00  0.00    +0.185 C 
ATOM     12  C   UNL     1      -1.421  -2.660  24.004  0.00  0.00    +0.194 C 
ENDROOT
BRANCH   8   5
ATOM      4  O   UNL     1       0.513   2.302  24.291  0.00  0.00    -0.276 OA
ATOM      5  N   UNL     1      -0.838   1.495  26.006  0.00  0.00    -0.307 N 
ATOM     16  C   UNL     1      -0.265   2.485  25.223  0.00  0.00    +0.216 C 
ATOM     18  H   UNL     1      -1.506   1.766  26.722  0.00  0.00    +0.149 HD
BRANCH  16  11
ATOM     11  C   UNL     1      -0.709   3.849  25.611  0.00  0.00    +0.075 C 
ATOM     13  C   UNL     1      -2.230   4.107  25.629  0.00  0.00    +0.013 C 
ATOM     14  C   UNL     1      -0.613   4.945  24.528  0.00  0.00    +0.013 C 
ATOM     15  C   UNL     1      -1.918   5.527  25.112  0.00  0.00    +0.001 C 
ENDBRANCH  16  11
ENDBRANCH   8   5
BRANCH   9   3
ATOM      3  O   UNL     1      -3.814  -2.801  24.363  0.00  0.00    -0.375 OA
ATOM     17  C   UNL     1      -4.991  -2.644  23.574  0.00  0.00    +0.194 C 
ENDBRANCH   9   3
TORSDOF 3
ENDMDL
