MODEL 1
REMARK VINA RESULT:       4.1      0.000      0.000
REMARK  Name = 71693286
REMARK  9 active torsions:
REMARK  status: ('A' for Active; 'I' for Inactive)
REMARK    1  A    between atoms: S_1  and  N_8
REMARK    2  A    between atoms: S_1  and  C_24
REMARK    3  A    between atoms: O_3  and  C_11
REMARK    4  A    between atoms: N_7  and  C_13
REMARK    5  A    between atoms: N_8  and  C_19
REMARK    6  A    between atoms: C_9  and  C_11
REMARK    7  A    between atoms: C_10  and  C_12
REMARK    8  A    between atoms: C_13  and  C_18
REMARK    9  A    between atoms: C_24  and  C_28
REMARK                            x       y       z     vdW  Elec       q    Type
REMARK                         _______ _______ _______ _____ _____    ______ ____
ROOT
ATOM     12  C   UNL     1      -1.928   3.025  24.570  0.00  0.00    -0.017 A 
ATOM     16  C   UNL     1      -1.927   1.782  23.935  0.00  0.00    +0.008 A 
ATOM     17  C   UNL     1      -0.732   3.721  24.745  0.00  0.00    +0.008 A 
ATOM     19  C   UNL     1       0.468   1.931  23.652  0.00  0.00    +0.048 A 
ATOM     20  C   UNL     1      -0.729   1.236  23.476  0.00  0.00    +0.025 A 
ATOM     21  C   UNL     1       0.466   3.174  24.285  0.00  0.00    +0.025 A 
ENDROOT
BRANCH  12  10
ATOM      2  O   UNL     1      -4.066   3.826  23.924  0.00  0.00    -0.361 OA
ATOM      4  O   UNL     1      -6.928   1.992  24.313  0.00  0.00    -0.273 OA
ATOM      7  N   UNL     1      -5.002   1.943  25.629  0.00  0.00    -0.287 N 
ATOM      9  C   UNL     1      -3.877   2.721  26.159  0.00  0.00    +0.135 C 
ATOM     10  C   UNL     1      -3.232   3.619  25.069  0.00  0.00    +0.171 C 
ATOM     14  C   UNL     1      -5.884   2.505  24.709  0.00  0.00    +0.242 C 
ATOM     15  C   UNL     1      -5.446   3.866  24.223  0.00  0.00    +0.256 C 
BRANCH   9  11
ATOM     11  C   UNL     1      -4.317   3.553  27.372  0.00  0.00    +0.181 C 
BRANCH  11   3
ATOM      3  O   UNL     1      -3.613   4.778  27.346  0.00  0.00    -0.393 OA
ATOM     34  H   UNL     1      -3.626   5.099  26.429  0.00  0.00    +0.209 HD
ENDBRANCH  11   3
ENDBRANCH   9  11
BRANCH   7  13
ATOM     13  C   UNL     1      -5.246   0.623  26.191  0.00  0.00    +0.143 C 
BRANCH  13  18
ATOM     18  C   UNL     1      -4.401  -0.431  25.536  0.00  0.00    -0.030 A 
ATOM     22  C   UNL     1      -4.763  -0.939  24.289  0.00  0.00    +0.005 A 
ATOM     23  C   UNL     1      -3.253  -0.902  26.175  0.00  0.00    +0.005 A 
ATOM     25  C   UNL     1      -3.978  -1.919  23.680  0.00  0.00    +0.000 A 
ATOM     26  C   UNL     1      -2.469  -1.881  25.566  0.00  0.00    +0.000 A 
ATOM     27  C   UNL     1      -2.831  -2.390  24.319  0.00  0.00    +0.000 A 
ENDBRANCH  13  18
ENDBRANCH   7  13
ENDBRANCH  12  10
BRANCH  19   8
ATOM      8  N   UNL     1       1.695   1.372  23.183  0.00  0.00    -0.220 N 
ATOM     35  H   UNL     1       2.320   2.055  22.734  0.00  0.00    +0.173 HD
BRANCH   8   1
ATOM      1  S   UNL     1       1.649  -0.177  22.430  0.00  0.00    +0.047 S 
ATOM      5  O   UNL     1       1.644  -1.192  23.468  0.00  0.00    -0.155 OA
ATOM      6  O   UNL     1       0.664  -0.207  21.367  0.00  0.00    -0.155 OA
BRANCH   1  24
ATOM     24  C   UNL     1       3.261  -0.211  21.682  0.00  0.00    +0.223 C 
BRANCH  24  28
ATOM     28  C   UNL     1       4.274  -0.254  22.784  0.00  0.00    -0.025 A 
ATOM     29  C   UNL     1       4.561  -1.462  23.422  0.00  0.00    +0.005 A 
ATOM     30  C   UNL     1       4.932   0.913  23.172  0.00  0.00    +0.005 A 
ATOM     31  C   UNL     1       5.506  -1.501  24.448  0.00  0.00    +0.000 A 
ATOM     32  C   UNL     1       5.877   0.874  24.198  0.00  0.00    +0.000 A 
ATOM     33  C   UNL     1       6.163  -0.333  24.835  0.00  0.00    +0.000 A 
ENDBRANCH  24  28
ENDBRANCH   1  24
ENDBRANCH   8   1
ENDBRANCH  19   8
TORSDOF 9
ENDMDL
MODEL 2
REMARK VINA RESULT:       4.6      2.429      7.306
REMARK  Name = 71693286
REMARK  9 active torsions:
REMARK  status: ('A' for Active; 'I' for Inactive)
REMARK    1  A    between atoms: S_1  and  N_8
REMARK    2  A    between atoms: S_1  and  C_24
REMARK    3  A    between atoms: O_3  and  C_11
REMARK    4  A    between atoms: N_7  and  C_13
REMARK    5  A    between atoms: N_8  and  C_19
REMARK    6  A    between atoms: C_9  and  C_11
REMARK    7  A    between atoms: C_10  and  C_12
REMARK    8  A    between atoms: C_13  and  C_18
REMARK    9  A    between atoms: C_24  and  C_28
REMARK                            x       y       z     vdW  Elec       q    Type
REMARK                         _______ _______ _______ _____ _____    ______ ____
ROOT
ATOM     12  C   UNL     1       0.508   2.094  23.738  0.00  0.00    -0.017 A 
ATOM     16  C   UNL     1       0.175   1.716  25.039  0.00  0.00    +0.008 A 
ATOM     17  C   UNL     1       0.131   3.348  23.257  0.00  0.00    +0.008 A 
ATOM     19  C   UNL     1      -0.914   3.846  25.378  0.00  0.00    +0.048 A 
ATOM     20  C   UNL     1      -0.535   2.592  25.859  0.00  0.00    +0.025 A 
ATOM     21  C   UNL     1      -0.579   4.224  24.077  0.00  0.00    +0.025 A 
ENDROOT
BRANCH  12  10
ATOM      2  O   UNL     1       2.672   1.335  23.127  0.00  0.00    -0.361 OA
ATOM      4  O   UNL     1       3.983  -1.621  24.244  0.00  0.00    -0.273 OA
ATOM      7  N   UNL     1       1.742  -1.100  23.856  0.00  0.00    -0.287 N 
ATOM      9  C   UNL     1       0.803  -0.323  23.041  0.00  0.00    +0.135 C 
ATOM     10  C   UNL     1       1.281   1.140  22.846  0.00  0.00    +0.171 C 
ATOM     14  C   UNL     1       3.117  -0.928  23.716  0.00  0.00    +0.242 C 
ATOM     15  C   UNL     1       3.480   0.221  22.807  0.00  0.00    +0.256 C 
BRANCH   9  11
ATOM     11  C   UNL     1       0.561  -1.011  21.690  0.00  0.00    +0.181 C 
BRANCH  11   3
ATOM      3  O   UNL     1       1.385  -0.389  20.725  0.00  0.00    -0.393 OA
ATOM     34  H   UNL     1       1.750   0.414  21.132  0.00  0.00    +0.209 HD
ENDBRANCH  11   3
ENDBRANCH   9  11
BRANCH   7  13
ATOM     13  C   UNL     1       1.201  -2.146  24.714  0.00  0.00    +0.143 C 
BRANCH  13  18
ATOM     18  C   UNL     1      -0.267  -1.961  24.966  0.00  0.00    -0.030 A 
ATOM     22  C   UNL     1      -0.700  -1.048  25.926  0.00  0.00    +0.005 A 
ATOM     23  C   UNL     1      -1.198  -2.704  24.239  0.00  0.00    +0.005 A 
ATOM     25  C   UNL     1      -2.065  -0.877  26.161  0.00  0.00    +0.000 A 
ATOM     26  C   UNL     1      -2.563  -2.533  24.474  0.00  0.00    +0.000 A 
ATOM     27  C   UNL     1      -2.996  -1.619  25.434  0.00  0.00    +0.000 A 
ENDBRANCH  13  18
ENDBRANCH   7  13
ENDBRANCH  12  10
BRANCH  19   8
ATOM      8  N   UNL     1      -1.641   4.742  26.217  0.00  0.00    -0.220 N 
ATOM     35  H   UNL     1      -1.165   4.965  27.101  0.00  0.00    +0.173 HD
BRANCH   8   1
ATOM      1  S   UNL     1      -3.348   4.541  26.338  0.00  0.00    +0.047 S 
ATOM      5  O   UNL     1      -3.614   3.279  27.004  0.00  0.00    -0.155 OA
ATOM      6  O   UNL     1      -3.982   5.763  26.793  0.00  0.00    -0.155 OA
BRANCH   1  24
ATOM     24  C   UNL     1      -3.761   4.316  24.623  0.00  0.00    +0.223 C 
BRANCH  24  28
ATOM     28  C   UNL     1      -4.151   2.883  24.432  0.00  0.00    -0.025 A 
ATOM     29  C   UNL     1      -5.314   2.391  25.027  0.00  0.00    +0.005 A 
ATOM     30  C   UNL     1      -3.354   2.040  23.660  0.00  0.00    +0.005 A 
ATOM     31  C   UNL     1      -5.678   1.057  24.848  0.00  0.00    +0.000 A 
ATOM     32  C   UNL     1      -3.717   0.705  23.480  0.00  0.00    +0.000 A 
ATOM     33  C   UNL     1      -4.879   0.214  24.075  0.00  0.00    +0.000 A 
ENDBRANCH  24  28
ENDBRANCH   1  24
ENDBRANCH   8   1
ENDBRANCH  19   8
TORSDOF 9
ENDMDL
MODEL 3
REMARK VINA RESULT:       4.9      2.382      7.526
REMARK  Name = 71693286
REMARK  9 active torsions:
REMARK  status: ('A' for Active; 'I' for Inactive)
REMARK    1  A    between atoms: S_1  and  N_8
REMARK    2  A    between atoms: S_1  and  C_24
REMARK    3  A    between atoms: O_3  and  C_11
REMARK    4  A    between atoms: N_7  and  C_13
REMARK    5  A    between atoms: N_8  and  C_19
REMARK    6  A    between atoms: C_9  and  C_11
REMARK    7  A    between atoms: C_10  and  C_12
REMARK    8  A    between atoms: C_13  and  C_18
REMARK    9  A    between atoms: C_24  and  C_28
REMARK                            x       y       z     vdW  Elec       q    Type
REMARK                         _______ _______ _______ _____ _____    ______ ____
ROOT
ATOM     12  C   UNL     1      -2.705  -0.382  24.577  0.00  0.00    -0.017 A 
ATOM     16  C   UNL     1      -2.854   0.698  23.706  0.00  0.00    +0.008 A 
ATOM     17  C   UNL     1      -3.568  -0.527  25.663  0.00  0.00    +0.008 A 
ATOM     19  C   UNL     1      -4.730   1.488  25.009  0.00  0.00    +0.048 A 
ATOM     20  C   UNL     1      -3.867   1.632  23.921  0.00  0.00    +0.025 A 
ATOM     21  C   UNL     1      -4.580   0.407  25.879  0.00  0.00    +0.025 A 
ENDROOT
BRANCH  12  10
ATOM      2  O   UNL     1      -1.752  -1.877  23.001  0.00  0.00    -0.361 OA
ATOM      4  O   UNL     1       1.109  -1.165  21.264  0.00  0.00    -0.273 OA
ATOM      7  N   UNL     1       0.514  -0.452  23.405  0.00  0.00    -0.287 N 
ATOM      9  C   UNL     1      -0.206  -0.790  24.638  0.00  0.00    +0.135 C 
ATOM     10  C   UNL     1      -1.602  -1.398  24.342  0.00  0.00    +0.171 C 
ATOM     14  C   UNL     1       0.440  -1.281  22.288  0.00  0.00    +0.242 C 
ATOM     15  C   UNL     1      -0.562  -2.400  22.446  0.00  0.00    +0.256 C 
BRANCH   9  11
ATOM     11  C   UNL     1       0.633  -1.730  25.514  0.00  0.00    +0.181 C 
BRANCH  11   3
ATOM      3  O   UNL     1      -0.103  -2.919  25.715  0.00  0.00    -0.393 OA
ATOM     34  H   UNL     1      -0.749  -2.985  24.992  0.00  0.00    +0.209 HD
ENDBRANCH  11   3
ENDBRANCH   9  11
BRANCH   7  13
ATOM     13  C   UNL     1       1.409   0.696  23.428  0.00  0.00    +0.143 C 
BRANCH  13  18
ATOM     18  C   UNL     1       2.852   0.283  23.403  0.00  0.00    -0.030 A 
ATOM     22  C   UNL     1       3.217  -0.999  23.811  0.00  0.00    +0.005 A 
ATOM     23  C   UNL     1       3.828   1.183  22.971  0.00  0.00    +0.005 A 
ATOM     25  C   UNL     1       4.559  -1.383  23.789  0.00  0.00    +0.000 A 
ATOM     26  C   UNL     1       5.169   0.798  22.948  0.00  0.00    +0.000 A 
ATOM     27  C   UNL     1       5.534  -0.484  23.358  0.00  0.00    +0.000 A 
ENDBRANCH  13  18
ENDBRANCH   7  13
ENDBRANCH  12  10
BRANCH  19   8
ATOM      8  N   UNL     1      -5.766   2.444  25.230  0.00  0.00    -0.220 N 
ATOM     35  H   UNL     1      -6.623   2.262  24.690  0.00  0.00    +0.173 HD
BRANCH   8   1
ATOM      1  S   UNL     1      -5.328   4.104  25.365  0.00  0.00    +0.047 S 
ATOM      5  O   UNL     1      -4.615   4.490  24.162  0.00  0.00    -0.155 OA
ATOM      6  O   UNL     1      -6.442   4.896  25.849  0.00  0.00    -0.155 OA
BRANCH   1  24
ATOM     24  C   UNL     1      -4.122   4.005  26.669  0.00  0.00    +0.223 C 
BRANCH  24  28
ATOM     28  C   UNL     1      -2.765   4.086  26.042  0.00  0.00    -0.025 A 
ATOM     29  C   UNL     1      -1.887   3.005  26.137  0.00  0.00    +0.005 A 
ATOM     30  C   UNL     1      -2.378   5.241  25.363  0.00  0.00    +0.005 A 
ATOM     31  C   UNL     1      -0.622   3.081  25.552  0.00  0.00    +0.000 A 
ATOM     32  C   UNL     1      -1.114   5.317  24.778  0.00  0.00    +0.000 A 
ATOM     33  C   UNL     1      -0.236   4.237  24.873  0.00  0.00    +0.000 A 
ENDBRANCH  24  28
ENDBRANCH   1  24
ENDBRANCH   8   1
ENDBRANCH  19   8
TORSDOF 9
ENDMDL
MODEL 4
REMARK VINA RESULT:       5.4      1.569      3.780
REMARK  Name = 71693286
REMARK  9 active torsions:
REMARK  status: ('A' for Active; 'I' for Inactive)
REMARK    1  A    between atoms: S_1  and  N_8
REMARK    2  A    between atoms: S_1  and  C_24
REMARK    3  A    between atoms: O_3  and  C_11
REMARK    4  A    between atoms: N_7  and  C_13
REMARK    5  A    between atoms: N_8  and  C_19
REMARK    6  A    between atoms: C_9  and  C_11
REMARK    7  A    between atoms: C_10  and  C_12
REMARK    8  A    between atoms: C_13  and  C_18
REMARK    9  A    between atoms: C_24  and  C_28
REMARK                            x       y       z     vdW  Elec       q    Type
REMARK                         _______ _______ _______ _____ _____    ______ ____
ROOT
ATOM     12  C   UNL     1      -2.883   0.553  23.871  0.00  0.00    -0.017 A 
ATOM     16  C   UNL     1      -1.820   1.326  23.404  0.00  0.00    +0.008 A 
ATOM     17  C   UNL     1      -2.657  -0.752  24.311  0.00  0.00    +0.008 A 
ATOM     19  C   UNL     1      -0.305  -0.510  23.815  0.00  0.00    +0.048 A 
ATOM     20  C   UNL     1      -0.531   0.795  23.376  0.00  0.00    +0.025 A 
ATOM     21  C   UNL     1      -1.368  -1.283  24.283  0.00  0.00    +0.025 A 
ENDROOT
BRANCH  12  10
ATOM      2  O   UNL     1      -5.044   0.349  24.831  0.00  0.00    -0.361 OA
ATOM      4  O   UNL     1      -6.166   2.407  27.324  0.00  0.00    -0.273 OA
ATOM      7  N   UNL     1      -4.651   2.909  25.621  0.00  0.00    -0.287 N 
ATOM      9  C   UNL     1      -4.261   2.647  24.231  0.00  0.00    +0.135 C 
ATOM     10  C   UNL     1      -4.285   1.131  23.901  0.00  0.00    +0.171 C 
ATOM     14  C   UNL     1      -5.671   2.176  26.223  0.00  0.00    +0.242 C 
ATOM     15  C   UNL     1      -6.159   1.029  25.371  0.00  0.00    +0.256 C 
BRANCH   9  11
ATOM     11  C   UNL     1      -5.148   3.440  23.262  0.00  0.00    +0.181 C 
BRANCH  11   3
ATOM      3  O   UNL     1      -4.350   3.852  22.171  0.00  0.00    -0.393 OA
ATOM     34  H   UNL     1      -4.854   4.524  21.682  0.00  0.00    +0.209 HD
ENDBRANCH  11   3
ENDBRANCH   9  11
BRANCH   7  13
ATOM     13  C   UNL     1      -4.038   4.039  26.303  0.00  0.00    +0.143 C 
BRANCH  13  18
ATOM     18  C   UNL     1      -2.615   4.249  25.875  0.00  0.00    -0.030 A 
ATOM     22  C   UNL     1      -1.648   3.290  26.174  0.00  0.00    +0.005 A 
ATOM     23  C   UNL     1      -2.259   5.404  25.176  0.00  0.00    +0.005 A 
ATOM     25  C   UNL     1      -0.325   3.485  25.776  0.00  0.00    +0.000 A 
ATOM     26  C   UNL     1      -0.936   5.598  24.778  0.00  0.00    +0.000 A 
ATOM     27  C   UNL     1       0.031   4.639  25.078  0.00  0.00    +0.000 A 
ENDBRANCH  13  18
ENDBRANCH   7  13
ENDBRANCH  12  10
BRANCH  19   8
ATOM      8  N   UNL     1       1.015  -1.054  23.786  0.00  0.00    -0.220 N 
ATOM     35  H   UNL     1       1.509  -0.996  24.687  0.00  0.00    +0.173 HD
BRANCH   8   1
ATOM      1  S   UNL     1       1.989  -0.755  22.398  0.00  0.00    +0.047 S 
ATOM      5  O   UNL     1       2.961  -1.827  22.279  0.00  0.00    -0.155 OA
ATOM      6  O   UNL     1       1.172  -0.372  21.264  0.00  0.00    -0.155 OA
BRANCH   1  24
ATOM     24  C   UNL     1       2.877   0.687  22.943  0.00  0.00    +0.223 C 
BRANCH  24  28
ATOM     28  C   UNL     1       4.231   0.243  23.401  0.00  0.00    -0.025 A 
ATOM     29  C   UNL     1       5.308   1.131  23.359  0.00  0.00    +0.005 A 
ATOM     30  C   UNL     1       4.418  -1.057  23.869  0.00  0.00    +0.005 A 
ATOM     31  C   UNL     1       6.570   0.716  23.787  0.00  0.00    +0.000 A 
ATOM     32  C   UNL     1       5.680  -1.471  24.296  0.00  0.00    +0.000 A 
ATOM     33  C   UNL     1       6.755  -0.584  24.255  0.00  0.00    +0.000 A 
ENDBRANCH  24  28
ENDBRANCH   1  24
ENDBRANCH   8   1
ENDBRANCH  19   8
TORSDOF 9
ENDMDL
