MODEL 1
REMARK VINA RESULT:       2.7      0.000      0.000
REMARK  Name = 71693320
REMARK  11 active torsions:
REMARK  status: ('A' for Active; 'I' for Inactive)
REMARK    1  A    between atoms: O_2  and  C_12
REMARK    2  A    between atoms: N_5  and  C_10
REMARK    3  A    between atoms: N_6  and  C_22
REMARK    4  A    between atoms: N_7  and  C_24
REMARK    5  A    between atoms: C_8  and  C_12
REMARK    6  A    between atoms: C_9  and  C_14
REMARK    7  A    between atoms: C_10  and  C_11
REMARK    8  A    between atoms: C_11  and  C_16
REMARK    9  A    between atoms: C_11  and  C_17
REMARK   10  A    between atoms: C_24  and  C_25
REMARK   11  A    between atoms: C_24  and  C_26
REMARK                            x       y       z     vdW  Elec       q    Type
REMARK                         _______ _______ _______ _____ _____    ______ ____
ROOT
ATOM     14  C   UNL     1      -0.226   0.507  23.576  0.00  0.00    -0.017 A 
ATOM     18  C   UNL     1       0.424  -0.443  22.790  0.00  0.00    +0.008 A 
ATOM     19  C   UNL     1       0.505   1.531  24.180  0.00  0.00    +0.008 A 
ATOM     20  C   UNL     1       1.804  -0.371  22.606  0.00  0.00    +0.024 A 
ATOM     21  C   UNL     1       1.885   1.605  23.996  0.00  0.00    +0.024 A 
ATOM     22  C   UNL     1       2.535   0.653  23.209  0.00  0.00    +0.035 A 
ENDROOT
BRANCH  14   9
ATOM      1  O   UNL     1      -1.949  -0.327  24.967  0.00  0.00    -0.361 OA
ATOM      3  O   UNL     1      -5.393   0.368  25.550  0.00  0.00    -0.273 OA
ATOM      5  N   UNL     1      -3.822   1.635  24.385  0.00  0.00    -0.291 N 
ATOM      8  C   UNL     1      -2.415   1.795  23.945  0.00  0.00    +0.135 C 
ATOM      9  C   UNL     1      -1.725   0.427  23.776  0.00  0.00    +0.171 C 
ATOM     13  C   UNL     1      -4.272   0.495  25.055  0.00  0.00    +0.242 C 
ATOM     15  C   UNL     1      -3.307  -0.672  25.094  0.00  0.00    +0.256 C 
BRANCH   5  10
ATOM     10  C   UNL     1      -4.698   2.803  24.327  0.00  0.00    +0.111 C 
BRANCH  10  11
ATOM     11  C   UNL     1      -4.794   3.526  25.675  0.00  0.00    +0.000 C 
ATOM     16  C   UNL     1      -5.881   4.599  25.618  0.00  0.00    +0.009 C 
ATOM     17  C   UNL     1      -3.457   4.158  26.072  0.00  0.00    +0.009 C 
ENDBRANCH  10  11
ENDBRANCH   5  10
BRANCH   8  12
ATOM     12  C   UNL     1      -2.291   2.625  22.659  0.00  0.00    +0.181 C 
BRANCH  12   2
ATOM      2  O   UNL     1      -2.457   1.756  21.556  0.00  0.00    -0.393 OA
ATOM     27  H   UNL     1      -1.974   0.938  21.760  0.00  0.00    +0.209 HD
ENDBRANCH  12   2
ENDBRANCH   8  12
ENDBRANCH  14   9
BRANCH  22   6
ATOM      4  O   UNL     1       4.700  -1.281  23.967  0.00  0.00    -0.253 OA
ATOM      6  N   UNL     1       3.917   0.727  23.026  0.00  0.00    -0.269 N 
ATOM      7  N   UNL     1       6.177   0.236  23.039  0.00  0.00    -0.297 N 
ATOM     23  C   UNL     1       4.902  -0.209  23.400  0.00  0.00    +0.304 C 
ATOM     28  H   UNL     1       4.255   1.566  22.562  0.00  0.00    +0.156 HD
ATOM     29  H   UNL     1       6.267   1.166  22.642  0.00  0.00    +0.151 HD
BRANCH   7  24
ATOM     24  C   UNL     1       7.380  -0.521  23.298  0.00  0.00    +0.068 C 
ATOM     25  C   UNL     1       8.573   0.415  23.445  0.00  0.00    +0.027 C 
ATOM     26  C   UNL     1       7.614  -1.546  22.195  0.00  0.00    +0.027 C 
ENDBRANCH   7  24
ENDBRANCH  22   6
TORSDOF 7
ENDMDL
MODEL 2
REMARK VINA RESULT:       3.7      1.488      2.114
REMARK  Name = 71693320
REMARK  11 active torsions:
REMARK  status: ('A' for Active; 'I' for Inactive)
REMARK    1  A    between atoms: O_2  and  C_12
REMARK    2  A    between atoms: N_5  and  C_10
REMARK    3  A    between atoms: N_6  and  C_22
REMARK    4  A    between atoms: N_7  and  C_24
REMARK    5  A    between atoms: C_8  and  C_12
REMARK    6  A    between atoms: C_9  and  C_14
REMARK    7  A    between atoms: C_10  and  C_11
REMARK    8  A    between atoms: C_11  and  C_16
REMARK    9  A    between atoms: C_11  and  C_17
REMARK   10  A    between atoms: C_24  and  C_25
REMARK   11  A    between atoms: C_24  and  C_26
REMARK                            x       y       z     vdW  Elec       q    Type
REMARK                         _______ _______ _______ _____ _____    ______ ____
ROOT
ATOM     14  C   UNL     1      -1.748   0.430  24.025  0.00  0.00    -0.017 A 
ATOM     18  C   UNL     1      -0.859   1.313  23.416  0.00  0.00    +0.008 A 
ATOM     19  C   UNL     1      -1.311  -0.833  24.428  0.00  0.00    +0.008 A 
ATOM     20  C   UNL     1       0.468   0.937  23.208  0.00  0.00    +0.024 A 
ATOM     21  C   UNL     1       0.015  -1.210  24.221  0.00  0.00    +0.024 A 
ATOM     22  C   UNL     1       0.905  -0.326  23.611  0.00  0.00    +0.035 A 
ENDROOT
BRANCH  14   9
ATOM      1  O   UNL     1      -3.697   0.023  25.305  0.00  0.00    -0.361 OA
ATOM      3  O   UNL     1      -6.709   1.756  26.087  0.00  0.00    -0.273 OA
ATOM      5  N   UNL     1      -4.761   2.578  25.105  0.00  0.00    -0.291 N 
ATOM      8  C   UNL     1      -3.372   2.313  24.661  0.00  0.00    +0.135 C 
ATOM      9  C   UNL     1      -3.188   0.839  24.249  0.00  0.00    +0.171 C 
ATOM     13  C   UNL     1      -5.596   1.569  25.589  0.00  0.00    +0.242 C 
ATOM     15  C   UNL     1      -5.094   0.151  25.409  0.00  0.00    +0.256 C 
BRANCH   5  10
ATOM     10  C   UNL     1      -5.179   3.968  25.265  0.00  0.00    +0.111 C 
BRANCH  10  11
ATOM     11  C   UNL     1      -4.215   4.769  26.148  0.00  0.00    +0.000 C 
ATOM     16  C   UNL     1      -3.112   5.389  25.290  0.00  0.00    +0.009 C 
ATOM     17  C   UNL     1      -3.594   3.895  27.242  0.00  0.00    +0.009 C 
ENDBRANCH  10  11
ENDBRANCH   5  10
BRANCH   8  12
ATOM     12  C   UNL     1      -2.928   3.249  23.527  0.00  0.00    +0.181 C 
BRANCH  12   2
ATOM      2  O   UNL     1      -3.710   2.959  22.385  0.00  0.00    -0.393 OA
ATOM     27  H   UNL     1      -4.212   3.763  22.170  0.00  0.00    +0.209 HD
ENDBRANCH  12   2
ENDBRANCH   8  12
ENDBRANCH  14   9
BRANCH  22   6
ATOM      4  O   UNL     1       3.381   1.347  23.336  0.00  0.00    -0.253 OA
ATOM      6  N   UNL     1       2.232  -0.704  23.404  0.00  0.00    -0.269 N 
ATOM      7  N   UNL     1       4.521  -0.648  23.079  0.00  0.00    -0.297 N 
ATOM     23  C   UNL     1       3.369   0.119  23.280  0.00  0.00    +0.304 C 
ATOM     28  H   UNL     1       2.398  -1.705  23.334  0.00  0.00    +0.156 HD
ATOM     29  H   UNL     1       4.418  -1.652  22.969  0.00  0.00    +0.151 HD
BRANCH   7  24
ATOM     24  C   UNL     1       5.836  -0.069  22.919  0.00  0.00    +0.068 C 
ATOM     25  C   UNL     1       6.868  -1.162  22.673  0.00  0.00    +0.027 C 
ATOM     26  C   UNL     1       6.201   0.772  24.136  0.00  0.00    +0.027 C 
ENDBRANCH   7  24
ENDBRANCH  22   6
TORSDOF 7
ENDMDL
MODEL 3
REMARK VINA RESULT:       4.2      1.559      3.076
REMARK  Name = 71693320
REMARK  11 active torsions:
REMARK  status: ('A' for Active; 'I' for Inactive)
REMARK    1  A    between atoms: O_2  and  C_12
REMARK    2  A    between atoms: N_5  and  C_10
REMARK    3  A    between atoms: N_6  and  C_22
REMARK    4  A    between atoms: N_7  and  C_24
REMARK    5  A    between atoms: C_8  and  C_12
REMARK    6  A    between atoms: C_9  and  C_14
REMARK    7  A    between atoms: C_10  and  C_11
REMARK    8  A    between atoms: C_11  and  C_16
REMARK    9  A    between atoms: C_11  and  C_17
REMARK   10  A    between atoms: C_24  and  C_25
REMARK   11  A    between atoms: C_24  and  C_26
REMARK                            x       y       z     vdW  Elec       q    Type
REMARK                         _______ _______ _______ _____ _____    ______ ____
ROOT
ATOM     14  C   UNL     1       0.388   1.068  23.710  0.00  0.00    -0.017 A 
ATOM     18  C   UNL     1       0.714  -0.121  23.059  0.00  0.00    +0.008 A 
ATOM     19  C   UNL     1       1.376   2.022  23.956  0.00  0.00    +0.008 A 
ATOM     20  C   UNL     1       2.027  -0.358  22.654  0.00  0.00    +0.024 A 
ATOM     21  C   UNL     1       2.690   1.787  23.551  0.00  0.00    +0.024 A 
ATOM     22  C   UNL     1       3.015   0.596  22.900  0.00  0.00    +0.035 A 
ENDROOT
BRANCH  14   9
ATOM      1  O   UNL     1      -1.756   1.776  23.002  0.00  0.00    -0.361 OA
ATOM      3  O   UNL     1      -5.110   1.494  24.170  0.00  0.00    -0.273 OA
ATOM      5  N   UNL     1      -3.212   0.340  24.877  0.00  0.00    -0.291 N 
ATOM      8  C   UNL     1      -1.763   0.082  24.705  0.00  0.00    +0.135 C 
ATOM      9  C   UNL     1      -1.038   1.324  24.150  0.00  0.00    +0.171 C 
ATOM     13  C   UNL     1      -3.888   1.326  24.156  0.00  0.00    +0.242 C 
ATOM     15  C   UNL     1      -3.017   2.282  23.367  0.00  0.00    +0.256 C 
BRANCH   5  10
ATOM     10  C   UNL     1      -3.996  -0.626  25.645  0.00  0.00    +0.111 C 
BRANCH  10  11
ATOM     11  C   UNL     1      -4.216  -1.936  24.880  0.00  0.00    +0.000 C 
ATOM     16  C   UNL     1      -3.205  -2.986  25.339  0.00  0.00    +0.009 C 
ATOM     17  C   UNL     1      -4.106  -1.731  23.366  0.00  0.00    +0.009 C 
ENDBRANCH  10  11
ENDBRANCH   5  10
BRANCH   8  12
ATOM     12  C   UNL     1      -1.092  -0.401  25.999  0.00  0.00    +0.181 C 
BRANCH  12   2
ATOM      2  O   UNL     1      -0.242  -1.484  25.677  0.00  0.00    -0.393 OA
ATOM     27  H   UNL     1      -0.809  -2.213  25.376  0.00  0.00    +0.209 HD
ENDBRANCH  12   2
ENDBRANCH   8  12
ENDBRANCH  14   9
BRANCH  22   6
ATOM      4  O   UNL     1       5.342  -0.535  24.420  0.00  0.00    -0.253 OA
ATOM      6  N   UNL     1       4.330   0.360  22.495  0.00  0.00    -0.269 N 
ATOM      7  N   UNL     1       6.560  -0.252  22.475  0.00  0.00    -0.297 N 
ATOM     23  C   UNL     1       5.396  -0.175  23.246  0.00  0.00    +0.304 C 
ATOM     28  H   UNL     1       4.544   0.607  21.532  0.00  0.00    +0.156 HD
ATOM     29  H   UNL     1       6.543   0.136  21.537  0.00  0.00    +0.151 HD
BRANCH   7  24
ATOM     24  C   UNL     1       7.812  -0.762  22.986  0.00  0.00    +0.068 C 
ATOM     25  C   UNL     1       8.778   0.383  23.260  0.00  0.00    +0.027 C 
ATOM     26  C   UNL     1       8.413  -1.772  22.016  0.00  0.00    +0.027 C 
ENDBRANCH   7  24
ENDBRANCH  22   6
TORSDOF 7
ENDMDL
