MODEL 1
REMARK VINA RESULT:      -7.9      0.000      0.000
REMARK  Name = 28963165
REMARK  6 active torsions:
REMARK  status: ('A' for Active; 'I' for Inactive)
REMARK    1  A    between atoms: N_4  and  C_14
REMARK    2  A    between atoms: N_5  and  C_22
REMARK    3  A    between atoms: C_7  and  C_17
REMARK    4  A    between atoms: C_10  and  C_18
REMARK    5  A    between atoms: C_16  and  C_20
REMARK    6  A    between atoms: C_22  and  C_23
REMARK                            x       y       z     vdW  Elec       q    Type
REMARK                         _______ _______ _______ _____ _____    ______ ____
ROOT
ATOM      1  O   UNL     1      -3.291   3.050  24.834  0.00  0.00    -0.461 OA
ATOM      2  O   UNL     1      -5.042   4.495  25.205  0.00  0.00    -0.251 OA
ATOM      6  C   UNL     1      -2.001   0.947  24.291  0.00  0.00    +0.041 C 
ATOM      7  C   UNL     1      -2.012  -0.585  24.653  0.00  0.00    -0.025 C 
ATOM      8  C   UNL     1      -3.067   1.670  25.134  0.00  0.00    +0.184 C 
ATOM      9  C   UNL     1      -4.438   1.078  24.856  0.00  0.00    +0.044 C 
ATOM     10  C   UNL     1      -0.562   1.546  24.349  0.00  0.00    +0.013 C 
ATOM     11  C   UNL     1      -3.450  -1.171  24.514  0.00  0.00    +0.007 C 
ATOM     12  C   UNL     1      -1.083  -1.323  23.662  0.00  0.00    +0.009 C 
ATOM     13  C   UNL     1      -4.521  -0.375  25.275  0.00  0.00    +0.008 C 
ATOM     14  C   UNL     1       0.385   0.741  23.416  0.00  0.00    +0.078 C 
ATOM     15  C   UNL     1       0.337  -0.770  23.657  0.00  0.00    +0.023 C 
ATOM     16  C   UNL     1      -5.326   2.089  25.554  0.00  0.00    +0.101 C 
ATOM     17  C   UNL     1      -1.528  -0.862  26.099  0.00  0.00    +0.011 C 
ATOM     18  C   UNL     1      -0.524   3.035  23.968  0.00  0.00    +0.010 C 
ATOM     19  C   UNL     1      -4.585   3.362  25.189  0.00  0.00    +0.311 C 
ATOM     20  C   UNL     1      -6.758   2.082  25.049  0.00  0.00    +0.019 C 
ENDROOT
BRANCH  14   4
ATOM      3  O   UNL     1       2.763  -0.751  22.749  0.00  0.00    -0.253 OA
ATOM      4  N   UNL     1       1.756   1.187  23.536  0.00  0.00    -0.296 N 
ATOM      5  N   UNL     1       4.045   1.068  23.403  0.00  0.00    -0.300 N 
ATOM     21  C   UNL     1       2.845   0.395  23.188  0.00  0.00    +0.300 C 
ATOM     24  H   UNL     1       1.935   2.091  23.964  0.00  0.00    +0.151 HD
ATOM     25  H   UNL     1       4.015   2.019  23.757  0.00  0.00    +0.150 HD
BRANCH   5  22
ATOM     22  C   UNL     1       5.334   0.478  23.125  0.00  0.00    +0.102 C 
ATOM     23  C   UNL     1       5.688  -0.588  24.140  0.00  0.00    +0.024 C 
ENDBRANCH   5  22
ENDBRANCH  14   4
TORSDOF 2
ENDMDL
