MODEL 1
REMARK VINA RESULT:       5.2      0.000      0.000
REMARK  Name = 11941479
REMARK  6 active torsions:
REMARK  status: ('A' for Active; 'I' for Inactive)
REMARK    1  A    between atoms: S_1  and  C_24
REMARK    2  A    between atoms: S_1  and  C_31
REMARK    3  A    between atoms: N_9  and  C_11
REMARK    4  A    between atoms: C_19  and  C_24
REMARK    5  A    between atoms: C_22  and  C_25
REMARK    6  A    between atoms: C_28  and  C_32
REMARK                            x       y       z     vdW  Elec       q    Type
REMARK                         _______ _______ _______ _____ _____    ______ ____
ROOT
ATOM      5  O   UNL     1      -5.138  -0.320  26.088  0.00  0.00    -0.273 OA
ATOM      6  O   UNL     1      -2.573   1.480  21.852  0.00  0.00    -0.270 OA
ATOM      8  N   UNL     1      -3.727   1.628  23.836  0.00  0.00    -0.284 N 
ATOM     10  N   UNL     1      -3.060  -0.829  25.309  0.00  0.00    -0.283 N 
ATOM     11  C   UNL     1      -4.943   2.463  25.686  0.00  0.00    +0.104 C 
ATOM     12  C   UNL     1      -3.803   1.518  25.281  0.00  0.00    +0.183 C 
ATOM     13  C   UNL     1      -5.832   2.501  24.442  0.00  0.00    +0.043 C 
ATOM     14  C   UNL     1      -4.838   2.400  23.296  0.00  0.00    +0.111 C 
ATOM     15  C   UNL     1      -4.088   0.054  25.564  0.00  0.00    +0.240 C 
ATOM     16  C   UNL     1      -2.669   1.221  23.052  0.00  0.00    +0.249 C 
ATOM     17  C   UNL     1      -1.602   0.405  23.686  0.00  0.00    +0.059 A 
ATOM     18  C   UNL     1      -1.832  -0.586  24.655  0.00  0.00    +0.046 A 
ATOM     20  C   UNL     1      -0.315   0.548  23.136  0.00  0.00    +0.023 A 
ATOM     21  C   UNL     1      -0.782  -1.454  24.999  0.00  0.00    +0.024 A 
ATOM     22  C   UNL     1       0.726  -0.293  23.525  0.00  0.00    -0.017 A 
ATOM     23  C   UNL     1       0.490  -1.304  24.448  0.00  0.00    +0.010 A 
ATOM     34  H   UNL     1      -3.168  -1.754  25.718  0.00  0.00    +0.155 HD
ENDROOT
BRANCH  22  25
ATOM     25  C   UNL     1       2.044  -0.130  22.951  0.00  0.00    -0.017 A 
ATOM     26  C   UNL     1       3.170  -0.141  23.775  0.00  0.00    +0.021 A 
ATOM     27  C   UNL     1       2.191   0.040  21.574  0.00  0.00    +0.008 A 
ATOM     28  C   UNL     1       4.441   0.015  23.222  0.00  0.00    +0.055 A 
ATOM     29  C   UNL     1       3.462   0.197  21.022  0.00  0.00    +0.001 A 
ATOM     30  C   UNL     1       4.587   0.185  21.846  0.00  0.00    +0.012 A 
BRANCH  28  32
ATOM      2  F   UNL     1       5.738   1.093  24.920  0.00  0.00    -0.166 F 
ATOM      3  F   UNL     1       5.696  -1.076  24.942  0.00  0.00    -0.166 F 
ATOM      4  F   UNL     1       6.813  -0.029  23.397  0.00  0.00    -0.166 F 
ATOM     32  C   UNL     1       5.645   0.001  24.103  0.00  0.00    +0.417 C 
ENDBRANCH  28  32
ENDBRANCH  22  25
BRANCH  11   9
ATOM      7  O   UNL     1      -2.188   3.204  26.176  0.00  0.00    -0.275 OA
ATOM      9  N   UNL     1      -4.434   3.777  26.007  0.00  0.00    -0.309 N 
ATOM     19  C   UNL     1      -3.091   4.037  26.226  0.00  0.00    +0.223 C 
ATOM     33  H   UNL     1      -5.090   4.553  26.016  0.00  0.00    +0.149 HD
BRANCH  19  24
ATOM     24  C   UNL     1      -2.819   5.484  26.563  0.00  0.00    +0.164 C 
BRANCH  24   1
ATOM      1  S   UNL     1      -2.000   6.271  25.156  0.00  0.00    -0.155 S 
ATOM     31  C   UNL     1      -0.735   5.016  24.845  0.00  0.00    +0.085 C 
ENDBRANCH  24   1
ENDBRANCH  19  24
ENDBRANCH  11   9
TORSDOF 5
ENDMDL
