MODEL 1
REMARK VINA RESULT:       0.7      0.000      0.000
REMARK  Name = 45783938
REMARK  12 active torsions:
REMARK  status: ('A' for Active; 'I' for Inactive)
REMARK    1  A    between atoms: N_5  and  C_16
REMARK    2  A    between atoms: N_8  and  C_32
REMARK    3  A    between atoms: C_9  and  C_13
REMARK    4  A    between atoms: C_10  and  C_16
REMARK    5  A    between atoms: C_12  and  C_17
REMARK    6  A    between atoms: C_13  and  C_18
REMARK    7  A    between atoms: C_13  and  C_19
REMARK    8  A    between atoms: C_14  and  C_20
REMARK    9  A    between atoms: C_17  and  C_21
REMARK   10  A    between atoms: C_22  and  C_24
REMARK   11  A    between atoms: C_23  and  C_25
REMARK   12  A    between atoms: C_36  and  C_37
REMARK                            x       y       z     vdW  Elec       q    Type
REMARK                         _______ _______ _______ _____ _____    ______ ____
ROOT
ATOM      9  C   UNL     1      -4.655   2.901  25.441  0.00  0.00    +0.000 C 
ATOM     10  C   UNL     1      -4.133   3.040  23.989  0.00  0.00    +0.032 C 
ATOM     11  C   UNL     1      -4.448   4.212  26.213  0.00  0.00    +0.012 C 
ATOM     12  C   UNL     1      -2.966   4.629  26.265  0.00  0.00    +0.024 C 
ATOM     14  C   UNL     1      -2.305   4.533  24.905  0.00  0.00    -0.073 C 
ATOM     15  C   UNL     1      -2.848   3.829  23.896  0.00  0.00    -0.022 C 
ATOM     20  C   UNL     1      -1.028   5.303  24.717  0.00  0.00    +0.039 C 
ENDROOT
BRANCH   9  13
ATOM     13  C   UNL     1      -6.135   2.506  25.477  0.00  0.00    -0.013 C 
ATOM     18  C   UNL     1      -6.511   1.977  26.857  0.00  0.00    +0.007 C 
ATOM     19  C   UNL     1      -6.435   1.468  24.400  0.00  0.00    +0.007 C 
ENDBRANCH   9  13
BRANCH  10  16
ATOM     16  C   UNL     1      -3.936   1.665  23.338  0.00  0.00    +0.112 C 
BRANCH  16   5
ATOM      3  O   UNL     1      -2.026   1.868  21.203  0.00  0.00    -0.270 OA
ATOM      5  N   UNL     1      -2.562   1.275  23.383  0.00  0.00    -0.311 N 
ATOM     22  C   UNL     1      -1.700   1.409  22.294  0.00  0.00    +0.244 C 
ATOM     38  H   UNL     1      -2.223   0.879  24.252  0.00  0.00    +0.149 HD
BRANCH  22  24
ATOM     24  C   UNL     1      -0.306   0.933  22.493  0.00  0.00    +0.037 A 
ATOM     26  C   UNL     1       0.124  -0.242  21.878  0.00  0.00    +0.015 A 
ATOM     27  C   UNL     1       0.571   1.663  23.296  0.00  0.00    +0.015 A 
ATOM     28  C   UNL     1       1.432  -0.688  22.064  0.00  0.00    +0.024 A 
ATOM     29  C   UNL     1       1.879   1.216  23.482  0.00  0.00    +0.024 A 
ATOM     32  C   UNL     1       2.310   0.041  22.866  0.00  0.00    +0.033 A 
BRANCH  32   8
ATOM      4  O   UNL     1       4.846   1.578  23.386  0.00  0.00    -0.276 OA
ATOM      8  N   UNL     1       3.618  -0.406  23.055  0.00  0.00    -0.286 N 
ATOM     36  C   UNL     1       4.769   0.358  23.292  0.00  0.00    +0.214 C 
ATOM     37  C   UNL     1       5.995  -0.509  23.441  0.00  0.00    +0.109 C 
ATOM     39  H   UNL     1       3.742  -1.417  23.011  0.00  0.00    +0.155 HD
ENDBRANCH  32   8
ENDBRANCH  22  24
ENDBRANCH  16   5
ENDBRANCH  10  16
BRANCH  12  17
ATOM     17  C   UNL     1      -2.197   3.808  27.307  0.00  0.00    +0.105 C 
BRANCH  17  21
ATOM      2  O   UNL     1      -2.364   1.549  26.399  0.00  0.00    -0.420 OA
ATOM      6  N   UNL     1      -0.294   2.397  26.370  0.00  0.00    -0.112 NA
ATOM      7  N   UNL     1      -0.242   1.125  25.833  0.00  0.00    -0.107 NA
ATOM     21  C   UNL     1      -1.552   2.602  26.687  0.00  0.00    +0.218 A 
ATOM     23  C   UNL     1      -1.472   0.668  25.869  0.00  0.00    +0.251 A 
BRANCH  23  25
ATOM      1  F   UNL     1       0.163  -1.407  24.932  0.00  0.00    -0.205 F 
ATOM     25  C   UNL     1      -2.011  -0.591  25.444  0.00  0.00    +0.074 A 
ATOM     30  C   UNL     1      -1.163  -1.598  24.984  0.00  0.00    +0.136 A 
ATOM     31  C   UNL     1      -3.388  -0.807  25.492  0.00  0.00    +0.016 A 
ATOM     33  C   UNL     1      -1.692  -2.821  24.571  0.00  0.00    +0.039 A 
ATOM     34  C   UNL     1      -3.918  -2.031  25.079  0.00  0.00    +0.001 A 
ATOM     35  C   UNL     1      -3.069  -3.037  24.619  0.00  0.00    +0.003 A 
ENDBRANCH  23  25
ENDBRANCH  17  21
ENDBRANCH  12  17
TORSDOF 8
ENDMDL
MODEL 2
REMARK VINA RESULT:       3.4      2.034      3.366
REMARK  Name = 45783938
REMARK  12 active torsions:
REMARK  status: ('A' for Active; 'I' for Inactive)
REMARK    1  A    between atoms: N_5  and  C_16
REMARK    2  A    between atoms: N_8  and  C_32
REMARK    3  A    between atoms: C_9  and  C_13
REMARK    4  A    between atoms: C_10  and  C_16
REMARK    5  A    between atoms: C_12  and  C_17
REMARK    6  A    between atoms: C_13  and  C_18
REMARK    7  A    between atoms: C_13  and  C_19
REMARK    8  A    between atoms: C_14  and  C_20
REMARK    9  A    between atoms: C_17  and  C_21
REMARK   10  A    between atoms: C_22  and  C_24
REMARK   11  A    between atoms: C_23  and  C_25
REMARK   12  A    between atoms: C_36  and  C_37
REMARK                            x       y       z     vdW  Elec       q    Type
REMARK                         _______ _______ _______ _____ _____    ______ ____
ROOT
ATOM      9  C   UNL     1      -2.744   2.478  23.297  0.00  0.00    +0.000 C 
ATOM     10  C   UNL     1      -1.201   2.347  23.235  0.00  0.00    +0.032 C 
ATOM     11  C   UNL     1      -3.149   3.943  23.514  0.00  0.00    +0.012 C 
ATOM     12  C   UNL     1      -2.558   4.525  24.812  0.00  0.00    +0.024 C 
ATOM     14  C   UNL     1      -1.084   4.203  24.952  0.00  0.00    -0.073 C 
ATOM     15  C   UNL     1      -0.492   3.235  24.230  0.00  0.00    -0.022 C 
ATOM     20  C   UNL     1      -0.294   5.051  25.911  0.00  0.00    +0.039 C 
ENDROOT
BRANCH   9  13
ATOM     13  C   UNL     1      -3.411   1.936  22.029  0.00  0.00    -0.013 C 
ATOM     18  C   UNL     1      -2.378   1.265  21.130  0.00  0.00    +0.007 C 
ATOM     19  C   UNL     1      -4.128   3.058  21.284  0.00  0.00    +0.007 C 
ENDBRANCH   9  13
BRANCH  10  16
ATOM     16  C   UNL     1      -0.759   0.893  23.443  0.00  0.00    +0.112 C 
BRANCH  16   5
ATOM      3  O   UNL     1       1.036  -0.582  21.757  0.00  0.00    -0.270 OA
ATOM      5  N   UNL     1       0.661   0.809  23.577  0.00  0.00    -0.311 N 
ATOM     22  C   UNL     1       1.461   0.066  22.709  0.00  0.00    +0.244 C 
ATOM     38  H   UNL     1       1.082   1.313  24.349  0.00  0.00    +0.149 HD
BRANCH  22  24
ATOM     24  C   UNL     1       2.919   0.058  22.999  0.00  0.00    +0.037 A 
ATOM     26  C   UNL     1       3.688   1.190  22.731  0.00  0.00    +0.015 A 
ATOM     27  C   UNL     1       3.517  -1.082  23.537  0.00  0.00    +0.015 A 
ATOM     28  C   UNL     1       5.056   1.183  23.004  0.00  0.00    +0.024 A 
ATOM     29  C   UNL     1       4.884  -1.088  23.809  0.00  0.00    +0.024 A 
ATOM     32  C   UNL     1       5.655   0.044  23.543  0.00  0.00    +0.033 A 
BRANCH  32   8
ATOM      4  O   UNL     1       7.955  -1.069  21.950  0.00  0.00    -0.276 OA
ATOM      8  N   UNL     1       7.023   0.036  23.813  0.00  0.00    -0.286 N 
ATOM     36  C   UNL     1       8.057  -0.502  23.033  0.00  0.00    +0.214 C 
ATOM     37  C   UNL     1       9.405  -0.304  23.680  0.00  0.00    +0.109 C 
ATOM     39  H   UNL     1       7.296   0.477  24.690  0.00  0.00    +0.155 HD
ENDBRANCH  32   8
ENDBRANCH  22  24
ENDBRANCH  16   5
ENDBRANCH  10  16
BRANCH  12  17
ATOM     17  C   UNL     1      -3.343   4.049  26.039  0.00  0.00    +0.105 C 
BRANCH  17  21
ATOM      2  O   UNL     1      -3.409   1.675  25.478  0.00  0.00    -0.420 OA
ATOM      6  N   UNL     1      -5.425   2.623  25.692  0.00  0.00    -0.112 NA
ATOM      7  N   UNL     1      -5.611   1.290  25.376  0.00  0.00    -0.107 NA
ATOM     21  C   UNL     1      -4.125   2.803  25.740  0.00  0.00    +0.218 A 
ATOM     23  C   UNL     1      -4.408   0.776  25.260  0.00  0.00    +0.251 A 
BRANCH  23  25
ATOM      1  F   UNL     1      -2.208  -0.427  26.513  0.00  0.00    -0.205 F 
ATOM     25  C   UNL     1      -3.993  -0.560  24.947  0.00  0.00    +0.074 A 
ATOM     30  C   UNL     1      -2.892  -1.123  25.593  0.00  0.00    +0.136 A 
ATOM     31  C   UNL     1      -4.692  -1.297  23.992  0.00  0.00    +0.016 A 
ATOM     33  C   UNL     1      -2.490  -2.422  25.283  0.00  0.00    +0.039 A 
ATOM     34  C   UNL     1      -4.292  -2.597  23.682  0.00  0.00    +0.001 A 
ATOM     35  C   UNL     1      -3.191  -3.159  24.328  0.00  0.00    +0.003 A 
ENDBRANCH  23  25
ENDBRANCH  17  21
ENDBRANCH  12  17
TORSDOF 8
ENDMDL
MODEL 3
REMARK VINA RESULT:       3.6      2.006      3.432
REMARK  Name = 45783938
REMARK  12 active torsions:
REMARK  status: ('A' for Active; 'I' for Inactive)
REMARK    1  A    between atoms: N_5  and  C_16
REMARK    2  A    between atoms: N_8  and  C_32
REMARK    3  A    between atoms: C_9  and  C_13
REMARK    4  A    between atoms: C_10  and  C_16
REMARK    5  A    between atoms: C_12  and  C_17
REMARK    6  A    between atoms: C_13  and  C_18
REMARK    7  A    between atoms: C_13  and  C_19
REMARK    8  A    between atoms: C_14  and  C_20
REMARK    9  A    between atoms: C_17  and  C_21
REMARK   10  A    between atoms: C_22  and  C_24
REMARK   11  A    between atoms: C_23  and  C_25
REMARK   12  A    between atoms: C_36  and  C_37
REMARK                            x       y       z     vdW  Elec       q    Type
REMARK                         _______ _______ _______ _____ _____    ______ ____
ROOT
ATOM      9  C   UNL     1      -2.900   2.779  23.401  0.00  0.00    +0.000 C 
ATOM     10  C   UNL     1      -1.508   2.581  24.053  0.00  0.00    +0.032 C 
ATOM     11  C   UNL     1      -3.526   4.101  23.867  0.00  0.00    +0.012 C 
ATOM     12  C   UNL     1      -3.692   4.160  25.398  0.00  0.00    +0.024 C 
ATOM     14  C   UNL     1      -2.434   3.716  26.117  0.00  0.00    -0.073 C 
ATOM     15  C   UNL     1      -1.464   3.023  25.497  0.00  0.00    -0.022 C 
ATOM     20  C   UNL     1      -2.297   4.129  27.557  0.00  0.00    +0.039 C 
ENDROOT
BRANCH   9  13
ATOM     13  C   UNL     1      -2.819   2.754  21.872  0.00  0.00    -0.013 C 
ATOM     18  C   UNL     1      -4.052   3.414  21.263  0.00  0.00    +0.007 C 
ATOM     19  C   UNL     1      -2.671   1.320  21.370  0.00  0.00    +0.007 C 
ENDBRANCH   9  13
BRANCH  10  16
ATOM     16  C   UNL     1      -1.053   1.120  23.953  0.00  0.00    +0.112 C 
BRANCH  16   5
ATOM      3  O   UNL     1       0.531  -0.664  22.355  0.00  0.00    -0.270 OA
ATOM      5  N   UNL     1       0.373   1.034  23.930  0.00  0.00    -0.311 N 
ATOM     22  C   UNL     1       1.065   0.134  23.119  0.00  0.00    +0.244 C 
ATOM     38  H   UNL     1       0.883   1.659  24.544  0.00  0.00    +0.149 HD
BRANCH  22  24
ATOM     24  C   UNL     1       2.547   0.151  23.230  0.00  0.00    +0.037 A 
ATOM     26  C   UNL     1       3.264   1.278  22.829  0.00  0.00    +0.015 A 
ATOM     27  C   UNL     1       3.221  -0.962  23.735  0.00  0.00    +0.015 A 
ATOM     28  C   UNL     1       4.655   1.293  22.934  0.00  0.00    +0.024 A 
ATOM     29  C   UNL     1       4.611  -0.946  23.839  0.00  0.00    +0.024 A 
ATOM     32  C   UNL     1       5.329   0.181  23.439  0.00  0.00    +0.033 A 
BRANCH  32   8
ATOM      4  O   UNL     1       7.418  -1.356  21.909  0.00  0.00    -0.276 OA
ATOM      8  N   UNL     1       6.720   0.195  23.541  0.00  0.00    -0.286 N 
ATOM     36  C   UNL     1       7.650  -0.547  22.801  0.00  0.00    +0.214 C 
ATOM     37  C   UNL     1       9.068  -0.242  23.219  0.00  0.00    +0.109 C 
ATOM     39  H   UNL     1       7.097   0.827  24.246  0.00  0.00    +0.155 HD
ENDBRANCH  32   8
ENDBRANCH  22  24
ENDBRANCH  16   5
ENDBRANCH  10  16
BRANCH  12  17
ATOM     17  C   UNL     1      -4.904   3.340  25.855  0.00  0.00    +0.105 C 
BRANCH  17  21
ATOM      2  O   UNL     1      -3.816   1.184  25.503  0.00  0.00    -0.420 OA
ATOM      6  N   UNL     1      -5.797   1.388  24.483  0.00  0.00    -0.112 NA
ATOM      7  N   UNL     1      -5.299   0.130  24.200  0.00  0.00    -0.107 NA
ATOM     21  C   UNL     1      -4.898   1.968  25.245  0.00  0.00    +0.218 A 
ATOM     23  C   UNL     1      -4.142   0.054  24.816  0.00  0.00    +0.251 A 
BRANCH  23  25
ATOM      1  F   UNL     1      -4.528  -2.361  23.447  0.00  0.00    -0.205 F 
ATOM     25  C   UNL     1      -3.187  -1.014  24.876  0.00  0.00    +0.074 A 
ATOM     30  C   UNL     1      -3.416  -2.200  24.180  0.00  0.00    +0.136 A 
ATOM     31  C   UNL     1      -2.026  -0.864  25.633  0.00  0.00    +0.016 A 
ATOM     33  C   UNL     1      -2.485  -3.237  24.242  0.00  0.00    +0.039 A 
ATOM     34  C   UNL     1      -1.093  -1.900  25.695  0.00  0.00    +0.001 A 
ATOM     35  C   UNL     1      -1.324  -3.086  25.000  0.00  0.00    +0.003 A 
ENDBRANCH  23  25
ENDBRANCH  17  21
ENDBRANCH  12  17
TORSDOF 8
ENDMDL
MODEL 4
REMARK VINA RESULT:       3.8      2.169      5.388
REMARK  Name = 45783938
REMARK  12 active torsions:
REMARK  status: ('A' for Active; 'I' for Inactive)
REMARK    1  A    between atoms: N_5  and  C_16
REMARK    2  A    between atoms: N_8  and  C_32
REMARK    3  A    between atoms: C_9  and  C_13
REMARK    4  A    between atoms: C_10  and  C_16
REMARK    5  A    between atoms: C_12  and  C_17
REMARK    6  A    between atoms: C_13  and  C_18
REMARK    7  A    between atoms: C_13  and  C_19
REMARK    8  A    between atoms: C_14  and  C_20
REMARK    9  A    between atoms: C_17  and  C_21
REMARK   10  A    between atoms: C_22  and  C_24
REMARK   11  A    between atoms: C_23  and  C_25
REMARK   12  A    between atoms: C_36  and  C_37
REMARK                            x       y       z     vdW  Elec       q    Type
REMARK                         _______ _______ _______ _____ _____    ______ ____
ROOT
ATOM      9  C   UNL     1      -1.687  -0.140  25.033  0.00  0.00    +0.000 C 
ATOM     10  C   UNL     1      -1.061  -1.416  24.416  0.00  0.00    +0.032 C 
ATOM     11  C   UNL     1      -2.770  -0.514  26.055  0.00  0.00    +0.012 C 
ATOM     12  C   UNL     1      -3.897  -1.355  25.428  0.00  0.00    +0.024 C 
ATOM     14  C   UNL     1      -3.350  -2.484  24.577  0.00  0.00    -0.073 C 
ATOM     15  C   UNL     1      -2.077  -2.501  24.145  0.00  0.00    -0.022 C 
ATOM     20  C   UNL     1      -4.290  -3.618  24.272  0.00  0.00    +0.039 C 
ENDROOT
BRANCH   9  13
ATOM     13  C   UNL     1      -0.629   0.747  25.698  0.00  0.00    -0.013 C 
ATOM     18  C   UNL     1      -1.274   1.655  26.739  0.00  0.00    +0.007 C 
ATOM     19  C   UNL     1       0.113   1.569  24.649  0.00  0.00    +0.007 C 
ENDBRANCH   9  13
BRANCH  10  16
ATOM     16  C   UNL     1      -0.304  -1.092  23.123  0.00  0.00    +0.112 C 
BRANCH  16   5
ATOM      3  O   UNL     1       1.693  -0.269  21.230  0.00  0.00    -0.270 OA
ATOM      5  N   UNL     1       1.079  -0.851  23.392  0.00  0.00    -0.311 N 
ATOM     22  C   UNL     1       1.984  -0.452  22.409  0.00  0.00    +0.244 C 
ATOM     38  H   UNL     1       1.394  -0.991  24.345  0.00  0.00    +0.149 HD
BRANCH  22  24
ATOM     24  C   UNL     1       3.393  -0.268  22.844  0.00  0.00    +0.037 A 
ATOM     26  C   UNL     1       4.031   0.956  22.642  0.00  0.00    +0.015 A 
ATOM     27  C   UNL     1       4.077  -1.319  23.455  0.00  0.00    +0.015 A 
ATOM     28  C   UNL     1       5.353   1.129  23.052  0.00  0.00    +0.024 A 
ATOM     29  C   UNL     1       5.399  -1.146  23.864  0.00  0.00    +0.024 A 
ATOM     32  C   UNL     1       6.038   0.078  23.663  0.00  0.00    +0.033 A 
BRANCH  32   8
ATOM      4  O   UNL     1       8.616  -0.671  22.300  0.00  0.00    -0.276 OA
ATOM      8  N   UNL     1       7.360   0.250  24.070  0.00  0.00    -0.286 N 
ATOM     36  C   UNL     1       8.530  -0.122  23.393  0.00  0.00    +0.214 C 
ATOM     37  C   UNL     1       9.768   0.241  24.176  0.00  0.00    +0.109 C 
ATOM     39  H   UNL     1       7.481   0.702  24.975  0.00  0.00    +0.155 HD
ENDBRANCH  32   8
ENDBRANCH  22  24
ENDBRANCH  16   5
ENDBRANCH  10  16
BRANCH  12  17
ATOM     17  C   UNL     1      -4.859  -0.477  24.620  0.00  0.00    +0.105 C 
BRANCH  17  21
ATOM      2  O   UNL     1      -3.605   1.617  24.608  0.00  0.00    -0.420 OA
ATOM      6  N   UNL     1      -5.564   1.730  25.681  0.00  0.00    -0.112 NA
ATOM      7  N   UNL     1      -4.966   2.974  25.752  0.00  0.00    -0.107 NA
ATOM     21  C   UNL     1      -4.734   0.970  25.005  0.00  0.00    +0.218 A 
ATOM     23  C   UNL     1      -3.825   2.862  25.112  0.00  0.00    +0.251 A 
BRANCH  23  25
ATOM      1  F   UNL     1      -1.980   2.571  23.023  0.00  0.00    -0.205 F 
ATOM     25  C   UNL     1      -2.796   3.829  24.868  0.00  0.00    +0.074 A 
ATOM     30  C   UNL     1      -1.897   3.648  23.818  0.00  0.00    +0.136 A 
ATOM     31  C   UNL     1      -2.695   4.955  25.685  0.00  0.00    +0.016 A 
ATOM     33  C   UNL     1      -0.895   4.591  23.585  0.00  0.00    +0.039 A 
ATOM     34  C   UNL     1      -1.694   5.900  25.452  0.00  0.00    +0.001 A 
ATOM     35  C   UNL     1      -0.795   5.717  24.402  0.00  0.00    +0.003 A 
ENDBRANCH  23  25
ENDBRANCH  17  21
ENDBRANCH  12  17
TORSDOF 8
ENDMDL
