MODEL 1
REMARK VINA RESULT:       8.4      0.000      0.000
REMARK  Name = 11882073
REMARK  10 active torsions:
REMARK  status: ('A' for Active; 'I' for Inactive)
REMARK    1  A    between atoms: O_6  and  C_35
REMARK    2  A    between atoms: O_6  and  C_38
REMARK    3  A    between atoms: N_8  and  C_14
REMARK    4  A    between atoms: N_9  and  C_20
REMARK    5  A    between atoms: N_10  and  C_27
REMARK    6  A    between atoms: C_15  and  C_18
REMARK    7  A    between atoms: C_19  and  C_22
REMARK    8  A    between atoms: C_20  and  C_23
REMARK    9  A    between atoms: C_20  and  C_24
REMARK   10  A    between atoms: C_23  and  C_26
REMARK                            x       y       z     vdW  Elec       q    Type
REMARK                         _______ _______ _______ _____ _____    ______ ____
ROOT
ATOM      3  O   UNL     1      -0.798   4.257  25.398  0.00  0.00    -0.268 OA
ATOM      7  N   UNL     1      -0.777   1.960  25.014  0.00  0.00    -0.283 N 
ATOM     14  C   UNL     1      -0.725   0.632  23.051  0.00  0.00    +0.105 C 
ATOM     15  C   UNL     1      -1.071   2.020  23.587  0.00  0.00    +0.182 C 
ATOM     16  C   UNL     1      -0.937  -0.280  24.261  0.00  0.00    +0.043 C 
ATOM     17  C   UNL     1      -0.524   0.586  25.445  0.00  0.00    +0.111 C 
ATOM     19  C   UNL     1      -0.582   3.107  25.772  0.00  0.00    +0.267 C 
ENDROOT
BRANCH  14   8
ATOM      4  O   UNL     1       1.485  -0.584  24.411  0.00  0.00    -0.252 OA
ATOM      8  N   UNL     1       0.644   0.574  22.595  0.00  0.00    -0.294 N 
ATOM     10  N   UNL     1       2.881   0.059  22.636  0.00  0.00    -0.269 N 
ATOM     21  C   UNL     1       1.668  -0.042  23.324  0.00  0.00    +0.304 C 
ATOM     39  H   UNL     1       0.863   0.941  21.674  0.00  0.00    +0.151 HD
ATOM     41  H   UNL     1       2.860   0.543  21.743  0.00  0.00    +0.156 HD
BRANCH  10  27
ATOM     27  C   UNL     1       4.146  -0.433  23.032  0.00  0.00    +0.038 A 
ATOM     30  C   UNL     1       5.304   0.269  22.700  0.00  0.00    +0.069 A 
ATOM     32  C   UNL     1       4.235  -1.622  23.756  0.00  0.00    +0.023 A 
ATOM     35  C   UNL     1       6.551  -0.217  23.092  0.00  0.00    +0.122 A 
ATOM     36  C   UNL     1       5.482  -2.109  24.149  0.00  0.00    +0.005 A 
ATOM     37  C   UNL     1       6.640  -1.406  23.815  0.00  0.00    +0.046 A 
BRANCH  35   6
ATOM      6  O   UNL     1       7.681   0.469  22.768  0.00  0.00    -0.495 OA
ATOM     38  C   UNL     1       8.928  -0.125  23.127  0.00  0.00    +0.277 C 
ENDBRANCH  35   6
ENDBRANCH  10  27
ENDBRANCH  14   8
BRANCH  19  22
ATOM     11  N   UNL     1       1.256   2.703  27.258  0.00  0.00    -0.247 NA
ATOM     13  N   UNL     1      -0.438   2.828  29.488  0.00  0.00    -0.259 NA
ATOM     22  C   UNL     1      -0.066   2.929  27.137  0.00  0.00    +0.144 A 
ATOM     25  C   UNL     1      -0.899   2.990  28.232  0.00  0.00    +0.143 A 
ATOM     29  C   UNL     1       1.718   2.540  28.514  0.00  0.00    +0.131 A 
ATOM     31  C   UNL     1       0.885   2.601  29.610  0.00  0.00    +0.130 A 
ENDBRANCH  19  22
BRANCH  15  18
ATOM      2  O   UNL     1      -3.025   2.781  22.446  0.00  0.00    -0.274 OA
ATOM      9  N   UNL     1      -3.226   2.010  24.633  0.00  0.00    -0.302 N 
ATOM     18  C   UNL     1      -2.538   2.310  23.470  0.00  0.00    +0.236 C 
ATOM     40  H   UNL     1      -2.702   1.701  25.447  0.00  0.00    +0.150 HD
BRANCH   9  20
ATOM     20  C   UNL     1      -4.647   2.220  24.787  0.00  0.00    +0.163 C 
BRANCH  20  24
ATOM      5  O   UNL     1      -3.893   4.017  26.239  0.00  0.00    -0.274 OA
ATOM     12  N   UNL     1      -6.140   3.825  25.805  0.00  0.00    -0.328 N 
ATOM     24  C   UNL     1      -4.824   3.428  25.696  0.00  0.00    +0.231 C 
ATOM     42  H   UNL     1      -6.396   4.628  26.369  0.00  0.00    +0.145 HD
ATOM     43  H   UNL     1      -6.901   3.330  25.347  0.00  0.00    +0.145 HD
ENDBRANCH  20  24
BRANCH  20  23
ATOM     23  C   UNL     1      -5.355   0.996  25.381  0.00  0.00    +0.074 C 
BRANCH  23  26
ATOM      1  S   UNL     1      -3.711  -1.093  26.215  0.00  0.00    -0.102 S 
ATOM     26  C   UNL     1      -4.657  -0.297  25.030  0.00  0.00    -0.008 A 
ATOM     28  C   UNL     1      -4.664  -0.977  23.832  0.00  0.00    +0.011 A 
ATOM     33  C   UNL     1      -3.883  -2.167  23.888  0.00  0.00    +0.008 A 
ATOM     34  C   UNL     1      -3.307  -2.351  25.126  0.00  0.00    +0.045 A 
ENDBRANCH  23  26
ENDBRANCH  20  23
ENDBRANCH   9  20
ENDBRANCH  15  18
TORSDOF 9
ENDMDL
MODEL 2
REMARK VINA RESULT:       8.7      2.524      4.734
REMARK  Name = 11882073
REMARK  10 active torsions:
REMARK  status: ('A' for Active; 'I' for Inactive)
REMARK    1  A    between atoms: O_6  and  C_35
REMARK    2  A    between atoms: O_6  and  C_38
REMARK    3  A    between atoms: N_8  and  C_14
REMARK    4  A    between atoms: N_9  and  C_20
REMARK    5  A    between atoms: N_10  and  C_27
REMARK    6  A    between atoms: C_15  and  C_18
REMARK    7  A    between atoms: C_19  and  C_22
REMARK    8  A    between atoms: C_20  and  C_23
REMARK    9  A    between atoms: C_20  and  C_24
REMARK   10  A    between atoms: C_23  and  C_26
REMARK                            x       y       z     vdW  Elec       q    Type
REMARK                         _______ _______ _______ _____ _____    ______ ____
ROOT
ATOM      3  O   UNL     1      -2.069  -0.680  26.322  0.00  0.00    -0.268 OA
ATOM      7  N   UNL     1      -2.253   0.579  24.371  0.00  0.00    -0.283 N 
ATOM     14  C   UNL     1      -1.168   2.531  23.577  0.00  0.00    +0.105 C 
ATOM     15  C   UNL     1      -1.498   1.736  24.839  0.00  0.00    +0.182 C 
ATOM     16  C   UNL     1      -2.310   2.176  22.623  0.00  0.00    +0.043 C 
ATOM     17  C   UNL     1      -2.633   0.727  22.967  0.00  0.00    +0.111 C 
ATOM     19  C   UNL     1      -2.393  -0.568  25.142  0.00  0.00    +0.267 C 
ENDROOT
BRANCH  14   8
ATOM      4  O   UNL     1       0.737   0.760  24.778  0.00  0.00    -0.252 OA
ATOM      8  N   UNL     1       0.106   2.133  23.028  0.00  0.00    -0.294 N 
ATOM     10  N   UNL     1       2.132   1.059  22.914  0.00  0.00    -0.269 N 
ATOM     21  C   UNL     1       0.983   1.260  23.683  0.00  0.00    +0.304 C 
ATOM     39  H   UNL     1       0.352   2.450  22.095  0.00  0.00    +0.151 HD
ATOM     41  H   UNL     1       2.179   1.552  22.026  0.00  0.00    +0.156 HD
BRANCH  10  27
ATOM     27  C   UNL     1       3.251   0.251  23.221  0.00  0.00    +0.038 A 
ATOM     30  C   UNL     1       4.537   0.789  23.171  0.00  0.00    +0.069 A 
ATOM     32  C   UNL     1       3.068  -1.086  23.574  0.00  0.00    +0.023 A 
ATOM     35  C   UNL     1       5.639  -0.009  23.474  0.00  0.00    +0.122 A 
ATOM     36  C   UNL     1       4.171  -1.885  23.878  0.00  0.00    +0.005 A 
ATOM     37  C   UNL     1       5.457  -1.346  23.827  0.00  0.00    +0.046 A 
BRANCH  35   6
ATOM      6  O   UNL     1       6.894   0.516  23.426  0.00  0.00    -0.495 OA
ATOM     38  C   UNL     1       7.951  -0.360  23.038  0.00  0.00    +0.277 C 
ENDBRANCH  35   6
ENDBRANCH  10  27
ENDBRANCH  14   8
BRANCH  19  22
ATOM     11  N   UNL     1      -2.128  -2.769  24.230  0.00  0.00    -0.247 NA
ATOM     13  N   UNL     1      -4.847  -2.884  23.554  0.00  0.00    -0.259 NA
ATOM     22  C   UNL     1      -2.970  -1.750  24.487  0.00  0.00    +0.144 A 
ATOM     25  C   UNL     1      -4.306  -1.806  24.156  0.00  0.00    +0.143 A 
ATOM     29  C   UNL     1      -2.668  -3.847  23.628  0.00  0.00    +0.131 A 
ATOM     31  C   UNL     1      -4.004  -3.904  23.296  0.00  0.00    +0.130 A 
ENDBRANCH  19  22
BRANCH  15  18
ATOM      2  O   UNL     1      -1.989   3.138  26.708  0.00  0.00    -0.274 OA
ATOM      9  N   UNL     1      -3.744   2.359  25.392  0.00  0.00    -0.302 N 
ATOM     18  C   UNL     1      -2.414   2.497  25.751  0.00  0.00    +0.236 C 
ATOM     40  H   UNL     1      -3.984   1.735  24.627  0.00  0.00    +0.150 HD
BRANCH   9  20
ATOM     20  C   UNL     1      -4.828   2.974  26.123  0.00  0.00    +0.163 C 
BRANCH  20  24
ATOM      5  O   UNL     1      -6.419   1.748  24.755  0.00  0.00    -0.274 OA
ATOM     12  N   UNL     1      -6.744   1.811  27.027  0.00  0.00    -0.328 N 
ATOM     24  C   UNL     1      -6.072   2.135  25.868  0.00  0.00    +0.231 C 
ATOM     42  H   UNL     1      -7.583   1.241  27.000  0.00  0.00    +0.145 HD
ATOM     43  H   UNL     1      -6.445   2.135  27.942  0.00  0.00    +0.145 HD
ENDBRANCH  20  24
BRANCH  20  23
ATOM     23  C   UNL     1      -5.067   4.427  25.696  0.00  0.00    +0.074 C 
BRANCH  23  26
ATOM      1  S   UNL     1      -3.673   5.368  23.475  0.00  0.00    -0.102 S 
ATOM     26  C   UNL     1      -3.815   5.080  25.157  0.00  0.00    -0.008 A 
ATOM     28  C   UNL     1      -2.704   5.506  25.850  0.00  0.00    +0.011 A 
ATOM     33  C   UNL     1      -1.723   6.076  24.989  0.00  0.00    +0.008 A 
ATOM     34  C   UNL     1      -2.120   6.063  23.671  0.00  0.00    +0.045 A 
ENDBRANCH  23  26
ENDBRANCH  20  23
ENDBRANCH   9  20
ENDBRANCH  15  18
TORSDOF 9
ENDMDL
MODEL 3
REMARK VINA RESULT:       9.4      2.344      4.182
REMARK  Name = 11882073
REMARK  10 active torsions:
REMARK  status: ('A' for Active; 'I' for Inactive)
REMARK    1  A    between atoms: O_6  and  C_35
REMARK    2  A    between atoms: O_6  and  C_38
REMARK    3  A    between atoms: N_8  and  C_14
REMARK    4  A    between atoms: N_9  and  C_20
REMARK    5  A    between atoms: N_10  and  C_27
REMARK    6  A    between atoms: C_15  and  C_18
REMARK    7  A    between atoms: C_19  and  C_22
REMARK    8  A    between atoms: C_20  and  C_23
REMARK    9  A    between atoms: C_20  and  C_24
REMARK   10  A    between atoms: C_23  and  C_26
REMARK                            x       y       z     vdW  Elec       q    Type
REMARK                         _______ _______ _______ _____ _____    ______ ____
ROOT
ATOM      3  O   UNL     1      -1.808  -0.270  26.302  0.00  0.00    -0.268 OA
ATOM      7  N   UNL     1      -1.835   0.664  24.168  0.00  0.00    -0.283 N 
ATOM     14  C   UNL     1      -0.432   2.209  23.043  0.00  0.00    +0.105 C 
ATOM     15  C   UNL     1      -0.852   1.711  24.426  0.00  0.00    +0.182 C 
ATOM     16  C   UNL     1      -1.662   1.934  22.177  0.00  0.00    +0.043 C 
ATOM     17  C   UNL     1      -2.242   0.653  22.764  0.00  0.00    +0.111 C 
ATOM     19  C   UNL     1      -2.156  -0.291  25.124  0.00  0.00    +0.267 C 
ENDROOT
BRANCH  14   8
ATOM      4  O   UNL     1       1.746   1.196  24.604  0.00  0.00    -0.252 OA
ATOM      8  N   UNL     1       0.717   1.485  22.554  0.00  0.00    -0.294 N 
ATOM     10  N   UNL     1       2.716   0.359  22.637  0.00  0.00    -0.269 N 
ATOM     21  C   UNL     1       1.742   1.023  23.388  0.00  0.00    +0.304 C 
ATOM     39  H   UNL     1       0.753   1.242  21.569  0.00  0.00    +0.151 HD
ATOM     41  H   UNL     1       2.560   0.304  21.634  0.00  0.00    +0.156 HD
BRANCH  10  27
ATOM     27  C   UNL     1       3.904  -0.249  23.103  0.00  0.00    +0.038 A 
ATOM     30  C   UNL     1       5.115   0.440  23.036  0.00  0.00    +0.069 A 
ATOM     32  C   UNL     1       3.866  -1.540  23.630  0.00  0.00    +0.023 A 
ATOM     35  C   UNL     1       6.286  -0.161  23.495  0.00  0.00    +0.122 A 
ATOM     36  C   UNL     1       5.037  -2.142  24.090  0.00  0.00    +0.005 A 
ATOM     37  C   UNL     1       6.248  -1.452  24.022  0.00  0.00    +0.046 A 
BRANCH  35   6
ATOM      6  O   UNL     1       7.468   0.512  23.431  0.00  0.00    -0.495 OA
ATOM     38  C   UNL     1       8.627  -0.242  23.080  0.00  0.00    +0.277 C 
ENDBRANCH  35   6
ENDBRANCH  10  27
ENDBRANCH  14   8
BRANCH  19  22
ATOM     11  N   UNL     1      -2.418  -2.649  24.779  0.00  0.00    -0.247 NA
ATOM     13  N   UNL     1      -5.018  -2.279  23.796  0.00  0.00    -0.259 NA
ATOM     22  C   UNL     1      -2.978  -1.428  24.685  0.00  0.00    +0.144 A 
ATOM     25  C   UNL     1      -4.256  -1.245  24.202  0.00  0.00    +0.143 A 
ATOM     29  C   UNL     1      -3.181  -3.683  24.373  0.00  0.00    +0.131 A 
ATOM     31  C   UNL     1      -4.459  -3.502  23.890  0.00  0.00    +0.130 A 
ENDBRANCH  19  22
BRANCH  15  18
ATOM      2  O   UNL     1      -1.477   2.849  26.429  0.00  0.00    -0.274 OA
ATOM      9  N   UNL     1      -2.316   3.607  24.394  0.00  0.00    -0.302 N 
ATOM     18  C   UNL     1      -1.564   2.776  25.206  0.00  0.00    +0.236 C 
ATOM     40  H   UNL     1      -2.376   3.400  23.401  0.00  0.00    +0.150 HD
BRANCH   9  20
ATOM     20  C   UNL     1      -3.114   4.699  24.903  0.00  0.00    +0.163 C 
BRANCH  20  24
ATOM      5  O   UNL     1      -2.501   6.888  25.763  0.00  0.00    -0.274 OA
ATOM     12  N   UNL     1      -0.853   5.553  24.881  0.00  0.00    -0.328 N 
ATOM     24  C   UNL     1      -2.159   5.840  25.221  0.00  0.00    +0.231 C 
ATOM     42  H   UNL     1      -0.112   6.223  25.054  0.00  0.00    +0.145 HD
ATOM     43  H   UNL     1      -0.583   4.681  24.435  0.00  0.00    +0.145 HD
ENDBRANCH  20  24
BRANCH  20  23
ATOM     23  C   UNL     1      -3.909   4.304  26.154  0.00  0.00    +0.074 C 
BRANCH  23  26
ATOM      1  S   UNL     1      -5.071   2.599  24.282  0.00  0.00    -0.102 S 
ATOM     26  C   UNL     1      -4.918   3.215  25.873  0.00  0.00    -0.008 A 
ATOM     28  C   UNL     1      -5.786   2.603  26.750  0.00  0.00    +0.011 A 
ATOM     33  C   UNL     1      -6.588   1.616  26.107  0.00  0.00    +0.008 A 
ATOM     34  C   UNL     1      -6.303   1.511  24.764  0.00  0.00    +0.045 A 
ENDBRANCH  23  26
ENDBRANCH  20  23
ENDBRANCH   9  20
ENDBRANCH  15  18
TORSDOF 9
ENDMDL
MODEL 4
REMARK VINA RESULT:      11.3      2.693      4.970
REMARK  Name = 11882073
REMARK  10 active torsions:
REMARK  status: ('A' for Active; 'I' for Inactive)
REMARK    1  A    between atoms: O_6  and  C_35
REMARK    2  A    between atoms: O_6  and  C_38
REMARK    3  A    between atoms: N_8  and  C_14
REMARK    4  A    between atoms: N_9  and  C_20
REMARK    5  A    between atoms: N_10  and  C_27
REMARK    6  A    between atoms: C_15  and  C_18
REMARK    7  A    between atoms: C_19  and  C_22
REMARK    8  A    between atoms: C_20  and  C_23
REMARK    9  A    between atoms: C_20  and  C_24
REMARK   10  A    between atoms: C_23  and  C_26
REMARK                            x       y       z     vdW  Elec       q    Type
REMARK                         _______ _______ _______ _____ _____    ______ ____
ROOT
ATOM      3  O   UNL     1      -2.039  -0.766  26.265  0.00  0.00    -0.268 OA
ATOM      7  N   UNL     1      -2.306   0.491  24.322  0.00  0.00    -0.283 N 
ATOM     14  C   UNL     1      -1.248   2.435  23.475  0.00  0.00    +0.105 C 
ATOM     15  C   UNL     1      -1.524   1.644  24.753  0.00  0.00    +0.182 C 
ATOM     16  C   UNL     1      -2.435   2.085  22.576  0.00  0.00    +0.043 C 
ATOM     17  C   UNL     1      -2.750   0.639  22.937  0.00  0.00    +0.111 C 
ATOM     19  C   UNL     1      -2.416  -0.654  25.101  0.00  0.00    +0.267 C 
ENDROOT
BRANCH  14   8
ATOM      4  O   UNL     1       1.063   1.416  24.826  0.00  0.00    -0.252 OA
ATOM      8  N   UNL     1      -0.003   2.030  22.869  0.00  0.00    -0.294 N 
ATOM     10  N   UNL     1       2.146   1.230  22.752  0.00  0.00    -0.269 N 
ATOM     21  C   UNL     1       1.083   1.540  23.605  0.00  0.00    +0.304 C 
ATOM     39  H   UNL     1       0.069   2.039  21.856  0.00  0.00    +0.151 HD
ATOM     41  H   UNL     1       1.999   1.394  21.760  0.00  0.00    +0.156 HD
BRANCH  10  27
ATOM     27  C   UNL     1       3.415   0.712  23.101  0.00  0.00    +0.038 A 
ATOM     30  C   UNL     1       3.570  -0.654  23.341  0.00  0.00    +0.069 A 
ATOM     32  C   UNL     1       4.512   1.567  23.207  0.00  0.00    +0.023 A 
ATOM     35  C   UNL     1       4.822  -1.163  23.686  0.00  0.00    +0.122 A 
ATOM     36  C   UNL     1       5.764   1.058  23.551  0.00  0.00    +0.005 A 
ATOM     37  C   UNL     1       5.919  -0.307  23.791  0.00  0.00    +0.046 A 
BRANCH  35   6
ATOM      6  O   UNL     1       4.973  -2.495  23.919  0.00  0.00    -0.495 OA
ATOM     38  C   UNL     1       3.905  -3.164  24.589  0.00  0.00    +0.277 C 
ENDBRANCH  35   6
ENDBRANCH  10  27
ENDBRANCH  14   8
BRANCH  19  22
ATOM     11  N   UNL     1      -2.221  -2.889  24.258  0.00  0.00    -0.247 NA
ATOM     13  N   UNL     1      -4.937  -2.928  23.559  0.00  0.00    -0.259 NA
ATOM     22  C   UNL     1      -3.029  -1.834  24.476  0.00  0.00    +0.144 A 
ATOM     25  C   UNL     1      -4.363  -1.852  24.133  0.00  0.00    +0.143 A 
ATOM     29  C   UNL     1      -2.795  -3.965  23.683  0.00  0.00    +0.131 A 
ATOM     31  C   UNL     1      -4.129  -3.985  23.340  0.00  0.00    +0.130 A 
ENDBRANCH  19  22
BRANCH  15  18
ATOM      2  O   UNL     1      -1.925   3.013  26.667  0.00  0.00    -0.274 OA
ATOM      9  N   UNL     1      -3.734   2.329  25.372  0.00  0.00    -0.302 N 
ATOM     18  C   UNL     1      -2.393   2.412  25.704  0.00  0.00    +0.236 C 
ATOM     40  H   UNL     1      -4.012   1.734  24.597  0.00  0.00    +0.150 HD
BRANCH   9  20
ATOM     20  C   UNL     1      -4.780   2.962  26.143  0.00  0.00    +0.163 C 
BRANCH  20  24
ATOM      5  O   UNL     1      -6.432   1.786  24.803  0.00  0.00    -0.274 OA
ATOM     12  N   UNL     1      -6.715   1.857  27.081  0.00  0.00    -0.328 N 
ATOM     24  C   UNL     1      -6.053   2.162  25.909  0.00  0.00    +0.231 C 
ATOM     42  H   UNL     1      -7.571   1.313  27.068  0.00  0.00    +0.145 HD
ATOM     43  H   UNL     1      -6.389   2.171  27.990  0.00  0.00    +0.145 HD
ENDBRANCH  20  24
BRANCH  20  23
ATOM     23  C   UNL     1      -4.990   4.428  25.746  0.00  0.00    +0.074 C 
BRANCH  23  26
ATOM      1  S   UNL     1      -3.647   5.371  23.495  0.00  0.00    -0.102 S 
ATOM     26  C   UNL     1      -3.738   5.052  25.175  0.00  0.00    -0.008 A 
ATOM     28  C   UNL     1      -2.589   5.429  25.835  0.00  0.00    +0.011 A 
ATOM     33  C   UNL     1      -1.622   5.986  24.950  0.00  0.00    +0.008 A 
ATOM     34  C   UNL     1      -2.067   6.013  23.647  0.00  0.00    +0.045 A 
ENDBRANCH  23  26
ENDBRANCH  20  23
ENDBRANCH   9  20
ENDBRANCH  15  18
TORSDOF 9
ENDMDL
MODEL 5
REMARK VINA RESULT:      12.1      2.461      4.385
REMARK  Name = 11882073
REMARK  10 active torsions:
REMARK  status: ('A' for Active; 'I' for Inactive)
REMARK    1  A    between atoms: O_6  and  C_35
REMARK    2  A    between atoms: O_6  and  C_38
REMARK    3  A    between atoms: N_8  and  C_14
REMARK    4  A    between atoms: N_9  and  C_20
REMARK    5  A    between atoms: N_10  and  C_27
REMARK    6  A    between atoms: C_15  and  C_18
REMARK    7  A    between atoms: C_19  and  C_22
REMARK    8  A    between atoms: C_20  and  C_23
REMARK    9  A    between atoms: C_20  and  C_24
REMARK   10  A    between atoms: C_23  and  C_26
REMARK                            x       y       z     vdW  Elec       q    Type
REMARK                         _______ _______ _______ _____ _____    ______ ____
ROOT
ATOM      3  O   UNL     1      -1.879  -0.340  26.616  0.00  0.00    -0.268 OA
ATOM      7  N   UNL     1      -1.007   0.289  24.550  0.00  0.00    -0.283 N 
ATOM     14  C   UNL     1       0.976   1.405  23.884  0.00  0.00    +0.105 C 
ATOM     15  C   UNL     1       0.031   1.177  25.063  0.00  0.00    +0.182 C 
ATOM     16  C   UNL     1       0.071   1.232  22.663  0.00  0.00    +0.043 C 
ATOM     17  C   UNL     1      -0.922   0.160  23.096  0.00  0.00    +0.111 C 
ATOM     19  C   UNL     1      -1.816  -0.459  25.394  0.00  0.00    +0.267 C 
ENDROOT
BRANCH  14   8
ATOM      4  O   UNL     1       3.694   1.859  23.102  0.00  0.00    -0.252 OA
ATOM      8  N   UNL     1       2.045   0.436  23.877  0.00  0.00    -0.294 N 
ATOM     10  N   UNL     1       4.166  -0.391  23.577  0.00  0.00    -0.269 N 
ATOM     21  C   UNL     1       3.352   0.741  23.478  0.00  0.00    +0.304 C 
ATOM     39  H   UNL     1       1.858  -0.495  24.239  0.00  0.00    +0.151 HD
ATOM     41  H   UNL     1       3.723  -1.245  23.907  0.00  0.00    +0.156 HD
BRANCH  10  27
ATOM     27  C   UNL     1       5.542  -0.499  23.269  0.00  0.00    +0.038 A 
ATOM     30  C   UNL     1       6.444   0.443  23.764  0.00  0.00    +0.069 A 
ATOM     32  C   UNL     1       5.997  -1.548  22.471  0.00  0.00    +0.023 A 
ATOM     35  C   UNL     1       7.800   0.336  23.460  0.00  0.00    +0.122 A 
ATOM     36  C   UNL     1       7.354  -1.656  22.167  0.00  0.00    +0.005 A 
ATOM     37  C   UNL     1       8.256  -0.713  22.662  0.00  0.00    +0.046 A 
BRANCH  35   6
ATOM      6  O   UNL     1       8.681   1.254  23.943  0.00  0.00    -0.495 OA
ATOM     38  C   UNL     1      10.009   0.806  24.207  0.00  0.00    +0.277 C 
ENDBRANCH  35   6
ENDBRANCH  10  27
ENDBRANCH  14   8
BRANCH  19  22
ATOM     11  N   UNL     1      -3.896  -1.101  24.389  0.00  0.00    -0.247 NA
ATOM     13  N   UNL     1      -2.984  -3.728  24.033  0.00  0.00    -0.259 NA
ATOM     22  C   UNL     1      -2.664  -1.486  24.774  0.00  0.00    +0.144 A 
ATOM     25  C   UNL     1      -2.215  -2.777  24.599  0.00  0.00    +0.143 A 
ATOM     29  C   UNL     1      -4.665  -2.052  23.823  0.00  0.00    +0.131 A 
ATOM     31  C   UNL     1      -4.217  -3.343  23.648  0.00  0.00    +0.130 A 
ENDBRANCH  19  22
BRANCH  15  18
ATOM      2  O   UNL     1      -0.473   2.958  26.571  0.00  0.00    -0.274 OA
ATOM      9  N   UNL     1      -1.521   2.911  24.493  0.00  0.00    -0.302 N 
ATOM     18  C   UNL     1      -0.661   2.443  25.472  0.00  0.00    +0.236 C 
ATOM     40  H   UNL     1      -1.657   2.356  23.654  0.00  0.00    +0.150 HD
BRANCH   9  20
ATOM     20  C   UNL     1      -2.324   4.102  24.650  0.00  0.00    +0.163 C 
BRANCH  20  24
ATOM      5  O   UNL     1      -1.646   6.334  25.331  0.00  0.00    -0.274 OA
ATOM     12  N   UNL     1      -0.118   5.004  24.250  0.00  0.00    -0.328 N 
ATOM     24  C   UNL     1      -1.363   5.275  24.778  0.00  0.00    +0.231 C 
ATOM     42  H   UNL     1       0.623   5.696  24.284  0.00  0.00    +0.145 HD
ATOM     43  H   UNL     1       0.105   4.122  23.798  0.00  0.00    +0.145 HD
ENDBRANCH  20  24
BRANCH  20  23
ATOM     23  C   UNL     1      -3.242   4.027  25.876  0.00  0.00    +0.074 C 
BRANCH  23  26
ATOM      1  S   UNL     1      -4.591   2.299  24.157  0.00  0.00    -0.102 S 
ATOM     26  C   UNL     1      -4.444   3.143  25.640  0.00  0.00    -0.008 A 
ATOM     28  C   UNL     1      -5.506   2.896  26.482  0.00  0.00    +0.011 A 
ATOM     33  C   UNL     1      -6.451   2.001  25.903  0.00  0.00    +0.008 A 
ATOM     34  C   UNL     1      -6.077   1.599  24.640  0.00  0.00    +0.045 A 
ENDBRANCH  23  26
ENDBRANCH  20  23
ENDBRANCH   9  20
ENDBRANCH  15  18
TORSDOF 9
ENDMDL
