MODEL 1
REMARK VINA RESULT:      -2.7      0.000      0.000
REMARK  Name = 11912767
REMARK  5 active torsions:
REMARK  status: ('A' for Active; 'I' for Inactive)
REMARK    1  A    between atoms: O_3  and  C_14
REMARK    2  A    between atoms: O_3  and  C_18
REMARK    3  A    between atoms: N_7  and  C_13
REMARK    4  A    between atoms: N_10  and  C_23
REMARK    5  A    between atoms: C_19  and  C_22
REMARK                            x       y       z     vdW  Elec       q    Type
REMARK                         _______ _______ _______ _____ _____    ______ ____
ROOT
ATOM      1  O   UNL     1      -1.774   2.290  25.386  0.00  0.00    -0.368 OA
ATOM      2  O   UNL     1      -0.563   4.866  24.238  0.00  0.00    -0.368 OA
ATOM     11  C   UNL     1      -1.934   4.439  24.394  0.00  0.00    +0.173 C 
ATOM     12  C   UNL     1      -1.962   2.948  24.122  0.00  0.00    +0.192 C 
ATOM     13  C   UNL     1      -2.350   4.554  25.842  0.00  0.00    +0.130 C 
ATOM     14  C   UNL     1      -0.772   2.758  23.211  0.00  0.00    +0.235 C 
ATOM     15  C   UNL     1      -1.807   3.267  26.439  0.00  0.00    +0.185 C 
ATOM     16  C   UNL     1       0.217   3.757  23.767  0.00  0.00    +0.207 C 
ENDROOT
BRANCH  13   7
ATOM      7  N   UNL     1      -3.792   4.588  25.949  0.00  0.00    -0.306 N 
ATOM      8  N   UNL     1      -3.995   2.310  25.423  0.00  0.00    -0.214 NA
ATOM      9  N   UNL     1      -5.943   3.653  25.878  0.00  0.00    -0.223 NA
ATOM     17  C   UNL     1      -4.601   3.484  25.745  0.00  0.00    +0.216 A 
ATOM     19  C   UNL     1      -4.813   1.255  25.231  0.00  0.00    +0.076 A 
ATOM     20  C   UNL     1      -6.703   2.557  25.672  0.00  0.00    +0.116 A 
ATOM     21  C   UNL     1      -6.188   1.319  25.343  0.00  0.00    +0.048 A 
ATOM     35  H   UNL     1      -4.250   5.445  26.240  0.00  0.00    +0.149 HD
BRANCH  19  22
ATOM      5  O   UNL     1      -0.960  -1.768  25.237  0.00  0.00    -0.453 OA
ATOM      6  O   UNL     1      -2.148  -3.454  23.992  0.00  0.00    -0.453 OA
ATOM     22  C   UNL     1      -4.150   0.019  24.892  0.00  0.00    +0.004 A 
ATOM     24  C   UNL     1      -2.825  -0.193  25.289  0.00  0.00    +0.059 A 
ATOM     25  C   UNL     1      -4.841  -0.969  24.165  0.00  0.00    +0.014 A 
ATOM     26  C   UNL     1      -2.234  -1.390  24.941  0.00  0.00    +0.167 A 
ATOM     29  C   UNL     1      -2.912  -2.354  24.230  0.00  0.00    +0.166 A 
ATOM     30  C   UNL     1      -4.219  -2.173  23.826  0.00  0.00    +0.050 A 
ATOM     31  C   UNL     1      -0.913  -3.076  24.633  0.00  0.00    +0.466 C 
ENDBRANCH  19  22
ENDBRANCH  13   7
BRANCH  14   3
ATOM      3  O   UNL     1      -0.261   1.444  23.219  0.00  0.00    -0.442 OA
BRANCH   3  18
ATOM      4  O   UNL     1       1.197   1.661  24.966  0.00  0.00    -0.226 OA
ATOM     10  N   UNL     1       1.799   0.556  22.992  0.00  0.00    -0.251 N 
ATOM     18  C   UNL     1       0.956   1.253  23.837  0.00  0.00    +0.405 C 
ATOM     36  H   UNL     1       1.414   0.301  22.086  0.00  0.00    +0.158 HD
BRANCH  10  23
ATOM     23  C   UNL     1       3.133   0.152  23.232  0.00  0.00    +0.036 A 
ATOM     27  C   UNL     1       4.160   1.064  23.057  0.00  0.00    +0.023 A 
ATOM     28  C   UNL     1       3.385  -1.148  23.638  0.00  0.00    +0.023 A 
ATOM     32  C   UNL     1       5.476   0.666  23.295  0.00  0.00    +0.002 A 
ATOM     33  C   UNL     1       4.700  -1.548  23.875  0.00  0.00    +0.002 A 
ATOM     34  C   UNL     1       5.746  -0.640  23.703  0.00  0.00    +0.000 A 
ENDBRANCH  10  23
ENDBRANCH   3  18
ENDBRANCH  14   3
TORSDOF 5
ENDMDL
MODEL 2
REMARK VINA RESULT:      -1.2     13.974     17.409
REMARK  Name = 11912767
REMARK  5 active torsions:
REMARK  status: ('A' for Active; 'I' for Inactive)
REMARK    1  A    between atoms: O_3  and  C_14
REMARK    2  A    between atoms: O_3  and  C_18
REMARK    3  A    between atoms: N_7  and  C_13
REMARK    4  A    between atoms: N_10  and  C_23
REMARK    5  A    between atoms: C_19  and  C_22
REMARK                            x       y       z     vdW  Elec       q    Type
REMARK                         _______ _______ _______ _____ _____    ______ ____
ROOT
ATOM      1  O   UNL     1      -6.576  -9.382  12.500  0.00  0.00    -0.368 OA
ATOM      2  O   UNL     1      -8.702 -10.781  10.786  0.00  0.00    -0.368 OA
ATOM     11  C   UNL     1      -7.571  -9.959  10.425  0.00  0.00    +0.173 C 
ATOM     12  C   UNL     1      -7.460  -8.880  11.484  0.00  0.00    +0.192 C 
ATOM     13  C   UNL     1      -6.291 -10.748  10.572  0.00  0.00    +0.130 C 
ATOM     14  C   UNL     1      -8.880  -8.764  11.986  0.00  0.00    +0.235 C 
ATOM     15  C   UNL     1      -5.999 -10.621  12.057  0.00  0.00    +0.185 C 
ATOM     16  C   UNL     1      -9.357 -10.197  11.922  0.00  0.00    +0.207 C 
ENDROOT
BRANCH  13   7
ATOM      7  N   UNL     1      -5.233 -10.135   9.798  0.00  0.00    -0.306 N 
ATOM      8  N   UNL     1      -3.782 -10.055  11.640  0.00  0.00    -0.214 NA
ATOM      9  N   UNL     1      -3.092  -9.227   9.485  0.00  0.00    -0.223 NA
ATOM     17  C   UNL     1      -3.998  -9.796  10.323  0.00  0.00    +0.216 A 
ATOM     19  C   UNL     1      -2.568  -9.712  12.119  0.00  0.00    +0.076 A 
ATOM     20  C   UNL     1      -1.899  -8.908  10.030  0.00  0.00    +0.116 A 
ATOM     21  C   UNL     1      -1.578  -9.130  11.354  0.00  0.00    +0.048 A 
ATOM     35  H   UNL     1      -5.365  -9.986   8.804  0.00  0.00    +0.149 HD
BRANCH  19  22
ATOM      5  O   UNL     1       0.201  -9.943  16.152  0.00  0.00    -0.453 OA
ATOM      6  O   UNL     1      -1.627 -10.768  17.487  0.00  0.00    -0.453 OA
ATOM     22  C   UNL     1      -2.358  -9.996  13.518  0.00  0.00    +0.004 A 
ATOM     24  C   UNL     1      -1.097  -9.791  14.090  0.00  0.00    +0.059 A 
ATOM     25  C   UNL     1      -3.424 -10.478  14.302  0.00  0.00    +0.014 A 
ATOM     26  C   UNL     1      -0.946 -10.078  15.431  0.00  0.00    +0.167 A 
ATOM     29  C   UNL     1      -1.989 -10.549  16.194  0.00  0.00    +0.166 A 
ATOM     30  C   UNL     1      -3.243 -10.761  15.658  0.00  0.00    +0.050 A 
ATOM     31  C   UNL     1      -0.238 -10.382  17.453  0.00  0.00    +0.466 C 
ENDBRANCH  19  22
ENDBRANCH  13   7
BRANCH  14   3
ATOM      3  O   UNL     1      -8.975  -8.231  13.287  0.00  0.00    -0.442 OA
BRANCH   3  18
ATOM      4  O   UNL     1      -9.903 -10.101  14.220  0.00  0.00    -0.226 OA
ATOM     10  N   UNL     1      -8.405  -8.749  15.407  0.00  0.00    -0.251 N 
ATOM     18  C   UNL     1      -9.163  -9.129  14.316  0.00  0.00    +0.405 C 
ATOM     36  H   UNL     1      -7.848  -7.905  15.293  0.00  0.00    +0.158 HD
BRANCH  10  23
ATOM     23  C   UNL     1      -8.305  -9.388  16.664  0.00  0.00    +0.036 A 
ATOM     27  C   UNL     1      -9.350  -9.279  17.566  0.00  0.00    +0.023 A 
ATOM     28  C   UNL     1      -7.165 -10.114  16.967  0.00  0.00    +0.023 A 
ATOM     32  C   UNL     1      -9.252  -9.911  18.806  0.00  0.00    +0.002 A 
ATOM     33  C   UNL     1      -7.066 -10.746  18.207  0.00  0.00    +0.002 A 
ATOM     34  C   UNL     1      -8.110 -10.644  19.127  0.00  0.00    +0.000 A 
ENDBRANCH  10  23
ENDBRANCH   3  18
ENDBRANCH  14   3
TORSDOF 5
ENDMDL
MODEL 3
REMARK VINA RESULT:       1.0      1.619      4.582
REMARK  Name = 11912767
REMARK  5 active torsions:
REMARK  status: ('A' for Active; 'I' for Inactive)
REMARK    1  A    between atoms: O_3  and  C_14
REMARK    2  A    between atoms: O_3  and  C_18
REMARK    3  A    between atoms: N_7  and  C_13
REMARK    4  A    between atoms: N_10  and  C_23
REMARK    5  A    between atoms: C_19  and  C_22
REMARK                            x       y       z     vdW  Elec       q    Type
REMARK                         _______ _______ _______ _____ _____    ______ ____
ROOT
ATOM      1  O   UNL     1      -2.580  -2.015  23.720  0.00  0.00    -0.368 OA
ATOM      2  O   UNL     1      -1.070  -0.762  26.079  0.00  0.00    -0.368 OA
ATOM     11  C   UNL     1      -2.361  -0.467  25.504  0.00  0.00    +0.173 C 
ATOM     12  C   UNL     1      -2.225  -0.652  24.006  0.00  0.00    +0.192 C 
ATOM     13  C   UNL     1      -3.363  -1.521  25.912  0.00  0.00    +0.130 C 
ATOM     14  C   UNL     1      -0.754  -0.397  23.776  0.00  0.00    +0.235 C 
ATOM     15  C   UNL     1      -3.092  -2.632  24.912  0.00  0.00    +0.185 C 
ATOM     16  C   UNL     1      -0.131  -0.991  25.019  0.00  0.00    +0.207 C 
ENDROOT
BRANCH  13   7
ATOM      7  N   UNL     1      -4.712  -1.021  25.754  0.00  0.00    -0.306 N 
ATOM      8  N   UNL     1      -3.971   1.173  25.375  0.00  0.00    -0.214 NA
ATOM      9  N   UNL     1      -6.321   0.641  25.361  0.00  0.00    -0.223 NA
ATOM     17  C   UNL     1      -5.011   0.304  25.488  0.00  0.00    +0.216 A 
ATOM     19  C   UNL     1      -4.298   2.456  25.116  0.00  0.00    +0.076 A 
ATOM     20  C   UNL     1      -6.577   1.940  25.103  0.00  0.00    +0.116 A 
ATOM     21  C   UNL     1      -5.596   2.902  24.968  0.00  0.00    +0.048 A 
ATOM     35  H   UNL     1      -5.490  -1.670  25.784  0.00  0.00    +0.149 HD
BRANCH  19  22
ATOM      5  O   UNL     1       0.108   3.744  23.409  0.00  0.00    -0.453 OA
ATOM      6  O   UNL     1       0.063   5.849  24.580  0.00  0.00    -0.453 OA
ATOM     22  C   UNL     1      -3.181   3.362  24.998  0.00  0.00    +0.004 A 
ATOM     24  C   UNL     1      -2.081   3.014  24.206  0.00  0.00    +0.059 A 
ATOM     25  C   UNL     1      -3.203   4.593  25.681  0.00  0.00    +0.014 A 
ATOM     26  C   UNL     1      -1.038   3.912  24.125  0.00  0.00    +0.167 A 
ATOM     29  C   UNL     1      -1.062   5.115  24.794  0.00  0.00    +0.166 A 
ATOM     30  C   UNL     1      -2.133   5.485  25.582  0.00  0.00    +0.050 A 
ATOM     31  C   UNL     1       0.800   4.975  23.702  0.00  0.00    +0.466 C 
ENDBRANCH  19  22
ENDBRANCH  13   7
BRANCH  14   3
ATOM      3  O   UNL     1      -0.257  -0.992  22.598  0.00  0.00    -0.442 OA
BRANCH   3  18
ATOM      4  O   UNL     1       1.323  -0.365  21.068  0.00  0.00    -0.226 OA
ATOM     10  N   UNL     1       1.857  -0.696  23.324  0.00  0.00    -0.251 N 
ATOM     18  C   UNL     1       1.025  -0.653  22.222  0.00  0.00    +0.405 C 
ATOM     36  H   UNL     1       1.421  -0.958  24.204  0.00  0.00    +0.158 HD
BRANCH  10  23
ATOM     23  C   UNL     1       3.242  -0.419  23.381  0.00  0.00    +0.036 A 
ATOM     27  C   UNL     1       3.708   0.807  22.935  0.00  0.00    +0.023 A 
ATOM     28  C   UNL     1       4.106  -1.379  23.883  0.00  0.00    +0.023 A 
ATOM     32  C   UNL     1       5.075   1.081  22.992  0.00  0.00    +0.002 A 
ATOM     33  C   UNL     1       5.473  -1.106  23.940  0.00  0.00    +0.002 A 
ATOM     34  C   UNL     1       5.957   0.125  23.495  0.00  0.00    +0.000 A 
ENDBRANCH  10  23
ENDBRANCH   3  18
ENDBRANCH  14   3
TORSDOF 5
ENDMDL
MODEL 4
REMARK VINA RESULT:       1.3      1.933      4.498
REMARK  Name = 11912767
REMARK  5 active torsions:
REMARK  status: ('A' for Active; 'I' for Inactive)
REMARK    1  A    between atoms: O_3  and  C_14
REMARK    2  A    between atoms: O_3  and  C_18
REMARK    3  A    between atoms: N_7  and  C_13
REMARK    4  A    between atoms: N_10  and  C_23
REMARK    5  A    between atoms: C_19  and  C_22
REMARK                            x       y       z     vdW  Elec       q    Type
REMARK                         _______ _______ _______ _____ _____    ______ ____
ROOT
ATOM      1  O   UNL     1      -3.101  -0.550  23.177  0.00  0.00    -0.368 OA
ATOM      2  O   UNL     1      -2.973  -1.631  26.046  0.00  0.00    -0.368 OA
ATOM     11  C   UNL     1      -3.366  -0.343  25.526  0.00  0.00    +0.173 C 
ATOM     12  C   UNL     1      -2.450  -0.046  24.355  0.00  0.00    +0.192 C 
ATOM     13  C   UNL     1      -4.739  -0.436  24.901  0.00  0.00    +0.130 C 
ATOM     14  C   UNL     1      -1.213  -0.844  24.696  0.00  0.00    +0.235 C 
ATOM     15  C   UNL     1      -4.429  -0.980  23.516  0.00  0.00    +0.185 C 
ATOM     16  C   UNL     1      -1.799  -2.075  25.349  0.00  0.00    +0.207 C 
ENDROOT
BRANCH  13   7
ATOM      7  N   UNL     1      -5.335   0.879  24.802  0.00  0.00    -0.306 N 
ATOM      8  N   UNL     1      -3.402   1.937  25.610  0.00  0.00    -0.214 NA
ATOM      9  N   UNL     1      -5.353   3.217  25.005  0.00  0.00    -0.223 NA
ATOM     17  C   UNL     1      -4.677   2.046  25.149  0.00  0.00    +0.216 A 
ATOM     19  C   UNL     1      -2.792   3.094  25.940  0.00  0.00    +0.076 A 
ATOM     20  C   UNL     1      -4.682   4.335  25.354  0.00  0.00    +0.116 A 
ATOM     21  C   UNL     1      -3.387   4.334  25.831  0.00  0.00    +0.048 A 
ATOM     35  H   UNL     1      -6.265   0.976  24.409  0.00  0.00    +0.149 HD
BRANCH  19  22
ATOM      5  O   UNL     1       0.533   2.646  29.507  0.00  0.00    -0.453 OA
ATOM      6  O   UNL     1       2.360   2.564  27.939  0.00  0.00    -0.453 OA
ATOM     22  C   UNL     1      -1.440   2.956  26.425  0.00  0.00    +0.004 A 
ATOM     24  C   UNL     1      -1.198   2.870  27.802  0.00  0.00    +0.059 A 
ATOM     25  C   UNL     1      -0.370   2.908  25.512  0.00  0.00    +0.014 A 
ATOM     26  C   UNL     1       0.110   2.740  28.217  0.00  0.00    +0.167 A 
ATOM     29  C   UNL     1       1.155   2.694  27.322  0.00  0.00    +0.166 A 
ATOM     30  C   UNL     1       0.947   2.776  25.960  0.00  0.00    +0.050 A 
ATOM     31  C   UNL     1       1.959   2.534  29.324  0.00  0.00    +0.466 C 
ENDBRANCH  19  22
ENDBRANCH  13   7
BRANCH  14   3
ATOM      3  O   UNL     1      -0.424  -1.164  23.572  0.00  0.00    -0.442 OA
BRANCH   3  18
ATOM      4  O   UNL     1       0.570   0.799  22.950  0.00  0.00    -0.226 OA
ATOM     10  N   UNL     1       1.829  -1.070  23.585  0.00  0.00    -0.251 N 
ATOM     18  C   UNL     1       0.671  -0.362  23.331  0.00  0.00    +0.405 C 
ATOM     36  H   UNL     1       1.707  -2.031  23.897  0.00  0.00    +0.158 HD
BRANCH  10  23
ATOM     23  C   UNL     1       3.166  -0.626  23.466  0.00  0.00    +0.036 A 
ATOM     27  C   UNL     1       3.424   0.598  22.870  0.00  0.00    +0.023 A 
ATOM     28  C   UNL     1       4.192  -1.422  23.949  0.00  0.00    +0.023 A 
ATOM     32  C   UNL     1       4.743   1.037  22.754  0.00  0.00    +0.002 A 
ATOM     33  C   UNL     1       5.511  -0.984  23.833  0.00  0.00    +0.002 A 
ATOM     34  C   UNL     1       5.787   0.246  23.235  0.00  0.00    +0.000 A 
ENDBRANCH  10  23
ENDBRANCH   3  18
ENDBRANCH  14   3
TORSDOF 5
ENDMDL
