MODEL 1
REMARK VINA RESULT:       4.1      0.000      0.000
REMARK  Name = 26743314
REMARK  11 active torsions:
REMARK  status: ('A' for Active; 'I' for Inactive)
REMARK    1  A    between atoms: N_6  and  C_19
REMARK    2  A    between atoms: C_8  and  C_14
REMARK    3  A    between atoms: C_9  and  C_13
REMARK    4  A    between atoms: C_13  and  C_15
REMARK    5  A    between atoms: C_14  and  C_16
REMARK    6  A    between atoms: C_18  and  C_20
REMARK    7  A    between atoms: C_19  and  C_23
REMARK    8  A    between atoms: C_21  and  C_22
REMARK    9  A    between atoms: C_21  and  C_28
REMARK   10  A    between atoms: C_21  and  C_29
REMARK   11  A    between atoms: C_21  and  C_30
REMARK                            x       y       z     vdW  Elec       q    Type
REMARK                         _______ _______ _______ _____ _____    ______ ____
ROOT
ATOM      5  N   UNL     1      -5.415   1.746  25.404  0.00  0.00    -0.316 NA
ATOM      8  C   UNL     1      -4.427   4.394  24.555  0.00  0.00    +0.004 C 
ATOM      9  C   UNL     1      -4.650   3.228  23.564  0.00  0.00    +0.012 C 
ATOM     10  C   UNL     1      -5.325   4.185  25.787  0.00  0.00    +0.019 C 
ATOM     11  C   UNL     1      -4.515   1.861  24.255  0.00  0.00    +0.085 C 
ATOM     12  C   UNL     1      -5.167   2.792  26.394  0.00  0.00    +0.081 C 
ATOM     37  H   UNL     1      -5.291   0.832  25.839  0.00  0.00    +0.122 HD
ENDROOT
BRANCH   9  13
ATOM     13  C   UNL     1      -3.739   3.301  22.337  0.00  0.00    +0.064 C 
BRANCH  13  15
ATOM      1  O   UNL     1      -1.540   0.454  22.488  0.00  0.00    -0.354 OA
ATOM      7  N   UNL     1      -2.793   1.033  22.325  0.00  0.00    -0.083 NA
ATOM     15  C   UNL     1      -2.586   2.347  22.455  0.00  0.00    +0.085 A 
ATOM     17  C   UNL     1      -1.236   2.653  22.697  0.00  0.00    +0.076 A 
ATOM     18  C   UNL     1      -0.622   1.429  22.708  0.00  0.00    +0.167 A 
BRANCH  18  20
ATOM     20  C   UNL     1       0.727   0.980  22.895  0.00  0.00    +0.020 A 
ATOM     22  C   UNL     1       3.352   0.107  23.259  0.00  0.00    -0.042 A 
ATOM     24  C   UNL     1       1.101  -0.300  22.484  0.00  0.00    +0.012 A 
ATOM     25  C   UNL     1       1.667   1.823  23.489  0.00  0.00    +0.012 A 
ATOM     26  C   UNL     1       2.413  -0.735  22.665  0.00  0.00    +0.005 A 
ATOM     27  C   UNL     1       2.979   1.386  23.671  0.00  0.00    +0.005 A 
BRANCH  22  21
ATOM     21  C   UNL     1       4.756  -0.359  23.453  0.00  0.00    -0.013 C 
ATOM     28  C   UNL     1       5.672  -0.274  22.187  0.00  0.00    +0.015 C 
ATOM     29  C   UNL     1       4.799  -1.853  23.897  0.00  0.00    +0.015 C 
ATOM     30  C   UNL     1       5.484   0.479  24.548  0.00  0.00    +0.015 C 
ENDBRANCH  22  21
ENDBRANCH  18  20
ENDBRANCH  13  15
ENDBRANCH   9  13
BRANCH   8  14
ATOM     14  C   UNL     1      -2.964   4.587  24.974  0.00  0.00    +0.099 C 
BRANCH  14  16
ATOM      2  O   UNL     1      -2.892   3.705  27.225  0.00  0.00    -0.276 OA
ATOM      6  N   UNL     1      -1.725   2.617  25.536  0.00  0.00    -0.311 N 
ATOM     16  C   UNL     1      -2.544   3.611  26.052  0.00  0.00    +0.214 C 
ATOM     38  H   UNL     1      -1.533   2.604  24.538  0.00  0.00    +0.149 HD
BRANCH   6  19
ATOM     19  C   UNL     1      -1.174   1.551  26.342  0.00  0.00    +0.139 C 
BRANCH  19  23
ATOM      3  O   UNL     1      -4.294  -1.822  24.514  0.00  0.00    -0.453 OA
ATOM      4  O   UNL     1      -2.551  -3.464  24.251  0.00  0.00    -0.453 OA
ATOM     23  C   UNL     1      -1.507   0.197  25.787  0.00  0.00    -0.027 A 
ATOM     31  C   UNL     1      -2.824  -0.099  25.424  0.00  0.00    +0.054 A 
ATOM     32  C   UNL     1      -0.490  -0.762  25.633  0.00  0.00    +0.009 A 
ATOM     33  C   UNL     1      -3.081  -1.357  24.916  0.00  0.00    +0.167 A 
ATOM     34  C   UNL     1      -0.777  -2.027  25.117  0.00  0.00    +0.050 A 
ATOM     35  C   UNL     1      -2.085  -2.295  24.766  0.00  0.00    +0.166 A 
ATOM     36  C   UNL     1      -3.952  -3.158  24.093  0.00  0.00    +0.466 C 
ENDBRANCH  19  23
ENDBRANCH   6  19
ENDBRANCH  14  16
ENDBRANCH   8  14
TORSDOF 8
ENDMDL
MODEL 2
REMARK VINA RESULT:       4.8      1.698      2.713
REMARK  Name = 26743314
REMARK  11 active torsions:
REMARK  status: ('A' for Active; 'I' for Inactive)
REMARK    1  A    between atoms: N_6  and  C_19
REMARK    2  A    between atoms: C_8  and  C_14
REMARK    3  A    between atoms: C_9  and  C_13
REMARK    4  A    between atoms: C_13  and  C_15
REMARK    5  A    between atoms: C_14  and  C_16
REMARK    6  A    between atoms: C_18  and  C_20
REMARK    7  A    between atoms: C_19  and  C_23
REMARK    8  A    between atoms: C_21  and  C_22
REMARK    9  A    between atoms: C_21  and  C_28
REMARK   10  A    between atoms: C_21  and  C_29
REMARK   11  A    between atoms: C_21  and  C_30
REMARK                            x       y       z     vdW  Elec       q    Type
REMARK                         _______ _______ _______ _____ _____    ______ ____
ROOT
ATOM      5  N   UNL     1      -2.543   5.831  25.718  0.00  0.00    -0.316 NA
ATOM      8  C   UNL     1      -4.027   3.295  25.984  0.00  0.00    +0.004 C 
ATOM      9  C   UNL     1      -2.925   3.511  24.921  0.00  0.00    +0.012 C 
ATOM     10  C   UNL     1      -3.786   4.257  27.160  0.00  0.00    +0.019 C 
ATOM     11  C   UNL     1      -2.784   4.995  24.542  0.00  0.00    +0.085 C 
ATOM     12  C   UNL     1      -3.615   5.705  26.703  0.00  0.00    +0.081 C 
ATOM     37  H   UNL     1      -2.463   6.806  25.429  0.00  0.00    +0.122 HD
ENDROOT
BRANCH   9  13
ATOM     13  C   UNL     1      -3.123   2.654  23.669  0.00  0.00    +0.064 C 
BRANCH  13  15
ATOM      1  O   UNL     1      -0.626   0.423  22.346  0.00  0.00    -0.354 OA
ATOM      7  N   UNL     1      -1.923   0.915  22.413  0.00  0.00    -0.083 NA
ATOM     15  C   UNL     1      -1.878   1.887  23.330  0.00  0.00    +0.085 A 
ATOM     17  C   UNL     1      -0.591   2.051  23.869  0.00  0.00    +0.076 A 
ATOM     18  C   UNL     1       0.158   1.107  23.217  0.00  0.00    +0.167 A 
BRANCH  18  20
ATOM     20  C   UNL     1       1.535   0.708  23.260  0.00  0.00    +0.020 A 
ATOM     22  C   UNL     1       4.213  -0.069  23.344  0.00  0.00    -0.042 A 
ATOM     24  C   UNL     1       2.543   1.652  23.058  0.00  0.00    +0.012 A 
ATOM     25  C   UNL     1       1.868  -0.625  23.504  0.00  0.00    +0.012 A 
ATOM     26  C   UNL     1       3.881   1.263  23.100  0.00  0.00    +0.005 A 
ATOM     27  C   UNL     1       3.207  -1.013  23.545  0.00  0.00    +0.005 A 
BRANCH  22  21
ATOM     21  C   UNL     1       5.645  -0.484  23.389  0.00  0.00    -0.013 C 
ATOM     28  C   UNL     1       6.342  -0.645  21.997  0.00  0.00    +0.015 C 
ATOM     29  C   UNL     1       5.813  -1.862  24.099  0.00  0.00    +0.015 C 
ATOM     30  C   UNL     1       6.510   0.556  24.167  0.00  0.00    +0.015 C 
ENDBRANCH  22  21
ENDBRANCH  18  20
ENDBRANCH  13  15
ENDBRANCH   9  13
BRANCH   8  14
ATOM     14  C   UNL     1      -5.455   3.443  25.443  0.00  0.00    +0.099 C 
BRANCH  14  16
ATOM      2  O   UNL     1      -7.183   1.989  24.579  0.00  0.00    -0.276 OA
ATOM      6  N   UNL     1      -5.066   1.124  24.994  0.00  0.00    -0.311 N 
ATOM     16  C   UNL     1      -6.023   2.128  24.955  0.00  0.00    +0.214 C 
ATOM     38  H   UNL     1      -4.119   1.355  25.281  0.00  0.00    +0.149 HD
BRANCH   6  19
ATOM     19  C   UNL     1      -5.333  -0.237  24.586  0.00  0.00    +0.139 C 
BRANCH  19  23
ATOM      3  O   UNL     1      -0.648  -1.165  25.870  0.00  0.00    -0.453 OA
ATOM      4  O   UNL     1      -0.646  -3.306  24.765  0.00  0.00    -0.453 OA
ATOM     23  C   UNL     1      -4.095  -1.084  24.612  0.00  0.00    -0.027 A 
ATOM     31  C   UNL     1      -2.955  -0.627  25.280  0.00  0.00    +0.054 A 
ATOM     32  C   UNL     1      -4.093  -2.334  23.968  0.00  0.00    +0.009 A 
ATOM     33  C   UNL     1      -1.841  -1.443  25.278  0.00  0.00    +0.167 A 
ATOM     34  C   UNL     1      -2.952  -3.140  23.981  0.00  0.00    +0.050 A 
ATOM     35  C   UNL     1      -1.840  -2.666  24.646  0.00  0.00    +0.166 A 
ATOM     36  C   UNL     1       0.105  -2.351  25.542  0.00  0.00    +0.466 C 
ENDBRANCH  19  23
ENDBRANCH   6  19
ENDBRANCH  14  16
ENDBRANCH   8  14
TORSDOF 8
ENDMDL
MODEL 3
REMARK VINA RESULT:       7.4      2.357      7.893
REMARK  Name = 26743314
REMARK  11 active torsions:
REMARK  status: ('A' for Active; 'I' for Inactive)
REMARK    1  A    between atoms: N_6  and  C_19
REMARK    2  A    between atoms: C_8  and  C_14
REMARK    3  A    between atoms: C_9  and  C_13
REMARK    4  A    between atoms: C_13  and  C_15
REMARK    5  A    between atoms: C_14  and  C_16
REMARK    6  A    between atoms: C_18  and  C_20
REMARK    7  A    between atoms: C_19  and  C_23
REMARK    8  A    between atoms: C_21  and  C_22
REMARK    9  A    between atoms: C_21  and  C_28
REMARK   10  A    between atoms: C_21  and  C_29
REMARK   11  A    between atoms: C_21  and  C_30
REMARK                            x       y       z     vdW  Elec       q    Type
REMARK                         _______ _______ _______ _____ _____    ______ ____
ROOT
ATOM      5  N   UNL     1       5.609  -0.300  24.073  0.00  0.00    -0.316 NA
ATOM      8  C   UNL     1       2.840   0.144  23.153  0.00  0.00    +0.004 C 
ATOM      9  C   UNL     1       3.223  -0.989  24.133  0.00  0.00    +0.012 C 
ATOM     10  C   UNL     1       3.886   1.268  23.251  0.00  0.00    +0.019 C 
ATOM     11  C   UNL     1       4.686  -1.429  23.950  0.00  0.00    +0.085 C 
ATOM     12  C   UNL     1       5.316   0.750  23.100  0.00  0.00    +0.081 C 
ATOM     37  H   UNL     1       6.564  -0.629  23.938  0.00  0.00    +0.122 HD
ENDROOT
BRANCH   9  13
ATOM     13  C   UNL     1       2.286  -2.195  24.051  0.00  0.00    +0.064 C 
BRANCH  13  15
ATOM      1  O   UNL     1      -0.876  -2.057  25.770  0.00  0.00    -0.354 OA
ATOM      7  N   UNL     1       0.359  -2.640  25.511  0.00  0.00    -0.083 NA
ATOM     15  C   UNL     1       0.921  -1.862  24.581  0.00  0.00    +0.085 A 
ATOM     17  C   UNL     1       0.095  -0.784  24.218  0.00  0.00    +0.076 A 
ATOM     18  C   UNL     1      -1.021  -0.953  24.994  0.00  0.00    +0.167 A 
BRANCH  18  20
ATOM     20  C   UNL     1      -2.256  -0.241  25.152  0.00  0.00    +0.020 A 
ATOM     22  C   UNL     1      -4.658   1.144  25.458  0.00  0.00    -0.042 A 
ATOM     24  C   UNL     1      -2.283   0.960  25.862  0.00  0.00    +0.012 A 
ATOM     25  C   UNL     1      -3.430  -0.749  24.595  0.00  0.00    +0.012 A 
ATOM     26  C   UNL     1      -3.484   1.652  26.014  0.00  0.00    +0.005 A 
ATOM     27  C   UNL     1      -4.631  -0.056  24.749  0.00  0.00    +0.005 A 
BRANCH  22  21
ATOM     21  C   UNL     1      -5.942   1.885  25.622  0.00  0.00    -0.013 C 
ATOM     28  C   UNL     1      -5.815   3.444  25.668  0.00  0.00    +0.015 C 
ATOM     29  C   UNL     1      -6.661   1.488  26.947  0.00  0.00    +0.015 C 
ATOM     30  C   UNL     1      -6.921   1.584  24.445  0.00  0.00    +0.015 C 
ENDBRANCH  22  21
ENDBRANCH  18  20
ENDBRANCH  13  15
ENDBRANCH   9  13
BRANCH   8  14
ATOM     14  C   UNL     1       2.672  -0.317  21.699  0.00  0.00    +0.099 C 
BRANCH  14  16
ATOM      2  O   UNL     1       0.802  -1.071  20.364  0.00  0.00    -0.276 OA
ATOM      6  N   UNL     1       0.446   0.488  22.050  0.00  0.00    -0.311 N 
ATOM     16  C   UNL     1       1.220  -0.364  21.277  0.00  0.00    +0.214 C 
ATOM     38  H   UNL     1       0.883   0.998  22.813  0.00  0.00    +0.149 HD
BRANCH   6  19
ATOM     19  C   UNL     1      -0.979   0.647  21.866  0.00  0.00    +0.139 C 
BRANCH  19  23
ATOM      3  O   UNL     1      -0.559   4.433  25.019  0.00  0.00    -0.453 OA
ATOM      4  O   UNL     1      -2.847   5.112  24.692  0.00  0.00    -0.453 OA
ATOM     23  C   UNL     1      -1.514   1.836  22.608  0.00  0.00    -0.027 A 
ATOM     31  C   UNL     1      -0.679   2.543  23.479  0.00  0.00    +0.054 A 
ATOM     32  C   UNL     1      -2.849   2.234  22.417  0.00  0.00    +0.009 A 
ATOM     33  C   UNL     1      -1.215   3.631  24.137  0.00  0.00    +0.167 A 
ATOM     34  C   UNL     1      -3.366   3.339  23.096  0.00  0.00    +0.050 A 
ATOM     35  C   UNL     1      -2.523   4.019  23.950  0.00  0.00    +0.166 A 
ATOM     36  C   UNL     1      -1.599   5.370  25.367  0.00  0.00    +0.466 C 
ENDBRANCH  19  23
ENDBRANCH   6  19
ENDBRANCH  14  16
ENDBRANCH   8  14
TORSDOF 8
ENDMDL
