MODEL 1
REMARK VINA RESULT:      -1.7      0.000      0.000
REMARK  Name = 28960591
REMARK  10 active torsions:
REMARK  status: ('A' for Active; 'I' for Inactive)
REMARK    1  A    between atoms: O_3  and  C_11
REMARK    2  A    between atoms: N_5  and  C_9
REMARK    3  A    between atoms: N_5  and  C_15
REMARK    4  A    between atoms: N_5  and  C_17
REMARK    5  A    between atoms: N_6  and  C_10
REMARK    6  A    between atoms: N_7  and  C_16
REMARK    7  A    between atoms: N_8  and  C_23
REMARK    8  A    between atoms: N_8  and  C_25
REMARK    9  A    between atoms: N_8  and  C_26
REMARK   10  A    between atoms: C_15  and  C_23
REMARK                            x       y       z     vdW  Elec       q    Type
REMARK                         _______ _______ _______ _____ _____    ______ ____
ROOT
ATOM      1  O   UNL     1      12.008  -7.754  30.685  0.00  0.00    -0.342 OA
ATOM      2  O   UNL     1      11.787  -8.558  32.850  0.00  0.00    -0.347 OA
ATOM      9  C   UNL     1      13.873  -7.522  32.196  0.00  0.00    +0.143 C 
ATOM     10  C   UNL     1      13.635  -9.531  30.589  0.00  0.00    +0.136 C 
ATOM     11  C   UNL     1      14.434  -8.890  31.744  0.00  0.00    +0.159 C 
ATOM     12  C   UNL     1      12.133  -9.178  30.620  0.00  0.00    +0.170 C 
ATOM     13  C   UNL     1      12.340  -7.494  32.056  0.00  0.00    +0.270 C 
ATOM     14  C   UNL     1      11.429  -9.575  31.903  0.00  0.00    +0.196 C 
ENDROOT
BRANCH  10   6
ATOM      4  O   UNL     1      16.391  -8.917  30.049  0.00  0.00    -0.253 OA
ATOM      6  N   UNL     1      14.202  -9.145  29.315  0.00  0.00    -0.291 N 
ATOM      7  N   UNL     1      15.837  -8.520  27.830  0.00  0.00    -0.297 N 
ATOM     18  C   UNL     1      15.554  -8.865  29.148  0.00  0.00    +0.300 C 
ATOM     27  H   UNL     1      13.575  -8.999  28.530  0.00  0.00    +0.151 HD
ATOM     29  H   UNL     1      15.058  -8.438  27.183  0.00  0.00    +0.151 HD
BRANCH   7  16
ATOM     16  C   UNL     1      17.164  -8.179  27.368  0.00  0.00    +0.074 C 
ATOM     19  C   UNL     1      17.403  -8.702  25.947  0.00  0.00    +0.022 C 
ATOM     20  C   UNL     1      17.405  -6.668  27.451  0.00  0.00    +0.022 C 
ATOM     21  C   UNL     1      16.615  -7.920  24.895  0.00  0.00    +0.002 C 
ATOM     22  C   UNL     1      16.617  -5.890  26.397  0.00  0.00    +0.002 C 
ATOM     24  C   UNL     1      16.880  -6.421  24.992  0.00  0.00    +0.000 C 
ENDBRANCH   7  16
ENDBRANCH  10   6
BRANCH  11   3
ATOM      3  O   UNL     1      14.399  -9.771  32.873  0.00  0.00    -0.388 OA
ATOM     28  H   UNL     1      14.767  -9.289  33.634  0.00  0.00    +0.210 HD
ENDBRANCH  11   3
BRANCH   9   5
ATOM      5  N   UNL     1      14.463  -6.446  31.397  0.00  0.00    -0.295 NA
ATOM     17  C   UNL     1      13.529  -5.329  31.278  0.00  0.00    +0.105 C 
BRANCH   5  15
ATOM     15  C   UNL     1      15.722  -6.000  31.994  0.00  0.00    +0.100 C 
BRANCH  15  23
ATOM     23  C   UNL     1      15.576  -4.578  32.525  0.00  0.00    +0.099 C 
BRANCH  23   8
ATOM      8  N   UNL     1      16.678  -3.749  32.052  0.00  0.00    -0.307 NA
ATOM     25  C   UNL     1      16.710  -2.474  32.772  0.00  0.00    +0.104 C 
ATOM     26  C   UNL     1      16.567  -3.516  30.611  0.00  0.00    +0.104 C 
ENDBRANCH  23   8
ENDBRANCH  15  23
ENDBRANCH   5  15
ENDBRANCH   9   5
TORSDOF 7
ENDMDL
MODEL 2
REMARK VINA RESULT:      -0.6     17.114     18.468
REMARK  Name = 28960591
REMARK  10 active torsions:
REMARK  status: ('A' for Active; 'I' for Inactive)
REMARK    1  A    between atoms: O_3  and  C_11
REMARK    2  A    between atoms: N_5  and  C_9
REMARK    3  A    between atoms: N_5  and  C_15
REMARK    4  A    between atoms: N_5  and  C_17
REMARK    5  A    between atoms: N_6  and  C_10
REMARK    6  A    between atoms: N_7  and  C_16
REMARK    7  A    between atoms: N_8  and  C_23
REMARK    8  A    between atoms: N_8  and  C_25
REMARK    9  A    between atoms: N_8  and  C_26
REMARK   10  A    between atoms: C_15  and  C_23
REMARK                            x       y       z     vdW  Elec       q    Type
REMARK                         _______ _______ _______ _____ _____    ______ ____
ROOT
ATOM      1  O   UNL     1      -2.701  -0.621  23.144  0.00  0.00    -0.342 OA
ATOM      2  O   UNL     1      -4.405  -1.585  24.386  0.00  0.00    -0.347 OA
ATOM      9  C   UNL     1      -3.522   0.556  25.082  0.00  0.00    +0.143 C 
ATOM     10  C   UNL     1      -1.486  -1.030  25.186  0.00  0.00    +0.136 C 
ATOM     11  C   UNL     1      -2.472  -0.143  25.975  0.00  0.00    +0.159 C 
ATOM     12  C   UNL     1      -2.112  -1.664  23.926  0.00  0.00    +0.170 C 
ATOM     13  C   UNL     1      -3.896  -0.338  23.886  0.00  0.00    +0.270 C 
ATOM     14  C   UNL     1      -3.332  -2.521  24.205  0.00  0.00    +0.196 C 
ENDROOT
BRANCH  10   6
ATOM      4  O   UNL     1       0.268  -1.535  22.964  0.00  0.00    -0.253 OA
ATOM      6  N   UNL     1      -0.313  -0.266  24.817  0.00  0.00    -0.291 N 
ATOM      7  N   UNL     1       1.541   0.303  23.589  0.00  0.00    -0.297 N 
ATOM     18  C   UNL     1       0.479  -0.587  23.720  0.00  0.00    +0.300 C 
ATOM     27  H   UNL     1      -0.014   0.488  25.428  0.00  0.00    +0.151 HD
ATOM     29  H   UNL     1       1.662   1.007  24.311  0.00  0.00    +0.151 HD
BRANCH   7  16
ATOM     16  C   UNL     1       2.526   0.211  22.534  0.00  0.00    +0.074 C 
ATOM     19  C   UNL     1       3.573   1.323  22.660  0.00  0.00    +0.022 C 
ATOM     20  C   UNL     1       3.185  -1.172  22.516  0.00  0.00    +0.022 C 
ATOM     21  C   UNL     1       4.519   1.106  23.842  0.00  0.00    +0.002 C 
ATOM     22  C   UNL     1       4.131  -1.385  23.697  0.00  0.00    +0.002 C 
ATOM     24  C   UNL     1       5.170  -0.273  23.795  0.00  0.00    +0.000 C 
ENDBRANCH   7  16
ENDBRANCH  10   6
BRANCH  11   3
ATOM      3  O   UNL     1      -3.177  -0.964  26.916  0.00  0.00    -0.388 OA
ATOM     28  H   UNL     1      -2.674  -0.953  27.749  0.00  0.00    +0.210 HD
ENDBRANCH  11   3
BRANCH   9   5
ATOM      5  N   UNL     1      -3.000   1.836  24.600  0.00  0.00    -0.295 NA
ATOM     17  C   UNL     1      -3.667   2.223  23.357  0.00  0.00    +0.105 C 
BRANCH   5  15
ATOM     15  C   UNL     1      -3.173   2.873  25.617  0.00  0.00    +0.100 C 
BRANCH  15  23
ATOM     23  C   UNL     1      -1.871   3.644  25.808  0.00  0.00    +0.099 C 
BRANCH  23   8
ATOM      8  N   UNL     1      -0.743   2.851  25.333  0.00  0.00    -0.307 NA
ATOM     25  C   UNL     1       0.207   2.606  26.420  0.00  0.00    +0.104 C 
ATOM     26  C   UNL     1      -0.075   3.520  24.216  0.00  0.00    +0.104 C 
ENDBRANCH  23   8
ENDBRANCH  15  23
ENDBRANCH   5  15
ENDBRANCH   9   5
TORSDOF 7
ENDMDL
MODEL 3
REMARK VINA RESULT:       0.1     16.890     18.597
REMARK  Name = 28960591
REMARK  10 active torsions:
REMARK  status: ('A' for Active; 'I' for Inactive)
REMARK    1  A    between atoms: O_3  and  C_11
REMARK    2  A    between atoms: N_5  and  C_9
REMARK    3  A    between atoms: N_5  and  C_15
REMARK    4  A    between atoms: N_5  and  C_17
REMARK    5  A    between atoms: N_6  and  C_10
REMARK    6  A    between atoms: N_7  and  C_16
REMARK    7  A    between atoms: N_8  and  C_23
REMARK    8  A    between atoms: N_8  and  C_25
REMARK    9  A    between atoms: N_8  and  C_26
REMARK   10  A    between atoms: C_15  and  C_23
REMARK                            x       y       z     vdW  Elec       q    Type
REMARK                         _______ _______ _______ _____ _____    ______ ____
ROOT
ATOM      1  O   UNL     1      -0.861   2.662  26.268  0.00  0.00    -0.342 OA
ATOM      2  O   UNL     1      -2.974   3.217  25.490  0.00  0.00    -0.347 OA
ATOM      9  C   UNL     1      -2.067   1.040  24.952  0.00  0.00    +0.143 C 
ATOM     10  C   UNL     1      -0.388   2.701  23.904  0.00  0.00    +0.136 C 
ATOM     11  C   UNL     1      -1.440   1.599  23.654  0.00  0.00    +0.159 C 
ATOM     12  C   UNL     1      -0.681   3.548  25.160  0.00  0.00    +0.170 C 
ATOM     13  C   UNL     1      -2.176   2.145  26.019  0.00  0.00    +0.270 C 
ATOM     14  C   UNL     1      -2.031   4.240  25.139  0.00  0.00    +0.196 C 
ENDROOT
BRANCH  10   6
ATOM      4  O   UNL     1       0.644   0.503  22.366  0.00  0.00    -0.253 OA
ATOM      6  N   UNL     1       0.932   2.116  24.007  0.00  0.00    -0.291 N 
ATOM      7  N   UNL     1       2.653   0.678  23.516  0.00  0.00    -0.297 N 
ATOM     18  C   UNL     1       1.344   1.048  23.217  0.00  0.00    +0.300 C 
ATOM     27  H   UNL     1       1.554   2.448  24.738  0.00  0.00    +0.151 HD
ATOM     29  H   UNL     1       3.116   1.149  24.287  0.00  0.00    +0.151 HD
BRANCH   7  16
ATOM     16  C   UNL     1       3.342  -0.403  22.847  0.00  0.00    +0.074 C 
ATOM     19  C   UNL     1       4.431   0.133  21.911  0.00  0.00    +0.022 C 
ATOM     20  C   UNL     1       3.920  -1.397  23.860  0.00  0.00    +0.022 C 
ATOM     21  C   UNL     1       5.630   0.698  22.672  0.00  0.00    +0.002 C 
ATOM     22  C   UNL     1       5.121  -0.829  24.617  0.00  0.00    +0.002 C 
ATOM     24  C   UNL     1       6.194  -0.313  23.666  0.00  0.00    +0.000 C 
ENDBRANCH   7  16
ENDBRANCH  10   6
BRANCH  11   3
ATOM      3  O   UNL     1      -2.499   2.146  22.858  0.00  0.00    -0.388 OA
ATOM     28  H   UNL     1      -3.053   1.406  22.558  0.00  0.00    +0.210 HD
ENDBRANCH  11   3
BRANCH   9   5
ATOM      5  N   UNL     1      -1.258  -0.067  25.466  0.00  0.00    -0.295 NA
ATOM     17  C   UNL     1      -1.735  -0.477  26.785  0.00  0.00    +0.105 C 
BRANCH   5  15
ATOM     15  C   UNL     1      -1.290  -1.196  24.536  0.00  0.00    +0.100 C 
BRANCH  15  23
ATOM     23  C   UNL     1      -2.451  -2.124  24.877  0.00  0.00    +0.099 C 
BRANCH  23   8
ATOM      8  N   UNL     1      -3.526  -1.963  23.905  0.00  0.00    -0.307 NA
ATOM     25  C   UNL     1      -4.425  -0.879  24.307  0.00  0.00    +0.104 C 
ATOM     26  C   UNL     1      -4.273  -3.211  23.750  0.00  0.00    +0.104 C 
ENDBRANCH  23   8
ENDBRANCH  15  23
ENDBRANCH   5  15
ENDBRANCH   9   5
TORSDOF 7
ENDMDL
MODEL 4
REMARK VINA RESULT:       0.4     16.554     17.934
REMARK  Name = 28960591
REMARK  10 active torsions:
REMARK  status: ('A' for Active; 'I' for Inactive)
REMARK    1  A    between atoms: O_3  and  C_11
REMARK    2  A    between atoms: N_5  and  C_9
REMARK    3  A    between atoms: N_5  and  C_15
REMARK    4  A    between atoms: N_5  and  C_17
REMARK    5  A    between atoms: N_6  and  C_10
REMARK    6  A    between atoms: N_7  and  C_16
REMARK    7  A    between atoms: N_8  and  C_23
REMARK    8  A    between atoms: N_8  and  C_25
REMARK    9  A    between atoms: N_8  and  C_26
REMARK   10  A    between atoms: C_15  and  C_23
REMARK                            x       y       z     vdW  Elec       q    Type
REMARK                         _______ _______ _______ _____ _____    ______ ____
ROOT
ATOM      1  O   UNL     1      -1.994   2.599  23.319  0.00  0.00    -0.342 OA
ATOM      2  O   UNL     1      -3.956   1.574  24.009  0.00  0.00    -0.347 OA
ATOM      9  C   UNL     1      -2.283   2.125  25.666  0.00  0.00    +0.143 C 
ATOM     10  C   UNL     1      -1.073   0.499  24.064  0.00  0.00    +0.136 C 
ATOM     11  C   UNL     1      -1.619   0.740  25.487  0.00  0.00    +0.159 C 
ATOM     12  C   UNL     1      -1.890   1.216  22.969  0.00  0.00    +0.170 C 
ATOM     13  C   UNL     1      -2.976   2.564  24.363  0.00  0.00    +0.270 C 
ATOM     14  C   UNL     1      -3.357   0.830  22.938  0.00  0.00    +0.196 C 
ENDROOT
BRANCH  10   6
ATOM      4  O   UNL     1       0.945  -0.588  22.329  0.00  0.00    -0.253 OA
ATOM      6  N   UNL     1       0.313   0.908  23.985  0.00  0.00    -0.291 N 
ATOM      7  N   UNL     1       2.483   0.896  23.237  0.00  0.00    -0.297 N 
ATOM     18  C   UNL     1       1.221   0.321  23.111  0.00  0.00    +0.300 C 
ATOM     27  H   UNL     1       0.653   1.597  24.649  0.00  0.00    +0.151 HD
ATOM     29  H   UNL     1       2.618   1.590  23.965  0.00  0.00    +0.151 HD
BRANCH   7  16
ATOM     16  C   UNL     1       3.623   0.483  22.450  0.00  0.00    +0.074 C 
ATOM     19  C   UNL     1       4.896   1.208  22.901  0.00  0.00    +0.022 C 
ATOM     20  C   UNL     1       3.804  -1.038  22.498  0.00  0.00    +0.022 C 
ATOM     21  C   UNL     1       5.398   0.718  24.259  0.00  0.00    +0.002 C 
ATOM     22  C   UNL     1       4.309  -1.524  23.857  0.00  0.00    +0.002 C 
ATOM     24  C   UNL     1       5.581  -0.797  24.279  0.00  0.00    +0.000 C 
ENDBRANCH   7  16
ENDBRANCH  10   6
BRANCH  11   3
ATOM      3  O   UNL     1      -2.607  -0.258  25.777  0.00  0.00    -0.388 OA
ATOM     28  H   UNL     1      -2.773  -0.238  26.735  0.00  0.00    +0.210 HD
ENDBRANCH  11   3
BRANCH   9   5
ATOM      5  N   UNL     1      -1.278   3.119  26.051  0.00  0.00    -0.295 NA
ATOM     17  C   UNL     1      -1.890   4.440  26.174  0.00  0.00    +0.105 C 
BRANCH   5  15
ATOM     15  C   UNL     1      -0.636   2.733  27.308  0.00  0.00    +0.100 C 
BRANCH  15  23
ATOM     23  C   UNL     1       0.881   2.793  27.163  0.00  0.00    +0.099 C 
BRANCH  23   8
ATOM      8  N   UNL     1       1.521   2.398  28.412  0.00  0.00    -0.307 NA
ATOM     25  C   UNL     1       0.633   2.652  29.548  0.00  0.00    +0.104 C 
ATOM     26  C   UNL     1       2.789   3.107  28.589  0.00  0.00    +0.104 C 
ENDBRANCH  23   8
ENDBRANCH  15  23
ENDBRANCH   5  15
ENDBRANCH   9   5
TORSDOF 7
ENDMDL
MODEL 5
REMARK VINA RESULT:       0.4     17.729     19.134
REMARK  Name = 28960591
REMARK  10 active torsions:
REMARK  status: ('A' for Active; 'I' for Inactive)
REMARK    1  A    between atoms: O_3  and  C_11
REMARK    2  A    between atoms: N_5  and  C_9
REMARK    3  A    between atoms: N_5  and  C_15
REMARK    4  A    between atoms: N_5  and  C_17
REMARK    5  A    between atoms: N_6  and  C_10
REMARK    6  A    between atoms: N_7  and  C_16
REMARK    7  A    between atoms: N_8  and  C_23
REMARK    8  A    between atoms: N_8  and  C_25
REMARK    9  A    between atoms: N_8  and  C_26
REMARK   10  A    between atoms: C_15  and  C_23
REMARK                            x       y       z     vdW  Elec       q    Type
REMARK                         _______ _______ _______ _____ _____    ______ ____
ROOT
ATOM      1  O   UNL     1      -2.423  -0.669  23.132  0.00  0.00    -0.342 OA
ATOM      2  O   UNL     1      -4.220  -1.528  24.321  0.00  0.00    -0.347 OA
ATOM      9  C   UNL     1      -3.283   0.598  24.996  0.00  0.00    +0.143 C 
ATOM     10  C   UNL     1      -1.320  -1.064  25.240  0.00  0.00    +0.136 C 
ATOM     11  C   UNL     1      -2.305  -0.116  25.957  0.00  0.00    +0.159 C 
ATOM     12  C   UNL     1      -1.913  -1.710  23.971  0.00  0.00    +0.170 C 
ATOM     13  C   UNL     1      -3.638  -0.317  23.809  0.00  0.00    +0.270 C 
ATOM     14  C   UNL     1      -3.179  -2.510  24.216  0.00  0.00    +0.196 C 
ENDROOT
BRANCH  10   6
ATOM      4  O   UNL     1       0.330  -1.485  22.924  0.00  0.00    -0.253 OA
ATOM      6  N   UNL     1      -0.102  -0.358  24.905  0.00  0.00    -0.291 N 
ATOM      7  N   UNL     1       1.758   0.185  23.674  0.00  0.00    -0.297 N 
ATOM     18  C   UNL     1       0.634  -0.632  23.757  0.00  0.00    +0.300 C 
ATOM     27  H   UNL     1       0.271   0.309  25.573  0.00  0.00    +0.151 HD
ATOM     29  H   UNL     1       1.953   0.806  24.453  0.00  0.00    +0.151 HD
BRANCH   7  16
ATOM     16  C   UNL     1       2.705   0.120  22.583  0.00  0.00    +0.074 C 
ATOM     19  C   UNL     1       3.711   1.274  22.658  0.00  0.00    +0.022 C 
ATOM     20  C   UNL     1       3.418  -1.237  22.552  0.00  0.00    +0.022 C 
ATOM     21  C   UNL     1       4.709   1.107  23.804  0.00  0.00    +0.002 C 
ATOM     22  C   UNL     1       4.416  -1.399  23.698  0.00  0.00    +0.002 C 
ATOM     24  C   UNL     1       5.413  -0.246  23.745  0.00  0.00    +0.000 C 
ENDBRANCH   7  16
ENDBRANCH  10   6
BRANCH  11   3
ATOM      3  O   UNL     1      -3.084  -0.879  26.887  0.00  0.00    -0.388 OA
ATOM     28  H   UNL     1      -2.686  -0.764  27.767  0.00  0.00    +0.210 HD
ENDBRANCH  11   3
BRANCH   9   5
ATOM      5  N   UNL     1      -2.688   1.841  24.503  0.00  0.00    -0.295 NA
ATOM     17  C   UNL     1      -3.165   2.133  23.152  0.00  0.00    +0.105 C 
BRANCH   5  15
ATOM     15  C   UNL     1      -2.999   2.948  25.407  0.00  0.00    +0.100 C 
BRANCH  15  23
ATOM     23  C   UNL     1      -4.194   3.737  24.880  0.00  0.00    +0.099 C 
BRANCH  23   8
ATOM      8  N   UNL     1      -5.333   3.581  25.776  0.00  0.00    -0.307 NA
ATOM     25  C   UNL     1      -6.063   2.349  25.471  0.00  0.00    +0.104 C 
ATOM     26  C   UNL     1      -6.226   4.737  25.681  0.00  0.00    +0.104 C 
ENDBRANCH  23   8
ENDBRANCH  15  23
ENDBRANCH   5  15
ENDBRANCH   9   5
TORSDOF 7
ENDMDL
MODEL 6
REMARK VINA RESULT:       0.8     18.536     20.439
REMARK  Name = 28960591
REMARK  10 active torsions:
REMARK  status: ('A' for Active; 'I' for Inactive)
REMARK    1  A    between atoms: O_3  and  C_11
REMARK    2  A    between atoms: N_5  and  C_9
REMARK    3  A    between atoms: N_5  and  C_15
REMARK    4  A    between atoms: N_5  and  C_17
REMARK    5  A    between atoms: N_6  and  C_10
REMARK    6  A    between atoms: N_7  and  C_16
REMARK    7  A    between atoms: N_8  and  C_23
REMARK    8  A    between atoms: N_8  and  C_25
REMARK    9  A    between atoms: N_8  and  C_26
REMARK   10  A    between atoms: C_15  and  C_23
REMARK                            x       y       z     vdW  Elec       q    Type
REMARK                         _______ _______ _______ _____ _____    ______ ____
ROOT
ATOM      1  O   UNL     1      -2.159  -1.422  26.095  0.00  0.00    -0.342 OA
ATOM      2  O   UNL     1      -2.092  -3.117  24.513  0.00  0.00    -0.347 OA
ATOM      9  C   UNL     1      -1.911  -0.821  23.772  0.00  0.00    +0.143 C 
ATOM     10  C   UNL     1      -4.215  -0.929  24.936  0.00  0.00    +0.136 C 
ATOM     11  C   UNL     1      -3.446  -0.730  23.612  0.00  0.00    +0.159 C 
ATOM     12  C   UNL     1      -3.501  -1.883  25.917  0.00  0.00    +0.170 C 
ATOM     13  C   UNL     1      -1.541  -1.837  24.869  0.00  0.00    +0.270 C 
ATOM     14  C   UNL     1      -3.244  -3.269  25.356  0.00  0.00    +0.196 C 
ENDROOT
BRANCH  10   6
ATOM      4  O   UNL     1      -4.075   1.664  23.703  0.00  0.00    -0.253 OA
ATOM      6  N   UNL     1      -4.445   0.348  25.577  0.00  0.00    -0.291 N 
ATOM      7  N   UNL     1      -4.619   2.631  25.742  0.00  0.00    -0.297 N 
ATOM     18  C   UNL     1      -4.354   1.557  24.896  0.00  0.00    +0.300 C 
ATOM     27  H   UNL     1      -4.603   0.366  26.580  0.00  0.00    +0.151 HD
ATOM     29  H   UNL     1      -4.767   2.435  26.727  0.00  0.00    +0.151 HD
BRANCH   7  16
ATOM     16  C   UNL     1      -4.597   4.009  25.303  0.00  0.00    +0.074 C 
ATOM     19  C   UNL     1      -4.003   4.921  26.382  0.00  0.00    +0.022 C 
ATOM     20  C   UNL     1      -3.842   4.152  23.977  0.00  0.00    +0.022 C 
ATOM     21  C   UNL     1      -2.494   4.734  26.541  0.00  0.00    +0.002 C 
ATOM     22  C   UNL     1      -2.333   3.967  24.141  0.00  0.00    +0.002 C 
ATOM     24  C   UNL     1      -1.764   4.892  25.211  0.00  0.00    +0.000 C 
ENDBRANCH   7  16
ENDBRANCH  10   6
BRANCH  11   3
ATOM      3  O   UNL     1      -3.850  -1.747  22.688  0.00  0.00    -0.388 OA
ATOM     28  H   UNL     1      -3.284  -1.670  21.900  0.00  0.00    +0.210 HD
ENDBRANCH  11   3
BRANCH   9   5
ATOM      5  N   UNL     1      -1.360   0.493  24.109  0.00  0.00    -0.295 NA
ATOM     17  C   UNL     1      -0.736   0.461  25.431  0.00  0.00    +0.105 C 
BRANCH   5  15
ATOM     15  C   UNL     1      -0.393   0.915  23.096  0.00  0.00    +0.100 C 
BRANCH  15  23
ATOM     23  C   UNL     1       1.006   0.976  23.699  0.00  0.00    +0.099 C 
BRANCH  23   8
ATOM      8  N   UNL     1       1.898   0.065  22.991  0.00  0.00    -0.307 NA
ATOM     25  C   UNL     1       3.187   0.707  22.728  0.00  0.00    +0.104 C 
ATOM     26  C   UNL     1       1.289  -0.384  21.738  0.00  0.00    +0.104 C 
ENDBRANCH  23   8
ENDBRANCH  15  23
ENDBRANCH   5  15
ENDBRANCH   9   5
TORSDOF 7
ENDMDL
MODEL 7
REMARK VINA RESULT:       1.6     18.522     20.496
REMARK  Name = 28960591
REMARK  10 active torsions:
REMARK  status: ('A' for Active; 'I' for Inactive)
REMARK    1  A    between atoms: O_3  and  C_11
REMARK    2  A    between atoms: N_5  and  C_9
REMARK    3  A    between atoms: N_5  and  C_15
REMARK    4  A    between atoms: N_5  and  C_17
REMARK    5  A    between atoms: N_6  and  C_10
REMARK    6  A    between atoms: N_7  and  C_16
REMARK    7  A    between atoms: N_8  and  C_23
REMARK    8  A    between atoms: N_8  and  C_25
REMARK    9  A    between atoms: N_8  and  C_26
REMARK   10  A    between atoms: C_15  and  C_23
REMARK                            x       y       z     vdW  Elec       q    Type
REMARK                         _______ _______ _______ _____ _____    ______ ____
ROOT
ATOM      1  O   UNL     1      -1.176   4.111  23.561  0.00  0.00    -0.342 OA
ATOM      2  O   UNL     1      -1.363   5.866  25.066  0.00  0.00    -0.347 OA
ATOM      9  C   UNL     1      -0.982   3.635  25.917  0.00  0.00    +0.143 C 
ATOM     10  C   UNL     1      -3.224   3.451  24.647  0.00  0.00    +0.136 C 
ATOM     11  C   UNL     1      -2.505   3.388  26.012  0.00  0.00    +0.159 C 
ATOM     12  C   UNL     1      -2.566   4.435  23.658  0.00  0.00    +0.170 C 
ATOM     13  C   UNL     1      -0.666   4.639  24.794  0.00  0.00    +0.270 C 
ATOM     14  C   UNL     1      -2.481   5.862  24.166  0.00  0.00    +0.196 C 
ENDROOT
BRANCH  10   6
ATOM      4  O   UNL     1      -4.446   1.112  25.788  0.00  0.00    -0.253 OA
ATOM      6  N   UNL     1      -3.289   2.132  24.055  0.00  0.00    -0.291 N 
ATOM      7  N   UNL     1      -3.824  -0.095  23.905  0.00  0.00    -0.297 N 
ATOM     18  C   UNL     1      -3.903   1.055  24.685  0.00  0.00    +0.300 C 
ATOM     27  H   UNL     1      -2.799   1.969  23.181  0.00  0.00    +0.151 HD
ATOM     29  H   UNL     1      -3.290  -0.048  23.042  0.00  0.00    +0.151 HD
BRANCH   7  16
ATOM     16  C   UNL     1      -4.380  -1.366  24.310  0.00  0.00    +0.074 C 
ATOM     19  C   UNL     1      -3.928  -2.490  23.371  0.00  0.00    +0.022 C 
ATOM     20  C   UNL     1      -4.024  -1.684  25.767  0.00  0.00    +0.022 C 
ATOM     21  C   UNL     1      -2.452  -2.846  23.552  0.00  0.00    +0.002 C 
ATOM     22  C   UNL     1      -2.548  -2.041  25.944  0.00  0.00    +0.002 C 
ATOM     24  C   UNL     1      -2.125  -3.168  25.008  0.00  0.00    +0.000 C 
ENDBRANCH   7  16
ENDBRANCH  10   6
BRANCH  11   3
ATOM      3  O   UNL     1      -3.058   4.394  26.871  0.00  0.00    -0.388 OA
ATOM     28  H   UNL     1      -2.871   5.259  26.468  0.00  0.00    +0.210 HD
ENDBRANCH  11   3
BRANCH   9   5
ATOM      5  N   UNL     1      -0.282   2.373  25.665  0.00  0.00    -0.295 NA
ATOM     17  C   UNL     1      -0.985   1.264  26.308  0.00  0.00    +0.105 C 
BRANCH   5  15
ATOM     15  C   UNL     1      -0.159   2.137  24.227  0.00  0.00    +0.100 C 
BRANCH  15  23
ATOM     23  C   UNL     1       1.200   1.522  23.910  0.00  0.00    +0.099 C 
BRANCH  23   8
ATOM      8  N   UNL     1       1.043   0.411  22.978  0.00  0.00    -0.307 NA
ATOM     25  C   UNL     1       0.308  -0.688  23.607  0.00  0.00    +0.104 C 
ATOM     26  C   UNL     1       2.348  -0.055  22.507  0.00  0.00    +0.104 C 
ENDBRANCH  23   8
ENDBRANCH  15  23
ENDBRANCH   5  15
ENDBRANCH   9   5
TORSDOF 7
ENDMDL
MODEL 8
REMARK VINA RESULT:       1.8     18.619     20.564
REMARK  Name = 28960591
REMARK  10 active torsions:
REMARK  status: ('A' for Active; 'I' for Inactive)
REMARK    1  A    between atoms: O_3  and  C_11
REMARK    2  A    between atoms: N_5  and  C_9
REMARK    3  A    between atoms: N_5  and  C_15
REMARK    4  A    between atoms: N_5  and  C_17
REMARK    5  A    between atoms: N_6  and  C_10
REMARK    6  A    between atoms: N_7  and  C_16
REMARK    7  A    between atoms: N_8  and  C_23
REMARK    8  A    between atoms: N_8  and  C_25
REMARK    9  A    between atoms: N_8  and  C_26
REMARK   10  A    between atoms: C_15  and  C_23
REMARK                            x       y       z     vdW  Elec       q    Type
REMARK                         _______ _______ _______ _____ _____    ______ ____
ROOT
ATOM      1  O   UNL     1      -1.608   2.121  25.929  0.00  0.00    -0.342 OA
ATOM      2  O   UNL     1      -0.780   4.287  25.979  0.00  0.00    -0.347 OA
ATOM      9  C   UNL     1      -1.846   3.491  23.958  0.00  0.00    +0.143 C 
ATOM     10  C   UNL     1       0.150   1.884  24.296  0.00  0.00    +0.136 C 
ATOM     11  C   UNL     1      -0.489   2.983  23.418  0.00  0.00    +0.159 C 
ATOM     12  C   UNL     1      -0.187   2.031  25.794  0.00  0.00    +0.170 C 
ATOM     13  C   UNL     1      -1.858   3.466  25.498  0.00  0.00    +0.270 C 
ATOM     14  C   UNL     1       0.232   3.359  26.396  0.00  0.00    +0.196 C 
ENDROOT
BRANCH  10   6
ATOM      4  O   UNL     1      -0.974  -0.234  25.881  0.00  0.00    -0.253 OA
ATOM      6  N   UNL     1      -0.256   0.575  23.830  0.00  0.00    -0.291 N 
ATOM      7  N   UNL     1      -1.095  -1.556  23.977  0.00  0.00    -0.297 N 
ATOM     18  C   UNL     1      -0.791  -0.390  24.675  0.00  0.00    +0.300 C 
ATOM     27  H   UNL     1      -0.070   0.326  22.863  0.00  0.00    +0.151 HD
ATOM     29  H   UNL     1      -0.837  -1.603  22.996  0.00  0.00    +0.151 HD
BRANCH   7  16
ATOM     16  C   UNL     1      -1.666  -2.728  24.603  0.00  0.00    +0.074 C 
ATOM     19  C   UNL     1      -2.518  -2.343  25.818  0.00  0.00    +0.022 C 
ATOM     20  C   UNL     1      -2.476  -3.551  23.596  0.00  0.00    +0.022 C 
ATOM     21  C   UNL     1      -3.829  -1.663  25.422  0.00  0.00    +0.002 C 
ATOM     22  C   UNL     1      -3.788  -2.870  23.204  0.00  0.00    +0.002 C 
ATOM     24  C   UNL     1      -4.622  -2.507  24.428  0.00  0.00    +0.000 C 
ENDBRANCH   7  16
ENDBRANCH  10   6
BRANCH  11   3
ATOM      3  O   UNL     1       0.404   4.102  23.359  0.00  0.00    -0.388 OA
ATOM     28  H   UNL     1       0.875   4.058  22.509  0.00  0.00    +0.210 HD
ENDBRANCH  11   3
BRANCH   9   5
ATOM      5  N   UNL     1      -2.936   2.662  23.441  0.00  0.00    -0.295 NA
ATOM     17  C   UNL     1      -2.498   1.924  22.258  0.00  0.00    +0.105 C 
BRANCH   5  15
ATOM     15  C   UNL     1      -3.409   1.740  24.474  0.00  0.00    +0.100 C 
BRANCH  15  23
ATOM     23  C   UNL     1      -4.927   1.821  24.596  0.00  0.00    +0.099 C 
BRANCH  23   8
ATOM      8  N   UNL     1      -5.296   2.512  25.826  0.00  0.00    -0.307 NA
ATOM     25  C   UNL     1      -6.458   1.874  26.446  0.00  0.00    +0.104 C 
ATOM     26  C   UNL     1      -5.573   3.925  25.561  0.00  0.00    +0.104 C 
ENDBRANCH  23   8
ENDBRANCH  15  23
ENDBRANCH   5  15
ENDBRANCH   9   5
TORSDOF 7
ENDMDL
MODEL 9
REMARK VINA RESULT:       1.9     18.305     20.203
REMARK  Name = 28960591
REMARK  10 active torsions:
REMARK  status: ('A' for Active; 'I' for Inactive)
REMARK    1  A    between atoms: O_3  and  C_11
REMARK    2  A    between atoms: N_5  and  C_9
REMARK    3  A    between atoms: N_5  and  C_15
REMARK    4  A    between atoms: N_5  and  C_17
REMARK    5  A    between atoms: N_6  and  C_10
REMARK    6  A    between atoms: N_7  and  C_16
REMARK    7  A    between atoms: N_8  and  C_23
REMARK    8  A    between atoms: N_8  and  C_25
REMARK    9  A    between atoms: N_8  and  C_26
REMARK   10  A    between atoms: C_15  and  C_23
REMARK                            x       y       z     vdW  Elec       q    Type
REMARK                         _______ _______ _______ _____ _____    ______ ____
ROOT
ATOM      1  O   UNL     1      -1.203   3.936  23.691  0.00  0.00    -0.342 OA
ATOM      2  O   UNL     1      -1.458   5.760  25.101  0.00  0.00    -0.347 OA
ATOM      9  C   UNL     1      -1.359   3.545  26.066  0.00  0.00    +0.143 C 
ATOM     10  C   UNL     1      -3.421   3.464  24.512  0.00  0.00    +0.136 C 
ATOM     11  C   UNL     1      -2.895   3.408  25.962  0.00  0.00    +0.159 C 
ATOM     12  C   UNL     1      -2.566   4.358  23.589  0.00  0.00    +0.170 C 
ATOM     13  C   UNL     1      -0.824   4.478  24.964  0.00  0.00    +0.270 C 
ATOM     14  C   UNL     1      -2.444   5.795  24.058  0.00  0.00    +0.196 C 
ENDROOT
BRANCH  10   6
ATOM      4  O   UNL     1      -4.150   1.064  25.915  0.00  0.00    -0.253 OA
ATOM      6  N   UNL     1      -3.503   2.129  23.959  0.00  0.00    -0.291 N 
ATOM      7  N   UNL     1      -3.867  -0.137  23.948  0.00  0.00    -0.297 N 
ATOM     18  C   UNL     1      -3.866   1.023  24.719  0.00  0.00    +0.300 C 
ATOM     27  H   UNL     1      -3.210   1.984  22.997  0.00  0.00    +0.151 HD
ATOM     29  H   UNL     1      -3.546  -0.069  22.987  0.00  0.00    +0.151 HD
BRANCH   7  16
ATOM     16  C   UNL     1      -4.207  -1.439  24.478  0.00  0.00    +0.074 C 
ATOM     19  C   UNL     1      -3.652  -2.557  23.589  0.00  0.00    +0.022 C 
ATOM     20  C   UNL     1      -3.723  -1.589  25.924  0.00  0.00    +0.022 C 
ATOM     21  C   UNL     1      -2.132  -2.687  23.691  0.00  0.00    +0.002 C 
ATOM     22  C   UNL     1      -2.203  -1.720  26.022  0.00  0.00    +0.002 C 
ATOM     24  C   UNL     1      -1.676  -2.845  25.138  0.00  0.00    +0.000 C 
ENDBRANCH   7  16
ENDBRANCH  10   6
BRANCH  11   3
ATOM      3  O   UNL     1      -3.481   4.484  26.706  0.00  0.00    -0.388 OA
ATOM     28  H   UNL     1      -4.073   4.093  27.371  0.00  0.00    +0.210 HD
ENDBRANCH  11   3
BRANCH   9   5
ATOM      5  N   UNL     1      -0.727   2.229  25.951  0.00  0.00    -0.295 NA
ATOM     17  C   UNL     1       0.254   2.227  24.868  0.00  0.00    +0.105 C 
BRANCH   5  15
ATOM     15  C   UNL     1      -0.094   1.855  27.216  0.00  0.00    +0.100 C 
BRANCH  15  23
ATOM     23  C   UNL     1       1.021   2.839  27.555  0.00  0.00    +0.099 C 
BRANCH  23   8
ATOM      8  N   UNL     1       1.792   2.351  28.693  0.00  0.00    -0.307 NA
ATOM     25  C   UNL     1       1.029   2.504  29.934  0.00  0.00    +0.104 C 
ATOM     26  C   UNL     1       3.070   3.058  28.792  0.00  0.00    +0.104 C 
ENDBRANCH  23   8
ENDBRANCH  15  23
ENDBRANCH   5  15
ENDBRANCH   9   5
TORSDOF 7
ENDMDL
MODEL 10
REMARK VINA RESULT:       2.1     19.118     21.027
REMARK  Name = 28960591
REMARK  10 active torsions:
REMARK  status: ('A' for Active; 'I' for Inactive)
REMARK    1  A    between atoms: O_3  and  C_11
REMARK    2  A    between atoms: N_5  and  C_9
REMARK    3  A    between atoms: N_5  and  C_15
REMARK    4  A    between atoms: N_5  and  C_17
REMARK    5  A    between atoms: N_6  and  C_10
REMARK    6  A    between atoms: N_7  and  C_16
REMARK    7  A    between atoms: N_8  and  C_23
REMARK    8  A    between atoms: N_8  and  C_25
REMARK    9  A    between atoms: N_8  and  C_26
REMARK   10  A    between atoms: C_15  and  C_23
REMARK                            x       y       z     vdW  Elec       q    Type
REMARK                         _______ _______ _______ _____ _____    ______ ____
ROOT
ATOM      1  O   UNL     1      -2.097   3.260  26.075  0.00  0.00    -0.342 OA
ATOM      2  O   UNL     1      -2.614   5.515  25.919  0.00  0.00    -0.347 OA
ATOM      9  C   UNL     1      -4.298   3.887  25.315  0.00  0.00    +0.143 C 
ATOM     10  C   UNL     1      -2.351   3.419  23.682  0.00  0.00    +0.136 C 
ATOM     11  C   UNL     1      -3.810   3.897  23.848  0.00  0.00    +0.159 C 
ATOM     12  C   UNL     1      -1.459   3.757  24.895  0.00  0.00    +0.170 C 
ATOM     13  C   UNL     1      -3.140   4.225  26.272  0.00  0.00    +0.270 C 
ATOM     14  C   UNL     1      -1.392   5.237  25.221  0.00  0.00    +0.196 C 
ENDROOT
BRANCH  10   6
ATOM      4  O   UNL     1      -0.076   1.680  23.938  0.00  0.00    -0.253 OA
ATOM      6  N   UNL     1      -2.318   1.993  23.434  0.00  0.00    -0.291 N 
ATOM      7  N   UNL     1      -1.404  -0.107  23.283  0.00  0.00    -0.297 N 
ATOM     18  C   UNL     1      -1.165   1.231  23.584  0.00  0.00    +0.300 C 
ATOM     27  H   UNL     1      -3.151   1.547  23.062  0.00  0.00    +0.151 HD
ATOM     29  H   UNL     1      -2.324  -0.358  22.931  0.00  0.00    +0.151 HD
BRANCH   7  16
ATOM     16  C   UNL     1      -0.384  -1.130  23.354  0.00  0.00    +0.074 C 
ATOM     19  C   UNL     1       0.417  -1.019  24.656  0.00  0.00    +0.022 C 
ATOM     20  C   UNL     1      -0.993  -2.527  23.194  0.00  0.00    +0.022 C 
ATOM     21  C   UNL     1      -0.392  -1.452  25.879  0.00  0.00    +0.002 C 
ATOM     22  C   UNL     1      -1.798  -2.958  24.420  0.00  0.00    +0.002 C 
ATOM     24  C   UNL     1      -0.977  -2.850  25.700  0.00  0.00    +0.000 C 
ENDBRANCH   7  16
ENDBRANCH  10   6
BRANCH  11   3
ATOM      3  O   UNL     1      -3.912   5.241  23.362  0.00  0.00    -0.388 OA
ATOM     28  H   UNL     1      -4.845   5.507  23.426  0.00  0.00    +0.210 HD
ENDBRANCH  11   3
BRANCH   9   5
ATOM      5  N   UNL     1      -4.854   2.575  25.652  0.00  0.00    -0.295 NA
ATOM     17  C   UNL     1      -5.973   2.720  26.581  0.00  0.00    +0.105 C 
BRANCH   5  15
ATOM     15  C   UNL     1      -5.280   1.876  24.441  0.00  0.00    +0.100 C 
BRANCH  15  23
ATOM     23  C   UNL     1      -5.513   0.399  24.742  0.00  0.00    +0.099 C 
BRANCH  23   8
ATOM      8  N   UNL     1      -4.265  -0.344  24.613  0.00  0.00    -0.307 NA
ATOM     25  C   UNL     1      -4.464  -1.548  23.804  0.00  0.00    +0.104 C 
ATOM     26  C   UNL     1      -3.737  -0.699  25.931  0.00  0.00    +0.104 C 
ENDBRANCH  23   8
ENDBRANCH  15  23
ENDBRANCH   5  15
ENDBRANCH   9   5
TORSDOF 7
ENDMDL
