MODEL 1
REMARK VINA RESULT:      -4.3      0.000      0.000
REMARK  Name = 75537011
REMARK  2 active torsions:
REMARK  status: ('A' for Active; 'I' for Inactive)
REMARK    1  A    between atoms: N_3  and  C_7
REMARK    2  A    between atoms: C_9  and  C_18
REMARK                            x       y       z     vdW  Elec       q    Type
REMARK                         _______ _______ _______ _____ _____    ______ ____
ROOT
ATOM      1  O   UNL     1      17.405  -6.378  23.190  0.00  0.00    -0.252 OA
ATOM      2  O   UNL     1      15.401 -10.601  28.358  0.00  0.00    -0.275 OA
ATOM      3  N   UNL     1      17.181  -4.906  25.018  0.00  0.00    -0.281 N 
ATOM      4  N   UNL     1      16.877  -7.106  25.360  0.00  0.00    -0.278 N 
ATOM      5  N   UNL     1      15.524  -8.510  27.343  0.00  0.00    -0.298 N 
ATOM      6  C   UNL     1      16.792  -6.513  26.684  0.00  0.00    +0.112 C 
ATOM      8  C   UNL     1      16.779  -5.012  26.410  0.00  0.00    +0.133 C 
ATOM     10  C   UNL     1      15.566  -7.039  27.426  0.00  0.00    +0.132 C 
ATOM     13  C   UNL     1      16.760  -8.545  25.205  0.00  0.00    +0.128 C 
ATOM     14  C   UNL     1      17.186  -6.159  24.374  0.00  0.00    +0.305 C 
ATOM     15  C   UNL     1      15.544  -9.053  25.977  0.00  0.00    +0.127 C 
ATOM     18  C   UNL     1      15.452  -9.376  28.436  0.00  0.00    +0.219 C 
ENDROOT
BRANCH   3   7
ATOM      7  C   UNL     1      17.401  -3.630  24.381  0.00  0.00    +0.078 C 
ATOM     16  C   UNL     1      17.229  -2.490  25.388  0.00  0.00    +0.022 C 
ATOM     17  C   UNL     1      16.469  -3.457  23.180  0.00  0.00    +0.022 C 
ATOM     19  C   UNL     1      17.405  -1.125  24.728  0.00  0.00    +0.002 C 
ATOM     20  C   UNL     1      16.646  -2.090  22.522  0.00  0.00    +0.002 C 
ATOM     21  C   UNL     1      16.477  -0.956  23.528  0.00  0.00    +0.000 C 
ENDBRANCH   3   7
BRANCH  18   9
ATOM      9  C   UNL     1      15.438  -8.759  29.797  0.00  0.00    +0.075 C 
ATOM     11  C   UNL     1      15.253  -9.650  30.979  0.00  0.00    +0.013 C 
ATOM     12  C   UNL     1      14.150  -8.730  30.549  0.00  0.00    +0.013 C 
ENDBRANCH  18   9
TORSDOF 2
ENDMDL
MODEL 2
REMARK VINA RESULT:      -4.0     25.381     26.709
REMARK  Name = 75537011
REMARK  2 active torsions:
REMARK  status: ('A' for Active; 'I' for Inactive)
REMARK    1  A    between atoms: N_3  and  C_7
REMARK    2  A    between atoms: C_9  and  C_18
REMARK                            x       y       z     vdW  Elec       q    Type
REMARK                         _______ _______ _______ _____ _____    ______ ____
ROOT
ATOM      1  O   UNL     1      -2.166  -9.773  11.418  0.00  0.00    -0.252 OA
ATOM      2  O   UNL     1      -8.075  -8.102   8.124  0.00  0.00    -0.275 OA
ATOM      3  N   UNL     1      -3.830 -10.401  12.967  0.00  0.00    -0.281 N 
ATOM      4  N   UNL     1      -4.464  -9.634  10.952  0.00  0.00    -0.278 N 
ATOM      5  N   UNL     1      -6.842  -8.504  10.057  0.00  0.00    -0.298 N 
ATOM      6  C   UNL     1      -5.701 -10.038  11.598  0.00  0.00    +0.112 C 
ATOM      8  C   UNL     1      -5.280 -10.345  13.032  0.00  0.00    +0.133 C 
ATOM     10  C   UNL     1      -6.756  -8.943  11.462  0.00  0.00    +0.132 C 
ATOM     13  C   UNL     1      -4.494  -9.114   9.597  0.00  0.00    +0.128 C 
ATOM     14  C   UNL     1      -3.338  -9.920  11.736  0.00  0.00    +0.305 C 
ATOM     15  C   UNL     1      -5.574  -8.041   9.476  0.00  0.00    +0.127 C 
ATOM     18  C   UNL     1      -8.009  -8.486   9.289  0.00  0.00    +0.219 C 
ENDROOT
BRANCH   3   7
ATOM      7  C   UNL     1      -3.027 -10.777  14.105  0.00  0.00    +0.078 C 
ATOM     16  C   UNL     1      -3.753 -10.440  15.410  0.00  0.00    +0.022 C 
ATOM     17  C   UNL     1      -1.653 -10.105  14.044  0.00  0.00    +0.022 C 
ATOM     19  C   UNL     1      -2.904 -10.780  16.632  0.00  0.00    +0.002 C 
ATOM     20  C   UNL     1      -0.805 -10.446  15.268  0.00  0.00    +0.002 C 
ATOM     21  C   UNL     1      -1.533 -10.111  16.566  0.00  0.00    +0.000 C 
ENDBRANCH   3   7
BRANCH  18   9
ATOM      9  C   UNL     1      -9.263  -8.972   9.941  0.00  0.00    +0.075 C 
ATOM     11  C   UNL     1     -10.288  -9.647   9.093  0.00  0.00    +0.013 C 
ATOM     12  C   UNL     1     -10.542  -8.270   9.628  0.00  0.00    +0.013 C 
ENDBRANCH  18   9
TORSDOF 2
ENDMDL
MODEL 3
REMARK VINA RESULT:      -2.7     18.226     19.300
REMARK  Name = 75537011
REMARK  2 active torsions:
REMARK  status: ('A' for Active; 'I' for Inactive)
REMARK    1  A    between atoms: N_3  and  C_7
REMARK    2  A    between atoms: C_9  and  C_18
REMARK                            x       y       z     vdW  Elec       q    Type
REMARK                         _______ _______ _______ _____ _____    ______ ____
ROOT
ATOM      1  O   UNL     1       0.258  -2.117  24.517  0.00  0.00    -0.252 OA
ATOM      2  O   UNL     1      -5.789   1.206  25.493  0.00  0.00    -0.275 OA
ATOM      3  N   UNL     1       0.698   0.040  23.671  0.00  0.00    -0.281 N 
ATOM      4  N   UNL     1      -1.296  -0.358  24.627  0.00  0.00    -0.278 N 
ATOM      5  N   UNL     1      -3.757   0.915  24.395  0.00  0.00    -0.298 N 
ATOM      6  C   UNL     1      -1.307   1.064  24.334  0.00  0.00    +0.112 C 
ATOM      8  C   UNL     1      -0.050   1.273  23.494  0.00  0.00    +0.133 C 
ATOM     10  C   UNL     1      -2.611   1.457  23.643  0.00  0.00    +0.132 C 
ATOM     13  C   UNL     1      -2.434  -0.967  25.292  0.00  0.00    +0.128 C 
ATOM     14  C   UNL     1      -0.071  -0.958  24.302  0.00  0.00    +0.305 C 
ATOM     15  C   UNL     1      -3.729  -0.540  24.602  0.00  0.00    +0.127 C 
ATOM     18  C   UNL     1      -4.829   1.668  24.882  0.00  0.00    +0.219 C 
ENDROOT
BRANCH   3   7
ATOM      7  C   UNL     1       2.020  -0.137  23.122  0.00  0.00    +0.078 C 
ATOM     16  C   UNL     1       2.835  -1.104  23.983  0.00  0.00    +0.022 C 
ATOM     17  C   UNL     1       2.731   1.212  22.975  0.00  0.00    +0.022 C 
ATOM     19  C   UNL     1       4.257  -1.270  23.454  0.00  0.00    +0.002 C 
ATOM     20  C   UNL     1       4.153   1.043  22.446  0.00  0.00    +0.002 C 
ATOM     21  C   UNL     1       4.962   0.076  23.306  0.00  0.00    +0.000 C 
ENDBRANCH   3   7
BRANCH  18   9
ATOM      9  C   UNL     1      -4.795   3.142  24.638  0.00  0.00    +0.075 C 
ATOM     11  C   UNL     1      -4.044   4.003  25.597  0.00  0.00    +0.013 C 
ATOM     12  C   UNL     1      -5.543   4.032  25.572  0.00  0.00    +0.013 C 
ENDBRANCH  18   9
TORSDOF 2
ENDMDL
MODEL 4
REMARK VINA RESULT:      -1.2     26.693     27.772
REMARK  Name = 75537011
REMARK  2 active torsions:
REMARK  status: ('A' for Active; 'I' for Inactive)
REMARK    1  A    between atoms: N_3  and  C_7
REMARK    2  A    between atoms: C_9  and  C_18
REMARK                            x       y       z     vdW  Elec       q    Type
REMARK                         _______ _______ _______ _____ _____    ______ ____
ROOT
ATOM      1  O   UNL     1      -3.754  -9.022   8.711  0.00  0.00    -0.252 OA
ATOM      2  O   UNL     1     -10.717  -8.745   8.784  0.00  0.00    -0.275 OA
ATOM      3  N   UNL     1      -4.302 -10.052  10.761  0.00  0.00    -0.281 N 
ATOM      4  N   UNL     1      -5.967  -9.424   9.388  0.00  0.00    -0.278 N 
ATOM      5  N   UNL     1      -8.653  -8.875   9.853  0.00  0.00    -0.298 N 
ATOM      6  C   UNL     1      -6.632 -10.120  10.477  0.00  0.00    +0.112 C 
ATOM      8  C   UNL     1      -5.520 -10.342  11.498  0.00  0.00    +0.133 C 
ATOM     10  C   UNL     1      -7.816  -9.305  10.988  0.00  0.00    +0.132 C 
ATOM     13  C   UNL     1      -6.750  -8.904   8.281  0.00  0.00    +0.128 C 
ATOM     14  C   UNL     1      -4.572  -9.448   9.516  0.00  0.00    +0.305 C 
ATOM     15  C   UNL     1      -7.944  -8.115   8.814  0.00  0.00    +0.127 C 
ATOM     18  C   UNL     1     -10.023  -9.121   9.725  0.00  0.00    +0.219 C 
ENDROOT
BRANCH   3   7
ATOM      7  C   UNL     1      -2.994 -10.246  11.337  0.00  0.00    +0.078 C 
ATOM     16  C   UNL     1      -3.094 -10.403  12.856  0.00  0.00    +0.022 C 
ATOM     17  C   UNL     1      -2.059  -9.094  10.957  0.00  0.00    +0.022 C 
ATOM     19  C   UNL     1      -1.718 -10.557  13.499  0.00  0.00    +0.002 C 
ATOM     20  C   UNL     1      -0.684  -9.251  11.602  0.00  0.00    +0.002 C 
ATOM     21  C   UNL     1      -0.788  -9.410  13.116  0.00  0.00    +0.000 C 
ENDBRANCH   3   7
BRANCH  18   9
ATOM      9  C   UNL     1     -10.682  -9.901  10.815  0.00  0.00    +0.075 C 
ATOM     11  C   UNL     1     -10.720  -9.313  12.186  0.00  0.00    +0.013 C 
ATOM     12  C   UNL     1      -9.825 -10.480  11.891  0.00  0.00    +0.013 C 
ENDBRANCH  18   9
TORSDOF 2
ENDMDL
MODEL 5
REMARK VINA RESULT:      -0.7     18.647     19.903
REMARK  Name = 75537011
REMARK  2 active torsions:
REMARK  status: ('A' for Active; 'I' for Inactive)
REMARK    1  A    between atoms: N_3  and  C_7
REMARK    2  A    between atoms: C_9  and  C_18
REMARK                            x       y       z     vdW  Elec       q    Type
REMARK                         _______ _______ _______ _____ _____    ______ ____
ROOT
ATOM      1  O   UNL     1      -3.775  -0.774  24.581  0.00  0.00    -0.252 OA
ATOM      2  O   UNL     1       3.048  -1.515  23.371  0.00  0.00    -0.275 OA
ATOM      3  N   UNL     1      -3.100   1.412  24.007  0.00  0.00    -0.281 N 
ATOM      4  N   UNL     1      -1.590  -0.248  23.898  0.00  0.00    -0.278 N 
ATOM      5  N   UNL     1       1.191  -0.240  23.958  0.00  0.00    -0.298 N 
ATOM      6  C   UNL     1      -0.895   0.915  23.372  0.00  0.00    +0.112 C 
ATOM      8  C   UNL     1      -1.852   2.069  23.658  0.00  0.00    +0.133 C 
ATOM     10  C   UNL     1       0.482   1.051  24.017  0.00  0.00    +0.132 C 
ATOM     13  C   UNL     1      -0.913  -1.533  23.944  0.00  0.00    +0.128 C 
ATOM     14  C   UNL     1      -2.929   0.027  24.206  0.00  0.00    +0.305 C 
ATOM     15  C   UNL     1       0.472  -1.369  24.566  0.00  0.00    +0.127 C 
ATOM     18  C   UNL     1       2.456  -0.439  23.400  0.00  0.00    +0.219 C 
ENDROOT
BRANCH   3   7
ATOM      7  C   UNL     1      -4.313   2.154  24.249  0.00  0.00    +0.078 C 
ATOM     16  C   UNL     1      -4.006   3.462  24.983  0.00  0.00    +0.022 C 
ATOM     17  C   UNL     1      -5.322   1.304  25.026  0.00  0.00    +0.022 C 
ATOM     19  C   UNL     1      -5.279   4.243  25.298  0.00  0.00    +0.002 C 
ATOM     20  C   UNL     1      -6.594   2.088  25.341  0.00  0.00    +0.002 C 
ATOM     21  C   UNL     1      -6.284   3.392  26.070  0.00  0.00    +0.000 C 
ENDBRANCH   3   7
BRANCH  18   9
ATOM      9  C   UNL     1       3.131   0.750  22.797  0.00  0.00    +0.075 C 
ATOM     11  C   UNL     1       4.078   0.531  21.665  0.00  0.00    +0.013 C 
ATOM     12  C   UNL     1       4.597   0.921  23.017  0.00  0.00    +0.013 C 
ENDBRANCH  18   9
TORSDOF 2
ENDMDL
MODEL 6
REMARK VINA RESULT:      -0.5      2.004      3.370
REMARK  Name = 75537011
REMARK  2 active torsions:
REMARK  status: ('A' for Active; 'I' for Inactive)
REMARK    1  A    between atoms: N_3  and  C_7
REMARK    2  A    between atoms: C_9  and  C_18
REMARK                            x       y       z     vdW  Elec       q    Type
REMARK                         _______ _______ _______ _____ _____    ______ ____
ROOT
ATOM      1  O   UNL     1      15.835  -8.990  25.580  0.00  0.00    -0.252 OA
ATOM      2  O   UNL     1      14.344 -10.681  32.174  0.00  0.00    -0.275 OA
ATOM      3  N   UNL     1      16.933  -7.308  26.818  0.00  0.00    -0.281 N 
ATOM      4  N   UNL     1      15.901  -8.967  27.928  0.00  0.00    -0.278 N 
ATOM      5  N   UNL     1      14.931  -9.142  30.528  0.00  0.00    -0.298 N 
ATOM      6  C   UNL     1      16.565  -8.191  28.961  0.00  0.00    +0.112 C 
ATOM      8  C   UNL     1      17.070  -6.956  28.220  0.00  0.00    +0.133 C 
ATOM     10  C   UNL     1      15.602  -7.898  30.110  0.00  0.00    +0.132 C 
ATOM     13  C   UNL     1      15.153 -10.158  28.289  0.00  0.00    +0.128 C 
ATOM     14  C   UNL     1      16.182  -8.488  26.641  0.00  0.00    +0.305 C 
ATOM     15  C   UNL     1      14.218  -9.851  29.457  0.00  0.00    +0.127 C 
ATOM     18  C   UNL     1      14.920  -9.652  31.829  0.00  0.00    +0.219 C 
ENDROOT
BRANCH   3   7
ATOM      7  C   UNL     1      17.405  -6.445  25.763  0.00  0.00    +0.078 C 
ATOM     16  C   UNL     1      16.929  -5.008  25.990  0.00  0.00    +0.022 C 
ATOM     17  C   UNL     1      16.961  -6.969  24.395  0.00  0.00    +0.022 C 
ATOM     19  C   UNL     1      17.371  -4.083  24.860  0.00  0.00    +0.002 C 
ATOM     20  C   UNL     1      17.403  -6.040  23.266  0.00  0.00    +0.002 C 
ATOM     21  C   UNL     1      16.929  -4.609  23.497  0.00  0.00    +0.000 C 
ENDBRANCH   3   7
BRANCH  18   9
ATOM      9  C   UNL     1      15.667  -8.883  32.871  0.00  0.00    +0.075 C 
ATOM     11  C   UNL     1      16.431  -7.673  32.449  0.00  0.00    +0.013 C 
ATOM     12  C   UNL     1      17.158  -8.922  32.848  0.00  0.00    +0.013 C 
ENDBRANCH  18   9
TORSDOF 2
ENDMDL
