MODEL 1
REMARK VINA RESULT:      -4.6      0.000      0.000
REMARK  Name = 38027741
REMARK  14 active torsions:
REMARK  status: ('A' for Active; 'I' for Inactive)
REMARK    1  A    between atoms: O_3  and  C_29
REMARK    2  A    between atoms: O_3  and  C_30
REMARK    3  A    between atoms: N_4  and  C_14
REMARK    4  A    between atoms: N_5  and  C_21
REMARK    5  A    between atoms: N_6  and  C_23
REMARK    6  A    between atoms: C_7  and  C_11
REMARK    7  A    between atoms: C_8  and  C_14
REMARK    8  A    between atoms: C_10  and  C_15
REMARK    9  A    between atoms: C_11  and  C_16
REMARK   10  A    between atoms: C_11  and  C_17
REMARK   11  A    between atoms: C_12  and  C_18
REMARK   12  A    between atoms: C_15  and  C_19
REMARK   13  A    between atoms: C_21  and  C_22
REMARK   14  A    between atoms: C_23  and  C_26
REMARK                            x       y       z     vdW  Elec       q    Type
REMARK                         _______ _______ _______ _____ _____    ______ ____
ROOT
ATOM      7  C   UNL     1      -1.555   0.587  24.736  0.00  0.00    +0.000 C 
ATOM      8  C   UNL     1      -0.407  -0.395  24.392  0.00  0.00    +0.032 C 
ATOM      9  C   UNL     1      -2.492  -0.027  25.786  0.00  0.00    +0.012 C 
ATOM     10  C   UNL     1      -3.111  -1.354  25.308  0.00  0.00    +0.023 C 
ATOM     12  C   UNL     1      -2.072  -2.277  24.705  0.00  0.00    -0.073 C 
ATOM     13  C   UNL     1      -0.864  -1.832  24.314  0.00  0.00    -0.022 C 
ATOM     18  C   UNL     1      -2.436  -3.732  24.603  0.00  0.00    +0.039 C 
ENDROOT
BRANCH   7  11
ATOM     11  C   UNL     1      -1.020   1.932  25.241  0.00  0.00    -0.013 C 
ATOM     16  C   UNL     1      -0.167   1.728  26.490  0.00  0.00    +0.007 C 
ATOM     17  C   UNL     1      -0.219   2.631  24.148  0.00  0.00    +0.007 C 
ENDBRANCH   7  11
BRANCH   8  14
ATOM     14  C   UNL     1       0.281  -0.005  23.079  0.00  0.00    +0.113 C 
BRANCH  14   4
ATOM      2  O   UNL     1       2.718   1.537  23.145  0.00  0.00    -0.253 OA
ATOM      4  N   UNL     1       1.618  -0.507  23.039  0.00  0.00    -0.299 N 
ATOM      6  N   UNL     1       3.930  -0.438  23.024  0.00  0.00    -0.300 N 
ATOM     20  C   UNL     1       2.756   0.310  23.076  0.00  0.00    +0.300 C 
ATOM     31  H   UNL     1       1.759  -1.512  23.051  0.00  0.00    +0.150 HD
ATOM     33  H   UNL     1       3.862  -1.448  22.954  0.00  0.00    +0.150 HD
BRANCH   6  23
ATOM     23  C   UNL     1       5.242   0.164  23.048  0.00  0.00    +0.102 C 
ATOM     26  C   UNL     1       5.813   0.196  24.450  0.00  0.00    +0.024 C 
ENDBRANCH   6  23
ENDBRANCH  14   4
ENDBRANCH   8  14
BRANCH  10  15
ATOM     15  C   UNL     1      -4.260  -1.103  24.323  0.00  0.00    +0.103 C 
BRANCH  15  19
ATOM      1  O   UNL     1      -3.954   1.052  23.267  0.00  0.00    -0.276 OA
ATOM      5  N   UNL     1      -5.475   0.837  25.012  0.00  0.00    -0.311 N 
ATOM     19  C   UNL     1      -4.521   0.372  24.118  0.00  0.00    +0.214 C 
ATOM     32  H   UNL     1      -5.891   0.195  25.679  0.00  0.00    +0.149 HD
BRANCH   5  21
ATOM     21  C   UNL     1      -5.920   2.211  25.045  0.00  0.00    +0.139 C 
BRANCH  21  22
ATOM     22  C   UNL     1      -4.770   3.173  25.122  0.00  0.00    -0.030 A 
ATOM     24  C   UNL     1      -4.159   3.435  26.349  0.00  0.00    +0.009 A 
ATOM     25  C   UNL     1      -4.311   3.804  23.966  0.00  0.00    +0.009 A 
ATOM     27  C   UNL     1      -3.090   4.328  26.419  0.00  0.00    +0.046 A 
ATOM     28  C   UNL     1      -3.242   4.698  24.036  0.00  0.00    +0.046 A 
ATOM     29  C   UNL     1      -2.632   4.960  25.264  0.00  0.00    +0.120 A 
BRANCH  29   3
ATOM      3  O   UNL     1      -1.588   5.831  25.333  0.00  0.00    -0.495 OA
ATOM     30  C   UNL     1      -0.435   5.524  24.550  0.00  0.00    +0.277 C 
ENDBRANCH  29   3
ENDBRANCH  21  22
ENDBRANCH   5  21
ENDBRANCH  15  19
ENDBRANCH  10  15
TORSDOF 9
ENDMDL
MODEL 2
REMARK VINA RESULT:      -3.4      1.959      5.086
REMARK  Name = 38027741
REMARK  14 active torsions:
REMARK  status: ('A' for Active; 'I' for Inactive)
REMARK    1  A    between atoms: O_3  and  C_29
REMARK    2  A    between atoms: O_3  and  C_30
REMARK    3  A    between atoms: N_4  and  C_14
REMARK    4  A    between atoms: N_5  and  C_21
REMARK    5  A    between atoms: N_6  and  C_23
REMARK    6  A    between atoms: C_7  and  C_11
REMARK    7  A    between atoms: C_8  and  C_14
REMARK    8  A    between atoms: C_10  and  C_15
REMARK    9  A    between atoms: C_11  and  C_16
REMARK   10  A    between atoms: C_11  and  C_17
REMARK   11  A    between atoms: C_12  and  C_18
REMARK   12  A    between atoms: C_15  and  C_19
REMARK   13  A    between atoms: C_21  and  C_22
REMARK   14  A    between atoms: C_23  and  C_26
REMARK                            x       y       z     vdW  Elec       q    Type
REMARK                         _______ _______ _______ _____ _____    ______ ____
ROOT
ATOM      7  C   UNL     1      -2.822   2.398  23.972  0.00  0.00    +0.000 C 
ATOM      8  C   UNL     1      -1.570   3.022  24.636  0.00  0.00    +0.032 C 
ATOM      9  C   UNL     1      -3.897   3.470  23.738  0.00  0.00    +0.012 C 
ATOM     10  C   UNL     1      -4.330   4.154  25.049  0.00  0.00    +0.023 C 
ATOM     12  C   UNL     1      -3.138   4.563  25.892  0.00  0.00    -0.073 C 
ATOM     13  C   UNL     1      -1.910   4.055  25.684  0.00  0.00    -0.022 C 
ATOM     18  C   UNL     1      -3.382   5.601  26.951  0.00  0.00    +0.039 C 
ENDROOT
BRANCH   7  11
ATOM     11  C   UNL     1      -2.479   1.711  22.646  0.00  0.00    -0.013 C 
ATOM     16  C   UNL     1      -3.178   0.357  22.552  0.00  0.00    +0.007 C 
ATOM     17  C   UNL     1      -2.864   2.601  21.470  0.00  0.00    +0.007 C 
ENDBRANCH   7  11
BRANCH   8  14
ATOM     14  C   UNL     1      -0.675   1.942  25.256  0.00  0.00    +0.113 C 
BRANCH  14   4
ATOM      2  O   UNL     1       0.515   0.100  23.381  0.00  0.00    -0.253 OA
ATOM      4  N   UNL     1       0.644   2.002  24.710  0.00  0.00    -0.299 N 
ATOM      6  N   UNL     1       2.461   1.362  23.430  0.00  0.00    -0.300 N 
ATOM     20  C   UNL     1       1.151   1.065  23.800  0.00  0.00    +0.300 C 
ATOM     31  H   UNL     1       1.228   2.800  24.940  0.00  0.00    +0.150 HD
ATOM     33  H   UNL     1       2.912   2.174  23.840  0.00  0.00    +0.150 HD
BRANCH   6  23
ATOM     23  C   UNL     1       3.214   0.552  22.502  0.00  0.00    +0.102 C 
ATOM     26  C   UNL     1       4.653   0.393  22.946  0.00  0.00    +0.024 C 
ENDBRANCH   6  23
ENDBRANCH  14   4
ENDBRANCH   8  14
BRANCH  10  15
ATOM     15  C   UNL     1      -5.288   3.263  25.847  0.00  0.00    +0.103 C 
BRANCH  15  19
ATOM      1  O   UNL     1      -6.483   1.997  24.167  0.00  0.00    -0.276 OA
ATOM      5  N   UNL     1      -4.982   0.908  25.568  0.00  0.00    -0.311 N 
ATOM     19  C   UNL     1      -5.669   2.013  25.086  0.00  0.00    +0.214 C 
ATOM     32  H   UNL     1      -4.323   1.022  26.333  0.00  0.00    +0.149 HD
BRANCH   5  21
ATOM     21  C   UNL     1      -5.149  -0.421  25.029  0.00  0.00    +0.139 C 
BRANCH  21  22
ATOM     22  C   UNL     1      -3.864  -1.196  25.034  0.00  0.00    -0.030 A 
ATOM     24  C   UNL     1      -2.783  -0.752  25.796  0.00  0.00    +0.009 A 
ATOM     25  C   UNL     1      -3.751  -2.363  24.277  0.00  0.00    +0.009 A 
ATOM     27  C   UNL     1      -1.589  -1.473  25.799  0.00  0.00    +0.046 A 
ATOM     28  C   UNL     1      -2.558  -3.085  24.281  0.00  0.00    +0.046 A 
ATOM     29  C   UNL     1      -1.476  -2.639  25.042  0.00  0.00    +0.120 A 
BRANCH  29   3
ATOM      3  O   UNL     1      -0.311  -3.343  25.048  0.00  0.00    -0.495 OA
ATOM     30  C   UNL     1       0.871  -2.638  25.424  0.00  0.00    +0.277 C 
ENDBRANCH  29   3
ENDBRANCH  21  22
ENDBRANCH   5  21
ENDBRANCH  15  19
ENDBRANCH  10  15
TORSDOF 9
ENDMDL
MODEL 3
REMARK VINA RESULT:      -2.9      2.169      5.571
REMARK  Name = 38027741
REMARK  14 active torsions:
REMARK  status: ('A' for Active; 'I' for Inactive)
REMARK    1  A    between atoms: O_3  and  C_29
REMARK    2  A    between atoms: O_3  and  C_30
REMARK    3  A    between atoms: N_4  and  C_14
REMARK    4  A    between atoms: N_5  and  C_21
REMARK    5  A    between atoms: N_6  and  C_23
REMARK    6  A    between atoms: C_7  and  C_11
REMARK    7  A    between atoms: C_8  and  C_14
REMARK    8  A    between atoms: C_10  and  C_15
REMARK    9  A    between atoms: C_11  and  C_16
REMARK   10  A    between atoms: C_11  and  C_17
REMARK   11  A    between atoms: C_12  and  C_18
REMARK   12  A    between atoms: C_15  and  C_19
REMARK   13  A    between atoms: C_21  and  C_22
REMARK   14  A    between atoms: C_23  and  C_26
REMARK                            x       y       z     vdW  Elec       q    Type
REMARK                         _______ _______ _______ _____ _____    ______ ____
ROOT
ATOM      7  C   UNL     1      -3.540   2.328  23.904  0.00  0.00    +0.000 C 
ATOM      8  C   UNL     1      -4.200   3.562  24.568  0.00  0.00    +0.032 C 
ATOM      9  C   UNL     1      -4.582   1.225  23.665  0.00  0.00    +0.012 C 
ATOM     10  C   UNL     1      -5.258   0.772  24.973  0.00  0.00    +0.023 C 
ATOM     12  C   UNL     1      -5.701   1.950  25.816  0.00  0.00    -0.073 C 
ATOM     13  C   UNL     1      -5.227   3.192  25.612  0.00  0.00    -0.022 C 
ATOM     18  C   UNL     1      -6.736   1.676  26.872  0.00  0.00    +0.039 C 
ENDROOT
BRANCH   7  11
ATOM     11  C   UNL     1      -2.858   2.692  22.580  0.00  0.00    -0.013 C 
ATOM     16  C   UNL     1      -2.337   1.436  21.888  0.00  0.00    +0.007 C 
ATOM     17  C   UNL     1      -3.825   3.447  21.674  0.00  0.00    +0.007 C 
ENDBRANCH   7  11
BRANCH   8  14
ATOM     14  C   UNL     1      -3.146   4.484  25.193  0.00  0.00    +0.113 C 
BRANCH  14   4
ATOM      2  O   UNL     1      -0.297   4.038  25.114  0.00  0.00    -0.253 OA
ATOM      4  N   UNL     1      -2.359   3.777  26.153  0.00  0.00    -0.299 N 
ATOM      6  N   UNL     1      -0.459   2.876  27.116  0.00  0.00    -0.300 N 
ATOM     20  C   UNL     1      -0.973   3.602  26.044  0.00  0.00    +0.300 C 
ATOM     31  H   UNL     1      -2.812   3.436  26.995  0.00  0.00    +0.150 HD
ATOM     33  H   UNL     1      -1.097   2.544  27.832  0.00  0.00    +0.150 HD
BRANCH   6  23
ATOM     23  C   UNL     1       0.944   2.558  27.243  0.00  0.00    +0.102 C 
ATOM     26  C   UNL     1       1.377   2.534  28.695  0.00  0.00    +0.024 C 
ENDBRANCH   6  23
ENDBRANCH  14   4
ENDBRANCH   8  14
BRANCH  10  15
ATOM     15  C   UNL     1      -4.344  -0.163  25.772  0.00  0.00    +0.103 C 
BRANCH  15  19
ATOM      1  O   UNL     1      -4.097  -2.083  24.320  0.00  0.00    -0.276 OA
ATOM      5  N   UNL     1      -2.248  -0.752  24.783  0.00  0.00    -0.311 N 
ATOM     19  C   UNL     1      -3.584  -1.117  24.878  0.00  0.00    +0.214 C 
ATOM     32  H   UNL     1      -1.916   0.068  25.281  0.00  0.00    +0.149 HD
BRANCH   5  21
ATOM     21  C   UNL     1      -1.285  -1.486  23.996  0.00  0.00    +0.139 C 
BRANCH  21  22
ATOM     22  C   UNL     1      -0.062  -0.667  23.697  0.00  0.00    -0.030 A 
ATOM     24  C   UNL     1       0.110   0.578  24.303  0.00  0.00    +0.009 A 
ATOM     25  C   UNL     1       0.904  -1.154  22.816  0.00  0.00    +0.009 A 
ATOM     27  C   UNL     1       1.246   1.337  24.025  0.00  0.00    +0.046 A 
ATOM     28  C   UNL     1       2.040  -0.394  22.538  0.00  0.00    +0.046 A 
ATOM     29  C   UNL     1       2.211   0.852  23.143  0.00  0.00    +0.120 A 
BRANCH  29   3
ATOM      3  O   UNL     1       3.321   1.593  22.874  0.00  0.00    -0.495 OA
ATOM     30  C   UNL     1       4.579   0.923  22.941  0.00  0.00    +0.277 C 
ENDBRANCH  29   3
ENDBRANCH  21  22
ENDBRANCH   5  21
ENDBRANCH  15  19
ENDBRANCH  10  15
TORSDOF 9
ENDMDL
MODEL 4
REMARK VINA RESULT:      -2.9      1.976      5.093
REMARK  Name = 38027741
REMARK  14 active torsions:
REMARK  status: ('A' for Active; 'I' for Inactive)
REMARK    1  A    between atoms: O_3  and  C_29
REMARK    2  A    between atoms: O_3  and  C_30
REMARK    3  A    between atoms: N_4  and  C_14
REMARK    4  A    between atoms: N_5  and  C_21
REMARK    5  A    between atoms: N_6  and  C_23
REMARK    6  A    between atoms: C_7  and  C_11
REMARK    7  A    between atoms: C_8  and  C_14
REMARK    8  A    between atoms: C_10  and  C_15
REMARK    9  A    between atoms: C_11  and  C_16
REMARK   10  A    between atoms: C_11  and  C_17
REMARK   11  A    between atoms: C_12  and  C_18
REMARK   12  A    between atoms: C_15  and  C_19
REMARK   13  A    between atoms: C_21  and  C_22
REMARK   14  A    between atoms: C_23  and  C_26
REMARK                            x       y       z     vdW  Elec       q    Type
REMARK                         _______ _______ _______ _____ _____    ______ ____
ROOT
ATOM      7  C   UNL     1      -2.860   2.302  23.641  0.00  0.00    +0.000 C 
ATOM      8  C   UNL     1      -1.462   2.847  24.026  0.00  0.00    +0.032 C 
ATOM      9  C   UNL     1      -3.842   3.460  23.409  0.00  0.00    +0.012 C 
ATOM     10  C   UNL     1      -3.992   4.355  24.654  0.00  0.00    +0.023 C 
ATOM     12  C   UNL     1      -2.648   4.717  25.253  0.00  0.00    -0.073 C 
ATOM     13  C   UNL     1      -1.526   4.040  24.950  0.00  0.00    -0.022 C 
ATOM     18  C   UNL     1      -2.616   5.905  26.174  0.00  0.00    +0.039 C 
ENDROOT
BRANCH   7  11
ATOM     11  C   UNL     1      -2.800   1.415  22.394  0.00  0.00    -0.013 C 
ATOM     16  C   UNL     1      -2.507   2.257  21.155  0.00  0.00    +0.007 C 
ATOM     17  C   UNL     1      -1.748   0.324  22.567  0.00  0.00    +0.007 C 
ENDBRANCH   7  11
BRANCH   8  14
ATOM     14  C   UNL     1      -0.597   1.753  24.664  0.00  0.00    +0.113 C 
BRANCH  14   4
ATOM      2  O   UNL     1       1.021  -0.129  23.192  0.00  0.00    -0.253 OA
ATOM      4  N   UNL     1       0.773   1.906  24.287  0.00  0.00    -0.299 N 
ATOM      6  N   UNL     1       2.805   1.347  23.336  0.00  0.00    -0.300 N 
ATOM     20  C   UNL     1       1.493   0.942  23.569  0.00  0.00    +0.300 C 
ATOM     31  H   UNL     1       1.236   2.786  24.491  0.00  0.00    +0.150 HD
ATOM     33  H   UNL     1       3.111   2.245  23.698  0.00  0.00    +0.150 HD
BRANCH   6  23
ATOM     23  C   UNL     1       3.758   0.535  22.616  0.00  0.00    +0.102 C 
ATOM     26  C   UNL     1       5.037   0.349  23.406  0.00  0.00    +0.024 C 
ENDBRANCH   6  23
ENDBRANCH  14   4
ENDBRANCH   8  14
BRANCH  10  15
ATOM     15  C   UNL     1      -4.900   3.698  25.699  0.00  0.00    +0.103 C 
BRANCH  15  19
ATOM      1  O   UNL     1      -6.521   2.337  24.526  0.00  0.00    -0.276 OA
ATOM      5  N   UNL     1      -4.736   1.314  25.608  0.00  0.00    -0.311 N 
ATOM     19  C   UNL     1      -5.497   2.401  25.200  0.00  0.00    +0.214 C 
ATOM     32  H   UNL     1      -3.900   1.468  26.163  0.00  0.00    +0.149 HD
BRANCH   5  21
ATOM     21  C   UNL     1      -5.071  -0.051  25.276  0.00  0.00    +0.139 C 
BRANCH  21  22
ATOM     22  C   UNL     1      -3.851  -0.920  25.169  0.00  0.00    -0.030 A 
ATOM     24  C   UNL     1      -3.858  -2.034  24.329  0.00  0.00    +0.009 A 
ATOM     25  C   UNL     1      -2.709  -0.611  25.908  0.00  0.00    +0.009 A 
ATOM     27  C   UNL     1      -2.724  -2.840  24.231  0.00  0.00    +0.046 A 
ATOM     28  C   UNL     1      -1.575  -1.417  25.810  0.00  0.00    +0.046 A 
ATOM     29  C   UNL     1      -1.583  -2.532  24.971  0.00  0.00    +0.120 A 
BRANCH  29   3
ATOM      3  O   UNL     1      -0.476  -3.318  24.872  0.00  0.00    -0.495 OA
ATOM     30  C   UNL     1       0.727  -2.819  25.455  0.00  0.00    +0.277 C 
ENDBRANCH  29   3
ENDBRANCH  21  22
ENDBRANCH   5  21
ENDBRANCH  15  19
ENDBRANCH  10  15
TORSDOF 9
ENDMDL
MODEL 5
REMARK VINA RESULT:      -2.1      1.999      6.949
REMARK  Name = 38027741
REMARK  14 active torsions:
REMARK  status: ('A' for Active; 'I' for Inactive)
REMARK    1  A    between atoms: O_3  and  C_29
REMARK    2  A    between atoms: O_3  and  C_30
REMARK    3  A    between atoms: N_4  and  C_14
REMARK    4  A    between atoms: N_5  and  C_21
REMARK    5  A    between atoms: N_6  and  C_23
REMARK    6  A    between atoms: C_7  and  C_11
REMARK    7  A    between atoms: C_8  and  C_14
REMARK    8  A    between atoms: C_10  and  C_15
REMARK    9  A    between atoms: C_11  and  C_16
REMARK   10  A    between atoms: C_11  and  C_17
REMARK   11  A    between atoms: C_12  and  C_18
REMARK   12  A    between atoms: C_15  and  C_19
REMARK   13  A    between atoms: C_21  and  C_22
REMARK   14  A    between atoms: C_23  and  C_26
REMARK                            x       y       z     vdW  Elec       q    Type
REMARK                         _______ _______ _______ _____ _____    ______ ____
ROOT
ATOM      7  C   UNL     1      -3.772   3.028  25.576  0.00  0.00    +0.000 C 
ATOM      8  C   UNL     1      -3.751   3.270  24.046  0.00  0.00    +0.032 C 
ATOM      9  C   UNL     1      -2.907   4.072  26.297  0.00  0.00    +0.012 C 
ATOM     10  C   UNL     1      -1.443   4.044  25.818  0.00  0.00    +0.023 C 
ATOM     12  C   UNL     1      -1.344   4.011  24.307  0.00  0.00    -0.073 C 
ATOM     13  C   UNL     1      -2.390   3.674  23.531  0.00  0.00    -0.022 C 
ATOM     18  C   UNL     1      -0.027   4.415  23.705  0.00  0.00    +0.039 C 
ENDROOT
BRANCH   7  11
ATOM     11  C   UNL     1      -5.198   3.060  26.136  0.00  0.00    -0.013 C 
ATOM     16  C   UNL     1      -5.962   4.258  25.578  0.00  0.00    +0.007 C 
ATOM     17  C   UNL     1      -5.925   1.759  25.816  0.00  0.00    +0.007 C 
ENDBRANCH   7  11
BRANCH   8  14
ATOM     14  C   UNL     1      -4.238   2.033  23.283  0.00  0.00    +0.113 C 
BRANCH  14   4
ATOM      2  O   UNL     1      -4.800  -0.656  24.167  0.00  0.00    -0.253 OA
ATOM      4  N   UNL     1      -3.307   0.957  23.413  0.00  0.00    -0.299 N 
ATOM      6  N   UNL     1      -2.558  -1.179  23.885  0.00  0.00    -0.300 N 
ATOM     20  C   UNL     1      -3.659  -0.326  23.852  0.00  0.00    +0.300 C 
ATOM     31  H   UNL     1      -2.349   1.106  23.112  0.00  0.00    +0.150 HD
ATOM     33  H   UNL     1      -1.649  -0.815  23.619  0.00  0.00    +0.150 HD
BRANCH   6  23
ATOM     23  C   UNL     1      -2.651  -2.560  24.301  0.00  0.00    +0.102 C 
ATOM     26  C   UNL     1      -3.225  -2.681  25.697  0.00  0.00    +0.024 C 
ENDBRANCH   6  23
ENDBRANCH  14   4
ENDBRANCH   8  14
BRANCH  10  15
ATOM     15  C   UNL     1      -0.679   2.872  26.445  0.00  0.00    +0.103 C 
BRANCH  15  19
ATOM      1  O   UNL     1      -1.526   0.732  25.695  0.00  0.00    -0.276 OA
ATOM      5  N   UNL     1       0.302   1.682  24.617  0.00  0.00    -0.311 N 
ATOM     19  C   UNL     1      -0.709   1.640  25.567  0.00  0.00    +0.214 C 
ATOM     32  H   UNL     1       0.929   2.480  24.588  0.00  0.00    +0.149 HD
BRANCH   5  21
ATOM     21  C   UNL     1       0.513   0.636  23.644  0.00  0.00    +0.139 C 
BRANCH  21  22
ATOM     22  C   UNL     1       1.972   0.391  23.389  0.00  0.00    -0.030 A 
ATOM     24  C   UNL     1       2.513  -0.880  23.590  0.00  0.00    +0.009 A 
ATOM     25  C   UNL     1       2.787   1.434  22.948  0.00  0.00    +0.009 A 
ATOM     27  C   UNL     1       3.868  -1.106  23.353  0.00  0.00    +0.046 A 
ATOM     28  C   UNL     1       4.142   1.208  22.711  0.00  0.00    +0.046 A 
ATOM     29  C   UNL     1       4.683  -0.063  22.913  0.00  0.00    +0.120 A 
BRANCH  29   3
ATOM      3  O   UNL     1       6.005  -0.285  22.679  0.00  0.00    -0.495 OA
ATOM     30  C   UNL     1       6.859  -0.374  23.819  0.00  0.00    +0.277 C 
ENDBRANCH  29   3
ENDBRANCH  21  22
ENDBRANCH   5  21
ENDBRANCH  15  19
ENDBRANCH  10  15
TORSDOF 9
ENDMDL
MODEL 6
REMARK VINA RESULT:      -1.8      2.044      5.645
REMARK  Name = 38027741
REMARK  14 active torsions:
REMARK  status: ('A' for Active; 'I' for Inactive)
REMARK    1  A    between atoms: O_3  and  C_29
REMARK    2  A    between atoms: O_3  and  C_30
REMARK    3  A    between atoms: N_4  and  C_14
REMARK    4  A    between atoms: N_5  and  C_21
REMARK    5  A    between atoms: N_6  and  C_23
REMARK    6  A    between atoms: C_7  and  C_11
REMARK    7  A    between atoms: C_8  and  C_14
REMARK    8  A    between atoms: C_10  and  C_15
REMARK    9  A    between atoms: C_11  and  C_16
REMARK   10  A    between atoms: C_11  and  C_17
REMARK   11  A    between atoms: C_12  and  C_18
REMARK   12  A    between atoms: C_15  and  C_19
REMARK   13  A    between atoms: C_21  and  C_22
REMARK   14  A    between atoms: C_23  and  C_26
REMARK                            x       y       z     vdW  Elec       q    Type
REMARK                         _______ _______ _______ _____ _____    ______ ____
ROOT
ATOM      7  C   UNL     1      -3.074   1.944  24.823  0.00  0.00    +0.000 C 
ATOM      8  C   UNL     1      -2.479   2.351  23.451  0.00  0.00    +0.032 C 
ATOM      9  C   UNL     1      -3.484   3.190  25.622  0.00  0.00    +0.012 C 
ATOM     10  C   UNL     1      -2.296   4.140  25.868  0.00  0.00    +0.023 C 
ATOM     12  C   UNL     1      -1.495   4.379  24.604  0.00  0.00    -0.073 C 
ATOM     13  C   UNL     1      -1.600   3.576  23.530  0.00  0.00    -0.022 C 
ATOM     18  C   UNL     1      -0.603   5.589  24.587  0.00  0.00    +0.039 C 
ENDROOT
BRANCH   7  11
ATOM     11  C   UNL     1      -4.279   1.010  24.665  0.00  0.00    -0.013 C 
ATOM     16  C   UNL     1      -5.580   1.806  24.724  0.00  0.00    +0.007 C 
ATOM     17  C   UNL     1      -4.181   0.232  23.357  0.00  0.00    +0.007 C 
ENDBRANCH   7  11
BRANCH   8  14
ATOM     14  C   UNL     1      -1.690   1.195  22.825  0.00  0.00    +0.113 C 
BRANCH  14   4
ATOM      2  O   UNL     1       0.448  -0.504  21.895  0.00  0.00    -0.253 OA
ATOM      4  N   UNL     1      -0.315   1.253  23.210  0.00  0.00    -0.299 N 
ATOM      6  N   UNL     1       1.921   0.666  23.253  0.00  0.00    -0.300 N 
ATOM     20  C   UNL     1       0.668   0.389  22.711  0.00  0.00    +0.300 C 
ATOM     31  H   UNL     1      -0.016   2.001  23.828  0.00  0.00    +0.150 HD
ATOM     33  H   UNL     1       2.004   1.416  23.932  0.00  0.00    +0.150 HD
BRANCH   6  23
ATOM     23  C   UNL     1       3.106  -0.081  22.904  0.00  0.00    +0.102 C 
ATOM     26  C   UNL     1       4.299   0.831  22.707  0.00  0.00    +0.024 C 
ENDBRANCH   6  23
ENDBRANCH  14   4
ENDBRANCH   8  14
BRANCH  10  15
ATOM     15  C   UNL     1      -1.398   3.621  26.996  0.00  0.00    +0.103 C 
BRANCH  15  19
ATOM      1  O   UNL     1       0.624   2.732  26.009  0.00  0.00    -0.276 OA
ATOM      5  N   UNL     1      -1.022   1.271  26.757  0.00  0.00    -0.311 N 
ATOM     19  C   UNL     1      -0.470   2.523  26.526  0.00  0.00    +0.214 C 
ATOM     32  H   UNL     1      -1.936   1.200  27.195  0.00  0.00    +0.149 HD
BRANCH   5  21
ATOM     21  C   UNL     1      -0.356   0.039  26.406  0.00  0.00    +0.139 C 
BRANCH  21  22
ATOM     22  C   UNL     1      -1.304  -0.964  25.816  0.00  0.00    -0.030 A 
ATOM     24  C   UNL     1      -0.914  -1.730  24.716  0.00  0.00    +0.009 A 
ATOM     25  C   UNL     1      -2.573  -1.133  26.368  0.00  0.00    +0.009 A 
ATOM     27  C   UNL     1      -1.795  -2.662  24.169  0.00  0.00    +0.046 A 
ATOM     28  C   UNL     1      -3.455  -2.065  25.821  0.00  0.00    +0.046 A 
ATOM     29  C   UNL     1      -3.065  -2.830  24.720  0.00  0.00    +0.120 A 
BRANCH  29   3
ATOM      3  O   UNL     1      -3.924  -3.741  24.187  0.00  0.00    -0.495 OA
ATOM     30  C   UNL     1      -4.835  -3.270  23.195  0.00  0.00    +0.277 C 
ENDBRANCH  29   3
ENDBRANCH  21  22
ENDBRANCH   5  21
ENDBRANCH  15  19
ENDBRANCH  10  15
TORSDOF 9
ENDMDL
MODEL 7
REMARK VINA RESULT:      -1.8      1.739      3.575
REMARK  Name = 38027741
REMARK  14 active torsions:
REMARK  status: ('A' for Active; 'I' for Inactive)
REMARK    1  A    between atoms: O_3  and  C_29
REMARK    2  A    between atoms: O_3  and  C_30
REMARK    3  A    between atoms: N_4  and  C_14
REMARK    4  A    between atoms: N_5  and  C_21
REMARK    5  A    between atoms: N_6  and  C_23
REMARK    6  A    between atoms: C_7  and  C_11
REMARK    7  A    between atoms: C_8  and  C_14
REMARK    8  A    between atoms: C_10  and  C_15
REMARK    9  A    between atoms: C_11  and  C_16
REMARK   10  A    between atoms: C_11  and  C_17
REMARK   11  A    between atoms: C_12  and  C_18
REMARK   12  A    between atoms: C_15  and  C_19
REMARK   13  A    between atoms: C_21  and  C_22
REMARK   14  A    between atoms: C_23  and  C_26
REMARK                            x       y       z     vdW  Elec       q    Type
REMARK                         _______ _______ _______ _____ _____    ______ ____
ROOT
ATOM      7  C   UNL     1      -3.483  -0.772  25.052  0.00  0.00    +0.000 C 
ATOM      8  C   UNL     1      -2.268  -0.041  24.427  0.00  0.00    +0.032 C 
ATOM      9  C   UNL     1      -4.742  -0.542  24.204  0.00  0.00    +0.012 C 
ATOM     10  C   UNL     1      -5.089   0.953  24.069  0.00  0.00    +0.023 C 
ATOM     12  C   UNL     1      -3.873   1.784  23.713  0.00  0.00    -0.073 C 
ATOM     13  C   UNL     1      -2.621   1.318  23.868  0.00  0.00    -0.022 C 
ATOM     18  C   UNL     1      -4.130   3.146  23.133  0.00  0.00    +0.039 C 
ENDROOT
BRANCH   7  11
ATOM     11  C   UNL     1      -3.226  -2.275  25.202  0.00  0.00    -0.013 C 
ATOM     16  C   UNL     1      -4.073  -3.061  24.205  0.00  0.00    +0.007 C 
ATOM     17  C   UNL     1      -1.744  -2.582  25.012  0.00  0.00    +0.007 C 
ENDBRANCH   7  11
BRANCH   8  14
ATOM     14  C   UNL     1      -1.128   0.105  25.441  0.00  0.00    +0.113 C 
BRANCH  14   4
ATOM      2  O   UNL     1       0.495  -1.033  23.343  0.00  0.00    -0.253 OA
ATOM      4  N   UNL     1       0.023   0.691  24.828  0.00  0.00    -0.299 N 
ATOM      6  N   UNL     1       1.830   0.864  23.396  0.00  0.00    -0.300 N 
ATOM     20  C   UNL     1       0.761   0.073  23.810  0.00  0.00    +0.300 C 
ATOM     31  H   UNL     1       0.286   1.634  25.096  0.00  0.00    +0.150 HD
ATOM     33  H   UNL     1       1.981   1.759  23.851  0.00  0.00    +0.150 HD
BRANCH   6  23
ATOM     23  C   UNL     1       2.747   0.457  22.357  0.00  0.00    +0.102 C 
ATOM     26  C   UNL     1       4.181   0.768  22.731  0.00  0.00    +0.024 C 
ENDBRANCH   6  23
ENDBRANCH  14   4
ENDBRANCH   8  14
BRANCH  10  15
ATOM     15  C   UNL     1      -5.761   1.481  25.342  0.00  0.00    +0.103 C 
BRANCH  15  19
ATOM      1  O   UNL     1      -5.837   3.898  25.426  0.00  0.00    -0.276 OA
ATOM      5  N   UNL     1      -4.073   2.772  26.437  0.00  0.00    -0.311 N 
ATOM     19  C   UNL     1      -5.259   2.856  25.722  0.00  0.00    +0.214 C 
ATOM     32  H   UNL     1      -3.671   1.861  26.637  0.00  0.00    +0.149 HD
BRANCH   5  21
ATOM     21  C   UNL     1      -3.365   3.932  26.928  0.00  0.00    +0.139 C 
BRANCH  21  22
ATOM     22  C   UNL     1      -2.243   4.334  26.016  0.00  0.00    -0.030 A 
ATOM     24  C   UNL     1      -1.120   3.515  25.887  0.00  0.00    +0.009 A 
ATOM     25  C   UNL     1      -2.324   5.525  25.295  0.00  0.00    +0.009 A 
ATOM     27  C   UNL     1      -0.078   3.889  25.038  0.00  0.00    +0.046 A 
ATOM     28  C   UNL     1      -1.282   5.900  24.447  0.00  0.00    +0.046 A 
ATOM     29  C   UNL     1      -0.159   5.081  24.319  0.00  0.00    +0.120 A 
BRANCH  29   3
ATOM      3  O   UNL     1       0.858   5.445  23.490  0.00  0.00    -0.495 OA
ATOM     30  C   UNL     1       0.575   5.474  22.091  0.00  0.00    +0.277 C 
ENDBRANCH  29   3
ENDBRANCH  21  22
ENDBRANCH   5  21
ENDBRANCH  15  19
ENDBRANCH  10  15
TORSDOF 9
ENDMDL
