MODEL 1
REMARK VINA RESULT:      -5.2      0.000      0.000
REMARK  Name = 11866342
REMARK  10 active torsions:
REMARK  status: ('A' for Active; 'I' for Inactive)
REMARK    1  A    between atoms: S_1  and  N_11
REMARK    2  A    between atoms: S_1  and  C_21
REMARK    3  A    between atoms: O_5  and  C_14
REMARK    4  A    between atoms: O_6  and  C_16
REMARK    5  A    between atoms: N_11  and  C_15
REMARK    6  A    between atoms: N_12  and  C_23
REMARK    7  A    between atoms: C_19  and  C_20
REMARK    8  A    between atoms: C_23  and  C_26
REMARK    9  A    between atoms: C_25  and  C_29
REMARK   10  A    between atoms: C_26  and  C_30
REMARK                            x       y       z     vdW  Elec       q    Type
REMARK                         _______ _______ _______ _____ _____    ______ ____
ROOT
ATOM     14  C   UNL     1      -1.848   4.106  25.800  0.00  0.00    +0.166 C 
ATOM     15  C   UNL     1      -2.682   3.155  24.923  0.00  0.00    +0.131 C 
ATOM     16  C   UNL     1      -0.600   4.601  25.059  0.00  0.00    +0.149 C 
ATOM     17  C   UNL     1       0.273   3.438  24.554  0.00  0.00    +0.074 C 
ATOM     18  C   UNL     1      -1.850   2.138  24.190  0.00  0.00    +0.004 C 
ATOM     19  C   UNL     1      -0.525   2.273  24.038  0.00  0.00    +0.014 C 
ENDROOT
BRANCH  19  20
ATOM      9  O   UNL     1      -0.428   0.415  22.606  0.00  0.00    -0.271 OA
ATOM     12  N   UNL     1       1.554   1.259  23.496  0.00  0.00    -0.311 N 
ATOM     20  C   UNL     1       0.184   1.222  23.304  0.00  0.00    +0.240 C 
ATOM     34  H   UNL     1       1.958   1.965  24.105  0.00  0.00    +0.149 HD
BRANCH  12  23
ATOM     23  C   UNL     1       2.463   0.321  22.878  0.00  0.00    +0.113 C 
BRANCH  23  26
ATOM     26  C   UNL     1       3.886   0.860  22.806  0.00  0.00    +0.114 C 
BRANCH  26  30
ATOM     10  O   UNL     1       6.121   0.149  23.438  0.00  0.00    -0.276 OA
ATOM     13  N   UNL     1       4.346  -1.243  23.885  0.00  0.00    -0.329 N 
ATOM     30  C   UNL     1       4.917  -0.084  23.401  0.00  0.00    +0.212 C 
ATOM     35  H   UNL     1       4.916  -1.967  24.307  0.00  0.00    +0.145 HD
ATOM     36  H   UNL     1       3.347  -1.416  23.840  0.00  0.00    +0.145 HD
ENDBRANCH  26  30
ENDBRANCH  23  26
ENDBRANCH  12  23
ENDBRANCH  19  20
BRANCH  14   5
ATOM      5  O   UNL     1      -1.435   3.430  26.990  0.00  0.00    -0.387 OA
ATOM     32  H   UNL     1      -2.187   2.898  27.302  0.00  0.00    +0.210 HD
ENDBRANCH  14   5
BRANCH  16   6
ATOM      6  O   UNL     1      -0.977   5.439  23.968  0.00  0.00    -0.389 OA
ATOM     33  H   UNL     1      -1.243   6.299  24.336  0.00  0.00    +0.210 HD
ENDBRANCH  16   6
BRANCH  15  11
ATOM     11  N   UNL     1      -3.689   2.455  25.758  0.00  0.00    -0.181 NA
ATOM     31  H   UNL     1      -3.474   2.325  26.754  0.00  0.00    +0.149 HD
BRANCH  11   1
ATOM      1  S   UNL     1      -4.934   1.572  25.014  0.00  0.00    +0.059 S 
ATOM      7  O   UNL     1      -5.228   2.151  23.717  0.00  0.00    -0.153 OA
ATOM      8  O   UNL     1      -5.997   1.364  25.979  0.00  0.00    -0.153 OA
BRANCH   1  21
ATOM     21  C   UNL     1      -4.162   0.004  24.749  0.00  0.00    +0.106 A 
ATOM     22  C   UNL     1      -2.876  -0.231  25.233  0.00  0.00    +0.041 A 
ATOM     24  C   UNL     1      -4.841  -0.998  24.056  0.00  0.00    +0.028 A 
ATOM     25  C   UNL     1      -2.267  -1.469  25.024  0.00  0.00    +0.057 A 
ATOM     27  C   UNL     1      -4.233  -2.236  23.848  0.00  0.00    +0.002 A 
ATOM     28  C   UNL     1      -2.946  -2.471  24.331  0.00  0.00    +0.012 A 
BRANCH  25  29
ATOM      2  F   UNL     1      -0.614  -3.043  25.738  0.00  0.00    -0.166 F 
ATOM      3  F   UNL     1       0.096  -1.270  24.712  0.00  0.00    -0.166 F 
ATOM      4  F   UNL     1      -0.663  -1.116  26.744  0.00  0.00    -0.166 F 
ATOM     29  C   UNL     1      -0.891  -1.720  25.541  0.00  0.00    +0.417 C 
ENDBRANCH  25  29
ENDBRANCH   1  21
ENDBRANCH  11   1
ENDBRANCH  15  11
TORSDOF 10
ENDMDL
MODEL 2
REMARK VINA RESULT:      -4.8      3.022      3.904
REMARK  Name = 11866342
REMARK  10 active torsions:
REMARK  status: ('A' for Active; 'I' for Inactive)
REMARK    1  A    between atoms: S_1  and  N_11
REMARK    2  A    between atoms: S_1  and  C_21
REMARK    3  A    between atoms: O_5  and  C_14
REMARK    4  A    between atoms: O_6  and  C_16
REMARK    5  A    between atoms: N_11  and  C_15
REMARK    6  A    between atoms: N_12  and  C_23
REMARK    7  A    between atoms: C_19  and  C_20
REMARK    8  A    between atoms: C_23  and  C_26
REMARK    9  A    between atoms: C_25  and  C_29
REMARK   10  A    between atoms: C_26  and  C_30
REMARK                            x       y       z     vdW  Elec       q    Type
REMARK                         _______ _______ _______ _____ _____    ______ ____
ROOT
ATOM     14  C   UNL     1      -1.282   0.465  25.564  0.00  0.00    +0.166 C 
ATOM     15  C   UNL     1      -1.573   0.001  24.125  0.00  0.00    +0.131 C 
ATOM     16  C   UNL     1      -0.347   1.681  25.581  0.00  0.00    +0.149 C 
ATOM     17  C   UNL     1       0.970   1.410  24.832  0.00  0.00    +0.074 C 
ATOM     18  C   UNL     1      -0.347  -0.042  23.254  0.00  0.00    +0.004 C 
ATOM     19  C   UNL     1       0.790   0.588  23.587  0.00  0.00    +0.014 C 
ENDROOT
BRANCH  19  20
ATOM      9  O   UNL     1       1.841  -0.207  21.642  0.00  0.00    -0.271 OA
ATOM     12  N   UNL     1       3.024   1.206  23.070  0.00  0.00    -0.311 N 
ATOM     20  C   UNL     1       1.920   0.478  22.662  0.00  0.00    +0.240 C 
ATOM     34  H   UNL     1       2.987   1.732  23.938  0.00  0.00    +0.149 HD
BRANCH  12  23
ATOM     23  C   UNL     1       4.260   1.252  22.323  0.00  0.00    +0.113 C 
BRANCH  23  26
ATOM     26  C   UNL     1       5.158   0.058  22.620  0.00  0.00    +0.114 C 
BRANCH  26  30
ATOM     10  O   UNL     1       5.429   0.379  25.013  0.00  0.00    -0.276 OA
ATOM     13  N   UNL     1       4.759  -1.679  24.237  0.00  0.00    -0.329 N 
ATOM     30  C   UNL     1       5.136  -0.362  24.080  0.00  0.00    +0.212 C 
ATOM     35  H   UNL     1       4.704  -2.098  25.159  0.00  0.00    +0.145 HD
ATOM     36  H   UNL     1       4.524  -2.275  23.450  0.00  0.00    +0.145 HD
ENDBRANCH  26  30
ENDBRANCH  23  26
ENDBRANCH  12  23
ENDBRANCH  19  20
BRANCH  14   5
ATOM      5  O   UNL     1      -0.667  -0.595  26.300  0.00  0.00    -0.387 OA
ATOM     32  H   UNL     1      -0.884  -0.464  27.239  0.00  0.00    +0.210 HD
ENDBRANCH  14   5
BRANCH  16   6
ATOM      6  O   UNL     1      -1.005   2.815  25.019  0.00  0.00    -0.389 OA
ATOM     33  H   UNL     1      -1.849   2.510  24.645  0.00  0.00    +0.210 HD
ENDBRANCH  16   6
BRANCH  15  11
ATOM     11  N   UNL     1      -2.206  -1.341  24.148  0.00  0.00    -0.181 NA
ATOM     31  H   UNL     1      -1.779  -2.077  23.573  0.00  0.00    +0.149 HD
BRANCH  11   1
ATOM      1  S   UNL     1      -3.772  -1.522  24.775  0.00  0.00    +0.059 S 
ATOM      7  O   UNL     1      -3.693  -1.991  26.146  0.00  0.00    -0.153 OA
ATOM      8  O   UNL     1      -4.582  -2.236  23.805  0.00  0.00    -0.153 OA
BRANCH   1  21
ATOM     21  C   UNL     1      -4.351   0.148  24.803  0.00  0.00    +0.106 A 
ATOM     22  C   UNL     1      -3.813   1.086  23.923  0.00  0.00    +0.041 A 
ATOM     24  C   UNL     1      -5.346   0.525  25.704  0.00  0.00    +0.028 A 
ATOM     25  C   UNL     1      -4.271   2.405  23.944  0.00  0.00    +0.057 A 
ATOM     27  C   UNL     1      -5.804   1.843  25.725  0.00  0.00    +0.002 A 
ATOM     28  C   UNL     1      -5.266   2.783  24.846  0.00  0.00    +0.012 A 
BRANCH  25  29
ATOM      2  F   UNL     1      -2.447   3.083  22.554  0.00  0.00    -0.166 F 
ATOM      3  F   UNL     1      -4.442   3.592  21.875  0.00  0.00    -0.166 F 
ATOM      4  F   UNL     1      -3.571   4.646  23.566  0.00  0.00    -0.166 F 
ATOM     29  C   UNL     1      -3.695   3.408  23.004  0.00  0.00    +0.417 C 
ENDBRANCH  25  29
ENDBRANCH   1  21
ENDBRANCH  11   1
ENDBRANCH  15  11
TORSDOF 10
ENDMDL
MODEL 3
REMARK VINA RESULT:      -4.7      2.589      4.443
REMARK  Name = 11866342
REMARK  10 active torsions:
REMARK  status: ('A' for Active; 'I' for Inactive)
REMARK    1  A    between atoms: S_1  and  N_11
REMARK    2  A    between atoms: S_1  and  C_21
REMARK    3  A    between atoms: O_5  and  C_14
REMARK    4  A    between atoms: O_6  and  C_16
REMARK    5  A    between atoms: N_11  and  C_15
REMARK    6  A    between atoms: N_12  and  C_23
REMARK    7  A    between atoms: C_19  and  C_20
REMARK    8  A    between atoms: C_23  and  C_26
REMARK    9  A    between atoms: C_25  and  C_29
REMARK   10  A    between atoms: C_26  and  C_30
REMARK                            x       y       z     vdW  Elec       q    Type
REMARK                         _______ _______ _______ _____ _____    ______ ____
ROOT
ATOM     14  C   UNL     1      -2.381  -1.411  25.164  0.00  0.00    +0.166 C 
ATOM     15  C   UNL     1      -2.370   0.051  24.681  0.00  0.00    +0.131 C 
ATOM     16  C   UNL     1      -0.985  -1.862  25.612  0.00  0.00    +0.149 C 
ATOM     17  C   UNL     1       0.067  -1.675  24.505  0.00  0.00    +0.074 C 
ATOM     18  C   UNL     1      -1.205   0.373  23.784  0.00  0.00    +0.004 C 
ATOM     19  C   UNL     1      -0.122  -0.414  23.709  0.00  0.00    +0.014 C 
ENDROOT
BRANCH  19  20
ATOM      9  O   UNL     1       0.949  -0.340  21.620  0.00  0.00    -0.271 OA
ATOM     12  N   UNL     1       1.916   0.773  23.426  0.00  0.00    -0.311 N 
ATOM     20  C   UNL     1       0.953  -0.001  22.803  0.00  0.00    +0.240 C 
ATOM     34  H   UNL     1       1.828   0.987  24.415  0.00  0.00    +0.149 HD
BRANCH  12  23
ATOM     23  C   UNL     1       3.075   1.296  22.738  0.00  0.00    +0.113 C 
BRANCH  23  26
ATOM     26  C   UNL     1       4.154   0.240  22.541  0.00  0.00    +0.114 C 
BRANCH  26  30
ATOM     10  O   UNL     1       5.472   0.696  24.530  0.00  0.00    -0.276 OA
ATOM     13  N   UNL     1       4.827  -1.468  24.098  0.00  0.00    -0.329 N 
ATOM     30  C   UNL     1       4.886  -0.118  23.823  0.00  0.00    +0.212 C 
ATOM     35  H   UNL     1       5.276  -1.852  24.923  0.00  0.00    +0.145 HD
ATOM     36  H   UNL     1       4.339  -2.124  23.497  0.00  0.00    +0.145 HD
ENDBRANCH  26  30
ENDBRANCH  23  26
ENDBRANCH  12  23
ENDBRANCH  19  20
BRANCH  14   5
ATOM      5  O   UNL     1      -2.821  -2.267  24.108  0.00  0.00    -0.387 OA
ATOM     32  H   UNL     1      -3.711  -1.975  23.845  0.00  0.00    +0.210 HD
ENDBRANCH  14   5
BRANCH  16   6
ATOM      6  O   UNL     1      -0.592  -1.153  26.785  0.00  0.00    -0.389 OA
ATOM     33  H   UNL     1      -1.231  -0.433  26.922  0.00  0.00    +0.210 HD
ENDBRANCH  16   6
BRANCH  15  11
ATOM     11  N   UNL     1      -3.636   0.354  23.969  0.00  0.00    -0.181 NA
ATOM     31  H   UNL     1      -3.647   0.237  22.949  0.00  0.00    +0.149 HD
BRANCH  11   1
ATOM      1  S   UNL     1      -4.858   1.227  24.759  0.00  0.00    +0.059 S 
ATOM      7  O   UNL     1      -5.233   0.538  25.979  0.00  0.00    -0.153 OA
ATOM      8  O   UNL     1      -5.871   1.593  23.786  0.00  0.00    -0.153 OA
BRANCH   1  21
ATOM     21  C   UNL     1      -4.014   2.714  25.208  0.00  0.00    +0.106 A 
ATOM     22  C   UNL     1      -2.669   2.878  24.880  0.00  0.00    +0.041 A 
ATOM     24  C   UNL     1      -4.694   3.722  25.891  0.00  0.00    +0.028 A 
ATOM     25  C   UNL     1      -2.002   4.052  25.234  0.00  0.00    +0.057 A 
ATOM     27  C   UNL     1      -4.028   4.895  26.245  0.00  0.00    +0.002 A 
ATOM     28  C   UNL     1      -2.682   5.060  25.917  0.00  0.00    +0.012 A 
BRANCH  25  29
ATOM      2  F   UNL     1      -0.244   3.758  23.641  0.00  0.00    -0.166 F 
ATOM      3  F   UNL     1      -0.155   5.530  24.887  0.00  0.00    -0.166 F 
ATOM      4  F   UNL     1       0.271   3.578  25.746  0.00  0.00    -0.166 F 
ATOM     29  C   UNL     1      -0.564   4.227  24.883  0.00  0.00    +0.417 C 
ENDBRANCH  25  29
ENDBRANCH   1  21
ENDBRANCH  11   1
ENDBRANCH  15  11
TORSDOF 10
ENDMDL
MODEL 4
REMARK VINA RESULT:      -4.4      2.514      4.844
REMARK  Name = 11866342
REMARK  10 active torsions:
REMARK  status: ('A' for Active; 'I' for Inactive)
REMARK    1  A    between atoms: S_1  and  N_11
REMARK    2  A    between atoms: S_1  and  C_21
REMARK    3  A    between atoms: O_5  and  C_14
REMARK    4  A    between atoms: O_6  and  C_16
REMARK    5  A    between atoms: N_11  and  C_15
REMARK    6  A    between atoms: N_12  and  C_23
REMARK    7  A    between atoms: C_19  and  C_20
REMARK    8  A    between atoms: C_23  and  C_26
REMARK    9  A    between atoms: C_25  and  C_29
REMARK   10  A    between atoms: C_26  and  C_30
REMARK                            x       y       z     vdW  Elec       q    Type
REMARK                         _______ _______ _______ _____ _____    ______ ____
ROOT
ATOM     14  C   UNL     1      -4.188  -1.903  24.344  0.00  0.00    +0.166 C 
ATOM     15  C   UNL     1      -3.748  -0.540  24.907  0.00  0.00    +0.131 C 
ATOM     16  C   UNL     1      -3.214  -3.017  24.749  0.00  0.00    +0.149 C 
ATOM     17  C   UNL     1      -1.768  -2.706  24.323  0.00  0.00    +0.074 C 
ATOM     18  C   UNL     1      -2.274  -0.278  24.749  0.00  0.00    +0.004 C 
ATOM     19  C   UNL     1      -1.399  -1.257  24.479  0.00  0.00    +0.014 C 
ENDROOT
BRANCH  19  20
ATOM      9  O   UNL     1       0.903  -1.628  24.761  0.00  0.00    -0.271 OA
ATOM     12  N   UNL     1       0.194   0.341  23.735  0.00  0.00    -0.311 N 
ATOM     20  C   UNL     1       0.012  -0.886  24.348  0.00  0.00    +0.240 C 
ATOM     34  H   UNL     1      -0.615   0.880  23.440  0.00  0.00    +0.149 HD
BRANCH  12  23
ATOM     23  C   UNL     1       1.497   0.920  23.497  0.00  0.00    +0.113 C 
BRANCH  23  26
ATOM     26  C   UNL     1       2.352   0.057  22.579  0.00  0.00    +0.114 C 
BRANCH  26  30
ATOM     10  O   UNL     1       4.663   0.711  22.945  0.00  0.00    -0.276 OA
ATOM     13  N   UNL     1       3.960  -1.347  23.691  0.00  0.00    -0.329 N 
ATOM     30  C   UNL     1       3.775  -0.125  23.079  0.00  0.00    +0.212 C 
ATOM     35  H   UNL     1       4.864  -1.607  24.070  0.00  0.00    +0.145 HD
ATOM     36  H   UNL     1       3.212  -2.025  23.787  0.00  0.00    +0.145 HD
ENDBRANCH  26  30
ENDBRANCH  23  26
ENDBRANCH  12  23
ENDBRANCH  19  20
BRANCH  14   5
ATOM      5  O   UNL     1      -4.244  -1.842  22.916  0.00  0.00    -0.387 OA
ATOM     32  H   UNL     1      -3.686  -1.098  22.632  0.00  0.00    +0.210 HD
ENDBRANCH  14   5
BRANCH  16   6
ATOM      6  O   UNL     1      -3.273  -3.232  26.158  0.00  0.00    -0.389 OA
ATOM     33  H   UNL     1      -2.988  -2.411  26.593  0.00  0.00    +0.210 HD
ENDBRANCH  16   6
BRANCH  15  11
ATOM     11  N   UNL     1      -4.513   0.547  24.248  0.00  0.00    -0.181 NA
ATOM     31  H   UNL     1      -4.263   0.785  23.280  0.00  0.00    +0.149 HD
BRANCH  11   1
ATOM      1  S   UNL     1      -5.465   1.595  25.184  0.00  0.00    +0.059 S 
ATOM      7  O   UNL     1      -5.753   0.974  26.462  0.00  0.00    -0.153 OA
ATOM      8  O   UNL     1      -6.544   2.104  24.359  0.00  0.00    -0.153 OA
BRANCH   1  21
ATOM     21  C   UNL     1      -4.355   2.941  25.469  0.00  0.00    +0.106 A 
ATOM     22  C   UNL     1      -3.036   2.864  25.022  0.00  0.00    +0.041 A 
ATOM     24  C   UNL     1      -4.799   4.080  26.141  0.00  0.00    +0.028 A 
ATOM     25  C   UNL     1      -2.160   3.926  25.247  0.00  0.00    +0.057 A 
ATOM     27  C   UNL     1      -3.923   5.142  26.365  0.00  0.00    +0.002 A 
ATOM     28  C   UNL     1      -2.604   5.065  25.919  0.00  0.00    +0.012 A 
BRANCH  25  29
ATOM      2  F   UNL     1       0.061   3.107  25.585  0.00  0.00    -0.166 F 
ATOM      3  F   UNL     1      -0.623   3.274  23.534  0.00  0.00    -0.166 F 
ATOM      4  F   UNL     1      -0.155   5.068  24.671  0.00  0.00    -0.166 F 
ATOM     29  C   UNL     1      -0.750   3.844  24.769  0.00  0.00    +0.417 C 
ENDBRANCH  25  29
ENDBRANCH   1  21
ENDBRANCH  11   1
ENDBRANCH  15  11
TORSDOF 10
ENDMDL
MODEL 5
REMARK VINA RESULT:      -4.3      3.227      5.806
REMARK  Name = 11866342
REMARK  10 active torsions:
REMARK  status: ('A' for Active; 'I' for Inactive)
REMARK    1  A    between atoms: S_1  and  N_11
REMARK    2  A    between atoms: S_1  and  C_21
REMARK    3  A    between atoms: O_5  and  C_14
REMARK    4  A    between atoms: O_6  and  C_16
REMARK    5  A    between atoms: N_11  and  C_15
REMARK    6  A    between atoms: N_12  and  C_23
REMARK    7  A    between atoms: C_19  and  C_20
REMARK    8  A    between atoms: C_23  and  C_26
REMARK    9  A    between atoms: C_25  and  C_29
REMARK   10  A    between atoms: C_26  and  C_30
REMARK                            x       y       z     vdW  Elec       q    Type
REMARK                         _______ _______ _______ _____ _____    ______ ____
ROOT
ATOM     14  C   UNL     1       1.002  -0.780  22.494  0.00  0.00    +0.166 C 
ATOM     15  C   UNL     1       0.198  -0.943  23.796  0.00  0.00    +0.131 C 
ATOM     16  C   UNL     1       2.225   0.122  22.700  0.00  0.00    +0.149 C 
ATOM     17  C   UNL     1       1.840   1.501  23.264  0.00  0.00    +0.074 C 
ATOM     18  C   UNL     1       0.001   0.351  24.539  0.00  0.00    +0.004 C 
ATOM     19  C   UNL     1       0.739   1.441  24.285  0.00  0.00    +0.014 C 
ENDROOT
BRANCH  19  20
ATOM      9  O   UNL     1       0.797   2.722  26.254  0.00  0.00    -0.271 OA
ATOM     12  N   UNL     1      -0.194   3.625  24.347  0.00  0.00    -0.311 N 
ATOM     20  C   UNL     1       0.461   2.645  25.072  0.00  0.00    +0.240 C 
ATOM     34  H   UNL     1      -0.436   3.455  23.375  0.00  0.00    +0.149 HD
BRANCH  12  23
ATOM     23  C   UNL     1      -0.577   4.900  24.908  0.00  0.00    +0.113 C 
BRANCH  23  26
ATOM     26  C   UNL     1      -2.083   5.021  25.094  0.00  0.00    +0.114 C 
BRANCH  26  30
ATOM     10  O   UNL     1      -2.225   2.910  26.287  0.00  0.00    -0.276 OA
ATOM     13  N   UNL     1      -3.684   4.598  26.841  0.00  0.00    -0.329 N 
ATOM     30  C   UNL     1      -2.642   4.052  26.121  0.00  0.00    +0.212 C 
ATOM     35  H   UNL     1      -4.157   4.063  27.561  0.00  0.00    +0.145 HD
ATOM     36  H   UNL     1      -4.015   5.545  26.684  0.00  0.00    +0.145 HD
ENDBRANCH  26  30
ENDBRANCH  23  26
ENDBRANCH  12  23
ENDBRANCH  19  20
BRANCH  14   5
ATOM      5  O   UNL     1       0.174  -0.202  21.482  0.00  0.00    -0.387 OA
ATOM     32  H   UNL     1      -0.147   0.652  21.818  0.00  0.00    +0.210 HD
ENDBRANCH  14   5
BRANCH  16   6
ATOM      6  O   UNL     1       3.165  -0.515  23.565  0.00  0.00    -0.389 OA
ATOM     33  H   UNL     1       3.478  -1.319  23.117  0.00  0.00    +0.210 HD
ENDBRANCH  16   6
BRANCH  15  11
ATOM     11  N   UNL     1      -1.126  -1.544  23.498  0.00  0.00    -0.181 NA
ATOM     31  H   UNL     1      -1.328  -1.787  22.521  0.00  0.00    +0.149 HD
BRANCH  11   1
ATOM      1  S   UNL     1      -2.370  -1.454  24.649  0.00  0.00    +0.059 S 
ATOM      7  O   UNL     1      -1.795  -1.329  25.974  0.00  0.00    -0.153 OA
ATOM      8  O   UNL     1      -3.339  -2.497  24.368  0.00  0.00    -0.153 OA
BRANCH   1  21
ATOM     21  C   UNL     1      -3.136   0.086  24.239  0.00  0.00    +0.106 A 
ATOM     22  C   UNL     1      -4.277   0.501  24.925  0.00  0.00    +0.041 A 
ATOM     24  C   UNL     1      -2.598   0.885  23.231  0.00  0.00    +0.028 A 
ATOM     25  C   UNL     1      -4.882   1.717  24.602  0.00  0.00    +0.057 A 
ATOM     27  C   UNL     1      -3.201   2.101  22.909  0.00  0.00    +0.002 A 
ATOM     28  C   UNL     1      -4.343   2.516  23.593  0.00  0.00    +0.012 A 
BRANCH  25  29
ATOM      2  F   UNL     1      -6.199   1.646  26.596  0.00  0.00    -0.166 F 
ATOM      3  F   UNL     1      -6.183   3.514  25.495  0.00  0.00    -0.166 F 
ATOM      4  F   UNL     1      -7.256   1.797  24.702  0.00  0.00    -0.166 F 
ATOM     29  C   UNL     1      -6.102   2.160  25.334  0.00  0.00    +0.417 C 
ENDBRANCH  25  29
ENDBRANCH   1  21
ENDBRANCH  11   1
ENDBRANCH  15  11
TORSDOF 10
ENDMDL
MODEL 6
REMARK VINA RESULT:      -4.1      2.875      4.667
REMARK  Name = 11866342
REMARK  10 active torsions:
REMARK  status: ('A' for Active; 'I' for Inactive)
REMARK    1  A    between atoms: S_1  and  N_11
REMARK    2  A    between atoms: S_1  and  C_21
REMARK    3  A    between atoms: O_5  and  C_14
REMARK    4  A    between atoms: O_6  and  C_16
REMARK    5  A    between atoms: N_11  and  C_15
REMARK    6  A    between atoms: N_12  and  C_23
REMARK    7  A    between atoms: C_19  and  C_20
REMARK    8  A    between atoms: C_23  and  C_26
REMARK    9  A    between atoms: C_25  and  C_29
REMARK   10  A    between atoms: C_26  and  C_30
REMARK                            x       y       z     vdW  Elec       q    Type
REMARK                         _______ _______ _______ _____ _____    ______ ____
ROOT
ATOM     14  C   UNL     1      -1.618   0.516  24.574  0.00  0.00    +0.166 C 
ATOM     15  C   UNL     1      -0.590   1.660  24.648  0.00  0.00    +0.131 C 
ATOM     16  C   UNL     1      -0.931  -0.855  24.592  0.00  0.00    +0.149 C 
ATOM     17  C   UNL     1       0.109  -0.998  23.466  0.00  0.00    +0.074 C 
ATOM     18  C   UNL     1       0.596   1.455  23.745  0.00  0.00    +0.004 C 
ATOM     19  C   UNL     1       0.893   0.259  23.215  0.00  0.00    +0.014 C 
ENDROOT
BRANCH  19  20
ATOM      9  O   UNL     1       2.058  -0.499  21.322  0.00  0.00    -0.271 OA
ATOM     12  N   UNL     1       3.143   0.915  22.825  0.00  0.00    -0.311 N 
ATOM     20  C   UNL     1       2.073   0.176  22.351  0.00  0.00    +0.240 C 
ATOM     34  H   UNL     1       3.052   1.430  23.695  0.00  0.00    +0.149 HD
BRANCH  12  23
ATOM     23  C   UNL     1       4.416   0.985  22.145  0.00  0.00    +0.113 C 
BRANCH  23  26
ATOM     26  C   UNL     1       5.401  -0.059  22.654  0.00  0.00    +0.114 C 
BRANCH  26  30
ATOM     10  O   UNL     1       5.407   0.347  25.049  0.00  0.00    -0.276 OA
ATOM     13  N   UNL     1       4.746  -1.714  24.274  0.00  0.00    -0.329 N 
ATOM     30  C   UNL     1       5.193  -0.419  24.115  0.00  0.00    +0.212 C 
ATOM     35  H   UNL     1       4.568  -2.094  25.197  0.00  0.00    +0.145 HD
ATOM     36  H   UNL     1       4.579  -2.332  23.486  0.00  0.00    +0.145 HD
ENDBRANCH  26  30
ENDBRANCH  23  26
ENDBRANCH  12  23
ENDBRANCH  19  20
BRANCH  14   5
ATOM      5  O   UNL     1      -2.381   0.628  23.370  0.00  0.00    -0.387 OA
ATOM     32  H   UNL     1      -3.289   0.868  23.620  0.00  0.00    +0.210 HD
ENDBRANCH  14   5
BRANCH  16   6
ATOM      6  O   UNL     1      -0.313  -1.078  25.859  0.00  0.00    -0.389 OA
ATOM     33  H   UNL     1      -0.988  -1.445  26.454  0.00  0.00    +0.210 HD
ENDBRANCH  16   6
BRANCH  15  11
ATOM     11  N   UNL     1      -1.246   2.948  24.312  0.00  0.00    -0.181 NA
ATOM     31  H   UNL     1      -1.230   3.247  23.329  0.00  0.00    +0.149 HD
BRANCH  11   1
ATOM      1  S   UNL     1      -1.641   4.041  25.549  0.00  0.00    +0.059 S 
ATOM      7  O   UNL     1      -1.230   5.377  25.162  0.00  0.00    -0.153 OA
ATOM      8  O   UNL     1      -1.210   3.483  26.817  0.00  0.00    -0.153 OA
BRANCH   1  21
ATOM     21  C   UNL     1      -3.407   3.987  25.534  0.00  0.00    +0.106 A 
ATOM     22  C   UNL     1      -4.067   2.762  25.436  0.00  0.00    +0.041 A 
ATOM     24  C   UNL     1      -4.141   5.169  25.621  0.00  0.00    +0.028 A 
ATOM     25  C   UNL     1      -5.462   2.719  25.425  0.00  0.00    +0.057 A 
ATOM     27  C   UNL     1      -5.536   5.127  25.611  0.00  0.00    +0.002 A 
ATOM     28  C   UNL     1      -6.196   3.902  25.512  0.00  0.00    +0.012 A 
BRANCH  25  29
ATOM      2  F   UNL     1      -6.660   0.957  26.511  0.00  0.00    -0.166 F 
ATOM      3  F   UNL     1      -7.240   1.432  24.477  0.00  0.00    -0.166 F 
ATOM      4  F   UNL     1      -5.358   0.412  24.857  0.00  0.00    -0.166 F 
ATOM     29  C   UNL     1      -6.166   1.410  25.320  0.00  0.00    +0.417 C 
ENDBRANCH  25  29
ENDBRANCH   1  21
ENDBRANCH  11   1
ENDBRANCH  15  11
TORSDOF 10
ENDMDL
MODEL 7
REMARK VINA RESULT:      -3.9      2.874      5.219
REMARK  Name = 11866342
REMARK  10 active torsions:
REMARK  status: ('A' for Active; 'I' for Inactive)
REMARK    1  A    between atoms: S_1  and  N_11
REMARK    2  A    between atoms: S_1  and  C_21
REMARK    3  A    between atoms: O_5  and  C_14
REMARK    4  A    between atoms: O_6  and  C_16
REMARK    5  A    between atoms: N_11  and  C_15
REMARK    6  A    between atoms: N_12  and  C_23
REMARK    7  A    between atoms: C_19  and  C_20
REMARK    8  A    between atoms: C_23  and  C_26
REMARK    9  A    between atoms: C_25  and  C_29
REMARK   10  A    between atoms: C_26  and  C_30
REMARK                            x       y       z     vdW  Elec       q    Type
REMARK                         _______ _______ _______ _____ _____    ______ ____
ROOT
ATOM     14  C   UNL     1      -4.600   3.646  24.972  0.00  0.00    +0.166 C 
ATOM     15  C   UNL     1      -3.310   2.919  25.394  0.00  0.00    +0.131 C 
ATOM     16  C   UNL     1      -5.848   2.851  25.377  0.00  0.00    +0.149 C 
ATOM     17  C   UNL     1      -5.832   1.420  24.811  0.00  0.00    +0.074 C 
ATOM     18  C   UNL     1      -3.332   1.445  25.095  0.00  0.00    +0.004 C 
ATOM     19  C   UNL     1      -4.469   0.786  24.828  0.00  0.00    +0.014 C 
ENDROOT
BRANCH  19  20
ATOM      9  O   UNL     1      -5.213  -1.220  23.860  0.00  0.00    -0.271 OA
ATOM     12  N   UNL     1      -3.270  -1.240  25.148  0.00  0.00    -0.311 N 
ATOM     20  C   UNL     1      -4.372  -0.649  24.553  0.00  0.00    +0.240 C 
ATOM     34  H   UNL     1      -2.641  -0.676  25.712  0.00  0.00    +0.149 HD
BRANCH  12  23
ATOM     23  C   UNL     1      -2.964  -2.646  25.022  0.00  0.00    +0.113 C 
BRANCH  23  26
ATOM     26  C   UNL     1      -1.473  -2.899  24.845  0.00  0.00    +0.114 C 
BRANCH  26  30
ATOM     10  O   UNL     1      -1.037  -0.937  26.211  0.00  0.00    -0.276 OA
ATOM     13  N   UNL     1       0.740  -2.202  25.485  0.00  0.00    -0.329 N 
ATOM     30  C   UNL     1      -0.602  -1.903  25.592  0.00  0.00    +0.212 C 
ATOM     35  H   UNL     1       1.441  -1.619  25.930  0.00  0.00    +0.145 HD
ATOM     36  H   UNL     1       1.078  -3.004  24.964  0.00  0.00    +0.145 HD
ENDBRANCH  26  30
ENDBRANCH  23  26
ENDBRANCH  12  23
ENDBRANCH  19  20
BRANCH  14   5
ATOM      5  O   UNL     1      -4.614   3.825  23.554  0.00  0.00    -0.387 OA
ATOM     32  H   UNL     1      -5.033   4.683  23.370  0.00  0.00    +0.210 HD
ENDBRANCH  14   5
BRANCH  16   6
ATOM      6  O   UNL     1      -5.966   2.813  26.798  0.00  0.00    -0.389 OA
ATOM     33  H   UNL     1      -5.809   3.713  27.130  0.00  0.00    +0.210 HD
ENDBRANCH  16   6
BRANCH  15  11
ATOM     11  N   UNL     1      -2.142   3.539  24.720  0.00  0.00    -0.181 NA
ATOM     31  H   UNL     1      -2.295   3.962  23.797  0.00  0.00    +0.149 HD
BRANCH  11   1
ATOM      1  S   UNL     1      -0.574   3.202  25.275  0.00  0.00    +0.059 S 
ATOM      7  O   UNL     1      -0.641   2.671  26.623  0.00  0.00    -0.153 OA
ATOM      8  O   UNL     1       0.278   4.338  24.979  0.00  0.00    -0.153 OA
BRANCH   1  21
ATOM     21  C   UNL     1      -0.079   1.891  24.197  0.00  0.00    +0.106 A 
ATOM     22  C   UNL     1       1.273   1.687  23.922  0.00  0.00    +0.041 A 
ATOM     24  C   UNL     1      -1.041   1.060  23.623  0.00  0.00    +0.028 A 
ATOM     25  C   UNL     1       1.664   0.652  23.071  0.00  0.00    +0.057 A 
ATOM     27  C   UNL     1      -0.650   0.025  22.773  0.00  0.00    +0.002 A 
ATOM     28  C   UNL     1       0.702  -0.178  22.497  0.00  0.00    +0.012 A 
BRANCH  25  29
ATOM      2  F   UNL     1       3.417   0.536  21.449  0.00  0.00    -0.166 F 
ATOM      3  F   UNL     1       3.935   1.325  23.401  0.00  0.00    -0.166 F 
ATOM      4  F   UNL     1       3.545  -0.800  23.160  0.00  0.00    -0.166 F 
ATOM     29  C   UNL     1       3.109   0.435  22.777  0.00  0.00    +0.417 C 
ENDBRANCH  25  29
ENDBRANCH   1  21
ENDBRANCH  11   1
ENDBRANCH  15  11
TORSDOF 10
ENDMDL
MODEL 8
REMARK VINA RESULT:      -3.3      3.642      7.231
REMARK  Name = 11866342
REMARK  10 active torsions:
REMARK  status: ('A' for Active; 'I' for Inactive)
REMARK    1  A    between atoms: S_1  and  N_11
REMARK    2  A    between atoms: S_1  and  C_21
REMARK    3  A    between atoms: O_5  and  C_14
REMARK    4  A    between atoms: O_6  and  C_16
REMARK    5  A    between atoms: N_11  and  C_15
REMARK    6  A    between atoms: N_12  and  C_23
REMARK    7  A    between atoms: C_19  and  C_20
REMARK    8  A    between atoms: C_23  and  C_26
REMARK    9  A    between atoms: C_25  and  C_29
REMARK   10  A    between atoms: C_26  and  C_30
REMARK                            x       y       z     vdW  Elec       q    Type
REMARK                         _______ _______ _______ _____ _____    ______ ____
ROOT
ATOM     14  C   UNL     1      -1.305  -2.492  25.006  0.00  0.00    +0.166 C 
ATOM     15  C   UNL     1      -1.105  -1.481  23.862  0.00  0.00    +0.131 C 
ATOM     16  C   UNL     1      -2.783  -2.865  25.172  0.00  0.00    +0.149 C 
ATOM     17  C   UNL     1      -3.672  -1.628  25.392  0.00  0.00    +0.074 C 
ATOM     18  C   UNL     1      -2.115  -0.366  23.870  0.00  0.00    +0.004 C 
ATOM     19  C   UNL     1      -3.259  -0.442  24.567  0.00  0.00    +0.014 C 
ENDROOT
BRANCH  19  20
ATOM      9  O   UNL     1      -5.347   0.597  24.841  0.00  0.00    -0.271 OA
ATOM     12  N   UNL     1      -3.560   1.851  24.024  0.00  0.00    -0.311 N 
ATOM     20  C   UNL     1      -4.170   0.703  24.499  0.00  0.00    +0.240 C 
ATOM     34  H   UNL     1      -2.580   1.828  23.759  0.00  0.00    +0.149 HD
BRANCH  12  23
ATOM     23  C   UNL     1      -4.257   3.108  23.867  0.00  0.00    +0.113 C 
BRANCH  23  26
ATOM     26  C   UNL     1      -4.320   3.899  25.166  0.00  0.00    +0.114 C 
BRANCH  26  30
ATOM     10  O   UNL     1      -6.423   4.996  25.690  0.00  0.00    -0.276 OA
ATOM     13  N   UNL     1      -6.110   2.819  26.359  0.00  0.00    -0.329 N 
ATOM     30  C   UNL     1      -5.720   3.992  25.747  0.00  0.00    +0.212 C 
ATOM     35  H   UNL     1      -7.021   2.737  26.795  0.00  0.00    +0.145 HD
ATOM     36  H   UNL     1      -5.510   2.001  26.397  0.00  0.00    +0.145 HD
ENDBRANCH  26  30
ENDBRANCH  23  26
ENDBRANCH  12  23
ENDBRANCH  19  20
BRANCH  14   5
ATOM      5  O   UNL     1      -0.835  -1.931  26.235  0.00  0.00    -0.387 OA
ATOM     32  H   UNL     1       0.000  -2.376  26.460  0.00  0.00    +0.210 HD
ENDBRANCH  14   5
BRANCH  16   6
ATOM      6  O   UNL     1      -3.236  -3.595  24.033  0.00  0.00    -0.389 OA
ATOM     33  H   UNL     1      -2.510  -4.178  23.750  0.00  0.00    +0.210 HD
ENDBRANCH  16   6
BRANCH  15  11
ATOM     11  N   UNL     1       0.261  -0.906  23.933  0.00  0.00    -0.181 NA
ATOM     31  H   UNL     1       0.920  -1.326  24.600  0.00  0.00    +0.149 HD
BRANCH  11   1
ATOM      1  S   UNL     1       0.573   0.611  23.238  0.00  0.00    +0.059 S 
ATOM      7  O   UNL     1      -0.270   0.791  22.071  0.00  0.00    -0.153 OA
ATOM      8  O   UNL     1       2.009   0.789  23.136  0.00  0.00    -0.153 OA
BRANCH   1  21
ATOM     21  C   UNL     1       0.005   1.714  24.497  0.00  0.00    +0.106 A 
ATOM     22  C   UNL     1      -0.340   3.025  24.172  0.00  0.00    +0.041 A 
ATOM     24  C   UNL     1      -0.099   1.271  25.816  0.00  0.00    +0.028 A 
ATOM     25  C   UNL     1      -0.790   3.895  25.166  0.00  0.00    +0.057 A 
ATOM     27  C   UNL     1      -0.549   2.141  26.809  0.00  0.00    +0.002 A 
ATOM     28  C   UNL     1      -0.893   3.453  26.484  0.00  0.00    +0.012 A 
BRANCH  25  29
ATOM      2  F   UNL     1      -1.881   5.402  23.663  0.00  0.00    -0.166 F 
ATOM      3  F   UNL     1      -1.917   5.917  25.769  0.00  0.00    -0.166 F 
ATOM      4  F   UNL     1      -0.068   6.100  24.640  0.00  0.00    -0.166 F 
ATOM     29  C   UNL     1      -1.158   5.298  24.818  0.00  0.00    +0.417 C 
ENDBRANCH  25  29
ENDBRANCH   1  21
ENDBRANCH  11   1
ENDBRANCH  15  11
TORSDOF 10
ENDMDL
MODEL 9
REMARK VINA RESULT:      -3.0      2.927      6.054
REMARK  Name = 11866342
REMARK  10 active torsions:
REMARK  status: ('A' for Active; 'I' for Inactive)
REMARK    1  A    between atoms: S_1  and  N_11
REMARK    2  A    between atoms: S_1  and  C_21
REMARK    3  A    between atoms: O_5  and  C_14
REMARK    4  A    between atoms: O_6  and  C_16
REMARK    5  A    between atoms: N_11  and  C_15
REMARK    6  A    between atoms: N_12  and  C_23
REMARK    7  A    between atoms: C_19  and  C_20
REMARK    8  A    between atoms: C_23  and  C_26
REMARK    9  A    between atoms: C_25  and  C_29
REMARK   10  A    between atoms: C_26  and  C_30
REMARK                            x       y       z     vdW  Elec       q    Type
REMARK                         _______ _______ _______ _____ _____    ______ ____
ROOT
ATOM     14  C   UNL     1      -0.819   3.623  24.949  0.00  0.00    +0.166 C 
ATOM     15  C   UNL     1      -0.831   2.226  25.595  0.00  0.00    +0.131 C 
ATOM     16  C   UNL     1      -2.161   4.340  25.139  0.00  0.00    +0.149 C 
ATOM     17  C   UNL     1      -3.342   3.513  24.599  0.00  0.00    +0.074 C 
ATOM     18  C   UNL     1      -2.089   1.450  25.312  0.00  0.00    +0.004 C 
ATOM     19  C   UNL     1      -3.205   2.039  24.858  0.00  0.00    +0.014 C 
ENDROOT
BRANCH  19  20
ATOM      9  O   UNL     1      -5.512   1.596  24.831  0.00  0.00    -0.271 OA
ATOM     12  N   UNL     1      -4.034  -0.073  24.150  0.00  0.00    -0.311 N 
ATOM     20  C   UNL     1      -4.372   1.185  24.618  0.00  0.00    +0.240 C 
ATOM     34  H   UNL     1      -3.056  -0.314  24.019  0.00  0.00    +0.149 HD
BRANCH  12  23
ATOM     23  C   UNL     1      -5.013  -1.091  23.845  0.00  0.00    +0.113 C 
BRANCH  23  26
ATOM     26  C   UNL     1      -4.416  -2.491  23.872  0.00  0.00    +0.114 C 
BRANCH  26  30
ATOM     10  O   UNL     1      -3.284  -2.433  26.020  0.00  0.00    -0.276 OA
ATOM     13  N   UNL     1      -2.071  -2.965  24.141  0.00  0.00    -0.329 N 
ATOM     30  C   UNL     1      -3.228  -2.621  24.809  0.00  0.00    +0.212 C 
ATOM     35  H   UNL     1      -1.197  -3.082  24.640  0.00  0.00    +0.145 HD
ATOM     36  H   UNL     1      -2.048  -3.112  23.137  0.00  0.00    +0.145 HD
ENDBRANCH  26  30
ENDBRANCH  23  26
ENDBRANCH  12  23
ENDBRANCH  19  20
BRANCH  14   5
ATOM      5  O   UNL     1      -0.558   3.506  23.548  0.00  0.00    -0.387 OA
ATOM     32  H   UNL     1      -1.053   4.212  23.098  0.00  0.00    +0.210 HD
ENDBRANCH  14   5
BRANCH  16   6
ATOM      6  O   UNL     1      -2.367   4.640  26.519  0.00  0.00    -0.389 OA
ATOM     33  H   UNL     1      -1.522   4.499  26.979  0.00  0.00    +0.210 HD
ENDBRANCH  16   6
BRANCH  15  11
ATOM     11  N   UNL     1       0.341   1.446  25.129  0.00  0.00    -0.181 NA
ATOM     31  H   UNL     1       1.268   1.878  25.224  0.00  0.00    +0.149 HD
BRANCH  11   1
ATOM      1  S   UNL     1       0.110   0.092  24.131  0.00  0.00    +0.059 S 
ATOM      7  O   UNL     1      -0.984   0.348  23.215  0.00  0.00    -0.153 OA
ATOM      8  O   UNL     1       0.107  -1.100  24.959  0.00  0.00    -0.153 OA
BRANCH   1  21
ATOM     21  C   UNL     1       1.610   0.067  23.196  0.00  0.00    +0.106 A 
ATOM     22  C   UNL     1       2.841   0.111  23.850  0.00  0.00    +0.041 A 
ATOM     24  C   UNL     1       1.562   0.003  21.804  0.00  0.00    +0.028 A 
ATOM     25  C   UNL     1       4.025   0.091  23.112  0.00  0.00    +0.057 A 
ATOM     27  C   UNL     1       2.745  -0.018  21.065  0.00  0.00    +0.002 A 
ATOM     28  C   UNL     1       3.977   0.027  21.719  0.00  0.00    +0.012 A 
BRANCH  25  29
ATOM      2  F   UNL     1       5.645   1.370  24.319  0.00  0.00    -0.166 F 
ATOM      3  F   UNL     1       5.426  -0.714  24.875  0.00  0.00    -0.166 F 
ATOM      4  F   UNL     1       6.384  -0.188  22.994  0.00  0.00    -0.166 F 
ATOM     29  C   UNL     1       5.340   0.139  23.812  0.00  0.00    +0.417 C 
ENDBRANCH  25  29
ENDBRANCH   1  21
ENDBRANCH  11   1
ENDBRANCH  15  11
TORSDOF 10
ENDMDL
MODEL 10
REMARK VINA RESULT:      -2.9      3.647      5.386
REMARK  Name = 11866342
REMARK  10 active torsions:
REMARK  status: ('A' for Active; 'I' for Inactive)
REMARK    1  A    between atoms: S_1  and  N_11
REMARK    2  A    between atoms: S_1  and  C_21
REMARK    3  A    between atoms: O_5  and  C_14
REMARK    4  A    between atoms: O_6  and  C_16
REMARK    5  A    between atoms: N_11  and  C_15
REMARK    6  A    between atoms: N_12  and  C_23
REMARK    7  A    between atoms: C_19  and  C_20
REMARK    8  A    between atoms: C_23  and  C_26
REMARK    9  A    between atoms: C_25  and  C_29
REMARK   10  A    between atoms: C_26  and  C_30
REMARK                            x       y       z     vdW  Elec       q    Type
REMARK                         _______ _______ _______ _____ _____    ______ ____
ROOT
ATOM     14  C   UNL     1       0.531  -0.666  22.554  0.00  0.00    +0.166 C 
ATOM     15  C   UNL     1      -0.222  -0.976  23.860  0.00  0.00    +0.131 C 
ATOM     16  C   UNL     1       1.763   0.211  22.812  0.00  0.00    +0.149 C 
ATOM     17  C   UNL     1       1.401   1.517  23.542  0.00  0.00    +0.074 C 
ATOM     18  C   UNL     1      -0.388   0.225  24.751  0.00  0.00    +0.004 C 
ATOM     19  C   UNL     1       0.341   1.339  24.592  0.00  0.00    +0.014 C 
ENDROOT
BRANCH  19  20
ATOM      9  O   UNL     1      -0.524   3.448  25.160  0.00  0.00    -0.271 OA
ATOM     12  N   UNL     1       0.626   2.226  26.778  0.00  0.00    -0.311 N 
ATOM     20  C   UNL     1       0.095   2.447  25.519  0.00  0.00    +0.240 C 
ATOM     34  H   UNL     1       1.131   1.365  26.967  0.00  0.00    +0.149 HD
BRANCH  12  23
ATOM     23  C   UNL     1       0.514   3.176  27.860  0.00  0.00    +0.113 C 
BRANCH  23  26
ATOM     26  C   UNL     1       0.583   2.506  29.226  0.00  0.00    +0.114 C 
BRANCH  26  30
ATOM     10  O   UNL     1       2.284   1.600  30.704  0.00  0.00    -0.276 OA
ATOM     13  N   UNL     1       2.944   2.764  28.835  0.00  0.00    -0.329 N 
ATOM     30  C   UNL     1       2.003   2.225  29.687  0.00  0.00    +0.212 C 
ATOM     35  H   UNL     1       3.935   2.658  29.021  0.00  0.00    +0.145 HD
ATOM     36  H   UNL     1       2.688   3.281  28.000  0.00  0.00    +0.145 HD
ENDBRANCH  26  30
ENDBRANCH  23  26
ENDBRANCH  12  23
ENDBRANCH  19  20
BRANCH  14   5
ATOM      5  O   UNL     1      -0.335   0.019  21.646  0.00  0.00    -0.387 OA
ATOM     32  H   UNL     1      -0.921   0.589  22.173  0.00  0.00    +0.210 HD
ENDBRANCH  14   5
BRANCH  16   6
ATOM      6  O   UNL     1       2.734  -0.516  23.563  0.00  0.00    -0.389 OA
ATOM     33  H   UNL     1       2.992  -1.291  23.036  0.00  0.00    +0.210 HD
ENDBRANCH  16   6
BRANCH  15  11
ATOM     11  N   UNL     1      -1.557  -1.544  23.548  0.00  0.00    -0.181 NA
ATOM     31  H   UNL     1      -1.711  -1.900  22.597  0.00  0.00    +0.149 HD
BRANCH  11   1
ATOM      1  S   UNL     1      -2.863  -1.247  24.590  0.00  0.00    +0.059 S 
ATOM      7  O   UNL     1      -2.407  -1.302  25.966  0.00  0.00    -0.153 OA
ATOM      8  O   UNL     1      -3.991  -2.053  24.163  0.00  0.00    -0.153 OA
BRANCH   1  21
ATOM     21  C   UNL     1      -3.257   0.434  24.213  0.00  0.00    +0.106 A 
ATOM     22  C   UNL     1      -3.914   1.225  25.155  0.00  0.00    +0.041 A 
ATOM     24  C   UNL     1      -2.909   0.970  22.973  0.00  0.00    +0.028 A 
ATOM     25  C   UNL     1      -4.225   2.552  24.857  0.00  0.00    +0.057 A 
ATOM     27  C   UNL     1      -3.218   2.297  22.675  0.00  0.00    +0.002 A 
ATOM     28  C   UNL     1      -3.877   3.088  23.617  0.00  0.00    +0.012 A 
BRANCH  25  29
ATOM      2  F   UNL     1      -5.706   2.682  26.730  0.00  0.00    -0.166 F 
ATOM      3  F   UNL     1      -4.084   4.119  26.659  0.00  0.00    -0.166 F 
ATOM      4  F   UNL     1      -5.765   4.312  25.292  0.00  0.00    -0.166 F 
ATOM     29  C   UNL     1      -4.928   3.397  25.864  0.00  0.00    +0.417 C 
ENDBRANCH  25  29
ENDBRANCH   1  21
ENDBRANCH  11   1
ENDBRANCH  15  11
TORSDOF 10
ENDMDL
