MODEL 1
REMARK VINA RESULT:       6.2      0.000      0.000
REMARK  Name = 26742314
REMARK  6 active torsions:
REMARK  status: ('A' for Active; 'I' for Inactive)
REMARK    1  A    between atoms: S_1  and  N_8
REMARK    2  A    between atoms: S_1  and  C_26
REMARK    3  A    between atoms: N_5  and  C_14
REMARK    4  A    between atoms: N_7  and  C_25
REMARK    5  A    between atoms: N_8  and  C_21
REMARK    6  A    between atoms: C_31  and  C_32
REMARK                            x       y       z     vdW  Elec       q    Type
REMARK                         _______ _______ _______ _____ _____    ______ ____
ROOT
ATOM      2  O   UNL     1      -2.015   4.082  27.515  0.00  0.00    -0.268 OA
ATOM      5  N   UNL     1      -3.772   0.541  24.416  0.00  0.00    -0.298 NA
ATOM      6  N   UNL     1      -2.231   3.175  25.365  0.00  0.00    -0.310 N 
ATOM      9  C   UNL     1      -4.510   2.928  24.217  0.00  0.00    +0.024 C 
ATOM     10  C   UNL     1      -2.480   2.195  23.063  0.00  0.00    +0.052 C 
ATOM     11  C   UNL     1      -3.709   3.093  22.937  0.00  0.00    +0.017 C 
ATOM     12  C   UNL     1      -4.923   1.454  24.405  0.00  0.00    +0.090 C 
ATOM     13  C   UNL     1      -2.931   0.725  23.224  0.00  0.00    +0.094 C 
ATOM     15  C   UNL     1      -3.673   3.462  25.382  0.00  0.00    +0.130 C 
ATOM     16  C   UNL     1      -1.598   2.614  24.239  0.00  0.00    +0.049 A 
ATOM     21  C   UNL     1      -0.258   2.458  24.265  0.00  0.00    +0.068 A 
ATOM     22  C   UNL     1      -1.514   3.575  26.510  0.00  0.00    +0.252 A 
ATOM     23  C   UNL     1       0.532   2.852  25.396  0.00  0.00    +0.031 A 
ATOM     24  C   UNL     1      -0.042   3.377  26.480  0.00  0.00    +0.072 A 
ENDROOT
BRANCH   5  14
ATOM      7  N   UNL     1      -3.706  -3.696  24.090  0.00  0.00    -0.305 NA
ATOM     14  C   UNL     1      -4.207  -0.848  24.541  0.00  0.00    +0.059 C 
ATOM     17  C   UNL     1      -3.203  -1.644  25.378  0.00  0.00    +0.034 C 
ATOM     18  C   UNL     1      -4.369  -1.498  23.164  0.00  0.00    +0.034 C 
ATOM     19  C   UNL     1      -3.590  -3.124  25.438  0.00  0.00    +0.085 C 
ATOM     20  C   UNL     1      -4.717  -2.983  23.295  0.00  0.00    +0.085 C 
ATOM     25  C   UNL     1      -4.027  -5.121  24.163  0.00  0.00    +0.104 C 
ENDBRANCH   5  14
BRANCH  21   8
ATOM      8  N   UNL     1       0.394   1.868  23.157  0.00  0.00    -0.215 N 
ATOM     33  H   UNL     1       1.194   2.399  22.792  0.00  0.00    +0.174 HD
BRANCH   8   1
ATOM      1  S   UNL     1       0.590   0.191  23.192  0.00  0.00    +0.072 S 
ATOM      3  O   UNL     1       0.087  -0.336  24.447  0.00  0.00    -0.150 OA
ATOM      4  O   UNL     1       0.153  -0.382  21.933  0.00  0.00    -0.150 OA
BRANCH   1  26
ATOM     26  C   UNL     1       2.354   0.076  23.240  0.00  0.00    +0.109 A 
ATOM     27  C   UNL     1       3.136   1.155  22.827  0.00  0.00    +0.029 A 
ATOM     28  C   UNL     1       2.964  -1.094  23.692  0.00  0.00    +0.029 A 
ATOM     29  C   UNL     1       4.527   1.065  22.868  0.00  0.00    +0.005 A 
ATOM     30  C   UNL     1       4.356  -1.185  23.732  0.00  0.00    +0.005 A 
ATOM     31  C   UNL     1       5.137  -0.106  23.319  0.00  0.00    -0.050 A 
ATOM     32  C   UNL     1       6.625  -0.202  23.361  0.00  0.00    +0.044 C 
ENDBRANCH   1  26
ENDBRANCH   8   1
ENDBRANCH  21   8
TORSDOF 4
ENDMDL
MODEL 2
REMARK VINA RESULT:       6.8      2.493      6.888
REMARK  Name = 26742314
REMARK  6 active torsions:
REMARK  status: ('A' for Active; 'I' for Inactive)
REMARK    1  A    between atoms: S_1  and  N_8
REMARK    2  A    between atoms: S_1  and  C_26
REMARK    3  A    between atoms: N_5  and  C_14
REMARK    4  A    between atoms: N_7  and  C_25
REMARK    5  A    between atoms: N_8  and  C_21
REMARK    6  A    between atoms: C_31  and  C_32
REMARK                            x       y       z     vdW  Elec       q    Type
REMARK                         _______ _______ _______ _____ _____    ______ ____
ROOT
ATOM      2  O   UNL     1      -0.442   2.192  27.795  0.00  0.00    -0.268 OA
ATOM      5  N   UNL     1       1.322  -0.247  23.775  0.00  0.00    -0.298 NA
ATOM      6  N   UNL     1      -0.750   1.304  25.649  0.00  0.00    -0.310 N 
ATOM      9  C   UNL     1      -0.525  -1.205  25.172  0.00  0.00    +0.024 C 
ATOM     10  C   UNL     1      -1.069   0.337  23.349  0.00  0.00    +0.052 C 
ATOM     11  C   UNL     1      -1.533  -0.928  24.069  0.00  0.00    +0.017 C 
ATOM     12  C   UNL     1       0.883  -1.399  24.573  0.00  0.00    +0.090 C 
ATOM     13  C   UNL     1       0.333   0.097  22.742  0.00  0.00    +0.094 C 
ATOM     15  C   UNL     1      -0.587  -0.057  26.182  0.00  0.00    +0.130 C 
ATOM     16  C   UNL     1      -1.043   1.540  24.291  0.00  0.00    +0.049 A 
ATOM     21  C   UNL     1      -1.263   2.810  23.893  0.00  0.00    +0.068 A 
ATOM     22  C   UNL     1      -0.680   2.344  26.597  0.00  0.00    +0.252 A 
ATOM     23  C   UNL     1      -1.216   3.915  24.808  0.00  0.00    +0.031 A 
ATOM     24  C   UNL     1      -0.932   3.721  26.097  0.00  0.00    +0.072 A 
ENDROOT
BRANCH   5  14
ATOM      7  N   UNL     1       5.549  -0.278  23.336  0.00  0.00    -0.305 NA
ATOM     14  C   UNL     1       2.635  -0.491  23.181  0.00  0.00    +0.059 C 
ATOM     17  C   UNL     1       3.472  -1.387  24.097  0.00  0.00    +0.034 C 
ATOM     18  C   UNL     1       3.373   0.826  22.923  0.00  0.00    +0.034 C 
ATOM     19  C   UNL     1       4.885  -1.573  23.540  0.00  0.00    +0.085 C 
ATOM     20  C   UNL     1       4.790   0.568  22.404  0.00  0.00    +0.085 C 
ATOM     25  C   UNL     1       6.915  -0.473  22.851  0.00  0.00    +0.104 C 
ENDBRANCH   5  14
BRANCH  21   8
ATOM      8  N   UNL     1      -1.527   3.074  22.528  0.00  0.00    -0.215 N 
ATOM     33  H   UNL     1      -0.714   2.994  21.906  0.00  0.00    +0.174 HD
BRANCH   8   1
ATOM      1  S   UNL     1      -2.981   2.481  21.905  0.00  0.00    +0.072 S 
ATOM      3  O   UNL     1      -3.600   3.489  21.064  0.00  0.00    -0.150 OA
ATOM      4  O   UNL     1      -2.788   1.133  21.406  0.00  0.00    -0.150 OA
BRANCH   1  26
ATOM     26  C   UNL     1      -3.941   2.366  23.385  0.00  0.00    +0.109 A 
ATOM     27  C   UNL     1      -4.342   3.525  24.049  0.00  0.00    +0.029 A 
ATOM     28  C   UNL     1      -4.300   1.115  23.887  0.00  0.00    +0.029 A 
ATOM     29  C   UNL     1      -5.101   3.434  25.215  0.00  0.00    +0.005 A 
ATOM     30  C   UNL     1      -5.059   1.023  25.054  0.00  0.00    +0.005 A 
ATOM     31  C   UNL     1      -5.459   2.183  25.718  0.00  0.00    -0.050 A 
ATOM     32  C   UNL     1      -6.270   2.085  26.966  0.00  0.00    +0.044 C 
ENDBRANCH   1  26
ENDBRANCH   8   1
ENDBRANCH  21   8
TORSDOF 4
ENDMDL
MODEL 3
REMARK VINA RESULT:       9.6      2.461      7.281
REMARK  Name = 26742314
REMARK  6 active torsions:
REMARK  status: ('A' for Active; 'I' for Inactive)
REMARK    1  A    between atoms: S_1  and  N_8
REMARK    2  A    between atoms: S_1  and  C_26
REMARK    3  A    between atoms: N_5  and  C_14
REMARK    4  A    between atoms: N_7  and  C_25
REMARK    5  A    between atoms: N_8  and  C_21
REMARK    6  A    between atoms: C_31  and  C_32
REMARK                            x       y       z     vdW  Elec       q    Type
REMARK                         _______ _______ _______ _____ _____    ______ ____
ROOT
ATOM      2  O   UNL     1      -1.811  -2.502  25.373  0.00  0.00    -0.268 OA
ATOM      5  N   UNL     1       1.922  -0.169  22.955  0.00  0.00    -0.298 NA
ATOM      6  N   UNL     1      -0.928  -0.596  24.335  0.00  0.00    -0.310 N 
ATOM      9  C   UNL     1      -0.292  -0.572  21.852  0.00  0.00    +0.024 C 
ATOM     10  C   UNL     1       0.028   1.440  23.210  0.00  0.00    +0.052 C 
ATOM     11  C   UNL     1      -0.630   0.907  21.939  0.00  0.00    +0.017 C 
ATOM     12  C   UNL     1       1.237  -0.769  21.804  0.00  0.00    +0.090 C 
ATOM     13  C   UNL     1       1.559   1.248  23.115  0.00  0.00    +0.094 C 
ATOM     15  C   UNL     1      -0.944  -1.287  23.038  0.00  0.00    +0.130 C 
ATOM     16  C   UNL     1      -0.519   0.747  24.458  0.00  0.00    +0.049 A 
ATOM     21  C   UNL     1      -0.612   1.340  25.666  0.00  0.00    +0.068 A 
ATOM     22  C   UNL     1      -1.428  -1.333  25.427  0.00  0.00    +0.252 A 
ATOM     23  C   UNL     1      -1.119   0.649  26.817  0.00  0.00    +0.031 A 
ATOM     24  C   UNL     1      -1.505  -0.625  26.732  0.00  0.00    +0.072 A 
ENDROOT
BRANCH   5  14
ATOM      7  N   UNL     1       6.022  -0.188  24.075  0.00  0.00    -0.305 NA
ATOM     14  C   UNL     1       3.370  -0.329  22.845  0.00  0.00    +0.059 C 
ATOM     17  C   UNL     1       3.864  -1.377  23.845  0.00  0.00    +0.034 C 
ATOM     18  C   UNL     1       4.089   1.001  23.086  0.00  0.00    +0.034 C 
ATOM     19  C   UNL     1       5.390  -1.489  23.815  0.00  0.00    +0.085 C 
ATOM     20  C   UNL     1       5.608   0.812  23.080  0.00  0.00    +0.085 C 
ATOM     25  C   UNL     1       7.478  -0.320  24.091  0.00  0.00    +0.104 C 
ENDBRANCH   5  14
BRANCH  21   8
ATOM      8  N   UNL     1      -0.177   2.677  25.818  0.00  0.00    -0.215 N 
ATOM     33  H   UNL     1       0.841   2.797  25.887  0.00  0.00    +0.174 HD
BRANCH   8   1
ATOM      1  S   UNL     1      -0.987   3.851  24.913  0.00  0.00    +0.072 S 
ATOM      3  O   UNL     1      -0.973   5.115  25.625  0.00  0.00    -0.150 OA
ATOM      4  O   UNL     1      -0.555   3.788  23.529  0.00  0.00    -0.150 OA
BRANCH   1  26
ATOM     26  C   UNL     1      -2.638   3.224  24.980  0.00  0.00    +0.109 A 
ATOM     27  C   UNL     1      -3.511   3.662  25.976  0.00  0.00    +0.029 A 
ATOM     28  C   UNL     1      -3.069   2.292  24.036  0.00  0.00    +0.029 A 
ATOM     29  C   UNL     1      -4.815   3.169  26.027  0.00  0.00    +0.005 A 
ATOM     30  C   UNL     1      -4.373   1.798  24.087  0.00  0.00    +0.005 A 
ATOM     31  C   UNL     1      -5.246   2.236  25.083  0.00  0.00    -0.050 A 
ATOM     32  C   UNL     1      -6.639   1.708  25.139  0.00  0.00    +0.044 C 
ENDBRANCH   1  26
ENDBRANCH   8   1
ENDBRANCH  21   8
TORSDOF 4
ENDMDL
MODEL 4
REMARK VINA RESULT:       9.6      2.740      6.259
REMARK  Name = 26742314
REMARK  6 active torsions:
REMARK  status: ('A' for Active; 'I' for Inactive)
REMARK    1  A    between atoms: S_1  and  N_8
REMARK    2  A    between atoms: S_1  and  C_26
REMARK    3  A    between atoms: N_5  and  C_14
REMARK    4  A    between atoms: N_7  and  C_25
REMARK    5  A    between atoms: N_8  and  C_21
REMARK    6  A    between atoms: C_31  and  C_32
REMARK                            x       y       z     vdW  Elec       q    Type
REMARK                         _______ _______ _______ _____ _____    ______ ____
ROOT
ATOM      2  O   UNL     1      -1.643   6.783  24.796  0.00  0.00    -0.268 OA
ATOM      5  N   UNL     1      -0.066   2.052  24.196  0.00  0.00    -0.298 NA
ATOM      6  N   UNL     1      -1.970   4.475  25.040  0.00  0.00    -0.310 N 
ATOM      9  C   UNL     1      -0.417   3.028  26.478  0.00  0.00    +0.024 C 
ATOM     10  C   UNL     1      -2.303   1.997  25.305  0.00  0.00    +0.052 C 
ATOM     11  C   UNL     1      -1.656   2.171  26.677  0.00  0.00    +0.017 C 
ATOM     12  C   UNL     1       0.554   2.343  25.495  0.00  0.00    +0.090 C 
ATOM     13  C   UNL     1      -1.311   1.286  24.356  0.00  0.00    +0.094 C 
ATOM     15  C   UNL     1      -0.861   4.414  26.003  0.00  0.00    +0.130 C 
ATOM     16  C   UNL     1      -2.736   3.339  24.715  0.00  0.00    +0.049 A 
ATOM     21  C   UNL     1      -3.792   3.490  23.888  0.00  0.00    +0.068 A 
ATOM     22  C   UNL     1      -2.270   5.756  24.533  0.00  0.00    +0.252 A 
ATOM     23  C   UNL     1      -4.157   4.766  23.345  0.00  0.00    +0.031 A 
ATOM     24  C   UNL     1      -3.444   5.858  23.629  0.00  0.00    +0.072 A 
ENDROOT
BRANCH   5  14
ATOM      7  N   UNL     1       3.193  -0.388  22.977  0.00  0.00    -0.305 NA
ATOM     14  C   UNL     1       0.868   1.356  23.313  0.00  0.00    +0.059 C 
ATOM     17  C   UNL     1       0.798  -0.154  23.554  0.00  0.00    +0.034 C 
ATOM     18  C   UNL     1       2.300   1.853  23.529  0.00  0.00    +0.034 C 
ATOM     19  C   UNL     1       1.839  -0.893  22.710  0.00  0.00    +0.085 C 
ATOM     20  C   UNL     1       3.293   1.049  22.685  0.00  0.00    +0.085 C 
ATOM     25  C   UNL     1       4.182  -1.136  22.201  0.00  0.00    +0.104 C 
ENDBRANCH   5  14
BRANCH  21   8
ATOM      8  N   UNL     1      -4.556   2.356  23.524  0.00  0.00    -0.215 N 
ATOM     33  H   UNL     1      -4.088   1.709  22.877  0.00  0.00    +0.174 HD
BRANCH   8   1
ATOM      1  S   UNL     1      -5.474   1.630  24.741  0.00  0.00    +0.072 S 
ATOM      3  O   UNL     1      -5.246   2.315  26.000  0.00  0.00    -0.150 OA
ATOM      4  O   UNL     1      -6.826   1.403  24.268  0.00  0.00    -0.150 OA
BRANCH   1  26
ATOM     26  C   UNL     1      -4.678   0.055  24.846  0.00  0.00    +0.109 A 
ATOM     27  C   UNL     1      -4.658  -0.792  23.738  0.00  0.00    +0.029 A 
ATOM     28  C   UNL     1      -4.069  -0.340  26.037  0.00  0.00    +0.029 A 
ATOM     29  C   UNL     1      -4.028  -2.034  23.821  0.00  0.00    +0.005 A 
ATOM     30  C   UNL     1      -3.439  -1.583  26.120  0.00  0.00    +0.005 A 
ATOM     31  C   UNL     1      -3.420  -2.430  25.012  0.00  0.00    -0.050 A 
ATOM     32  C   UNL     1      -2.748  -3.758  25.101  0.00  0.00    +0.044 C 
ENDBRANCH   1  26
ENDBRANCH   8   1
ENDBRANCH  21   8
TORSDOF 4
ENDMDL
