MODEL 1
REMARK VINA RESULT:      -5.4      0.000      0.000
REMARK  Name = 26743248
REMARK  7 active torsions:
REMARK  status: ('A' for Active; 'I' for Inactive)
REMARK    1  A    between atoms: N_4  and  C_8
REMARK    2  A    between atoms: C_6  and  C_13
REMARK    3  A    between atoms: C_7  and  C_14
REMARK    4  A    between atoms: C_13  and  C_19
REMARK    5  A    between atoms: C_14  and  C_24
REMARK    6  A    between atoms: C_16  and  C_20
REMARK    7  A    between atoms: C_20  and  C_25
REMARK                            x       y       z     vdW  Elec       q    Type
REMARK                         _______ _______ _______ _____ _____    ______ ____
ROOT
ATOM      3  N   UNL     1      -0.391   4.781  24.765  0.00  0.00    -0.316 NA
ATOM      6  C   UNL     1      -2.682   3.083  25.520  0.00  0.00    +0.004 C 
ATOM      7  C   UNL     1      -1.230   2.767  25.950  0.00  0.00    +0.012 C 
ATOM      9  C   UNL     1      -2.807   4.590  25.242  0.00  0.00    +0.019 C 
ATOM     12  C   UNL     1      -0.206   3.342  24.957  0.00  0.00    +0.085 C 
ATOM     15  C   UNL     1      -1.733   5.097  24.280  0.00  0.00    +0.081 C 
ATOM     27  H   UNL     1       0.299   5.124  24.095  0.00  0.00    +0.122 HD
ENDROOT
BRANCH   6  13
ATOM     13  C   UNL     1      -3.169   2.264  24.318  0.00  0.00    +0.099 C 
BRANCH  13  19
ATOM      2  O   UNL     1      -5.058   1.260  25.448  0.00  0.00    -0.276 OA
ATOM      4  N   UNL     1      -3.628  -0.083  24.201  0.00  0.00    -0.312 N 
ATOM     19  C   UNL     1      -4.070   1.120  24.732  0.00  0.00    +0.214 C 
ATOM     28  H   UNL     1      -2.792  -0.101  23.624  0.00  0.00    +0.149 HD
BRANCH   4   8
ATOM      8  C   UNL     1      -4.299  -1.342  24.436  0.00  0.00    +0.073 C 
ATOM     10  C   UNL     1      -3.572  -2.506  25.042  0.00  0.00    +0.024 C 
ATOM     11  C   UNL     1      -3.993  -2.552  23.603  0.00  0.00    +0.024 C 
ENDBRANCH   4   8
ENDBRANCH  13  19
ENDBRANCH   6  13
BRANCH   7  14
ATOM     14  C   UNL     1      -0.982   1.275  26.172  0.00  0.00    +0.064 C 
BRANCH  14  24
ATOM      1  O   UNL     1       0.121  -0.864  23.494  0.00  0.00    -0.359 OA
ATOM      5  N   UNL     1      -0.654  -0.599  24.616  0.00  0.00    -0.083 NA
ATOM     24  C   UNL     1      -0.327   0.645  24.976  0.00  0.00    +0.084 A 
ATOM     25  C   UNL     1       0.888   0.220  23.212  0.00  0.00    +0.138 A 
ATOM     26  C   UNL     1       0.641   1.210  24.127  0.00  0.00    +0.071 A 
BRANCH  25  20
ATOM     20  C   UNL     1       1.775   0.111  22.047  0.00  0.00    +0.080 C 
BRANCH  20  16
ATOM     16  C   UNL     1       3.222  -0.203  22.422  0.00  0.00    -0.004 C 
ATOM     17  C   UNL     1       3.946   1.064  22.898  0.00  0.00    +0.004 C 
ATOM     18  C   UNL     1       3.278  -1.299  23.494  0.00  0.00    +0.004 C 
ATOM     21  C   UNL     1       5.380   0.766  23.329  0.00  0.00    +0.000 C 
ATOM     22  C   UNL     1       4.714  -1.594  23.924  0.00  0.00    +0.000 C 
ATOM     23  C   UNL     1       5.433  -0.331  24.388  0.00  0.00    +0.000 C 
ENDBRANCH  20  16
ENDBRANCH  25  20
ENDBRANCH  14  24
ENDBRANCH   7  14
TORSDOF 7
ENDMDL
MODEL 2
REMARK VINA RESULT:      -5.1      1.483      4.091
REMARK  Name = 26743248
REMARK  7 active torsions:
REMARK  status: ('A' for Active; 'I' for Inactive)
REMARK    1  A    between atoms: N_4  and  C_8
REMARK    2  A    between atoms: C_6  and  C_13
REMARK    3  A    between atoms: C_7  and  C_14
REMARK    4  A    between atoms: C_13  and  C_19
REMARK    5  A    between atoms: C_14  and  C_24
REMARK    6  A    between atoms: C_16  and  C_20
REMARK    7  A    between atoms: C_20  and  C_25
REMARK                            x       y       z     vdW  Elec       q    Type
REMARK                         _______ _______ _______ _____ _____    ______ ____
ROOT
ATOM      3  N   UNL     1      -3.328  -3.308  24.629  0.00  0.00    -0.316 NA
ATOM      6  C   UNL     1      -3.614  -0.423  24.082  0.00  0.00    +0.004 C 
ATOM      7  C   UNL     1      -2.281  -1.057  24.549  0.00  0.00    +0.012 C 
ATOM      9  C   UNL     1      -4.468  -1.499  23.393  0.00  0.00    +0.019 C 
ATOM     12  C   UNL     1      -2.518  -2.337  25.368  0.00  0.00    +0.085 C 
ATOM     15  C   UNL     1      -4.626  -2.756  24.249  0.00  0.00    +0.081 C 
ATOM     27  H   UNL     1      -3.470  -4.137  25.207  0.00  0.00    +0.122 HD
ENDROOT
BRANCH   6  13
ATOM     13  C   UNL     1      -4.402   0.265  25.203  0.00  0.00    +0.099 C 
BRANCH  13  19
ATOM      2  O   UNL     1      -5.571   2.341  24.781  0.00  0.00    -0.276 OA
ATOM      4  N   UNL     1      -3.265   2.368  25.065  0.00  0.00    -0.312 N 
ATOM     19  C   UNL     1      -4.510   1.761  24.992  0.00  0.00    +0.214 C 
ATOM     28  H   UNL     1      -2.438   1.802  25.236  0.00  0.00    +0.149 HD
BRANCH   4   8
ATOM      8  C   UNL     1      -3.070   3.791  24.899  0.00  0.00    +0.073 C 
ATOM     10  C   UNL     1      -1.723   4.419  25.106  0.00  0.00    +0.024 C 
ATOM     11  C   UNL     1      -2.833   4.686  26.080  0.00  0.00    +0.024 C 
ENDBRANCH   4   8
ENDBRANCH  13  19
ENDBRANCH   6  13
BRANCH   7  14
ATOM     14  C   UNL     1      -1.391  -0.083  25.321  0.00  0.00    +0.064 C 
BRANCH  14  24
ATOM      1  O   UNL     1       1.410   1.618  23.830  0.00  0.00    -0.359 OA
ATOM      5  N   UNL     1       0.387   1.520  24.765  0.00  0.00    -0.083 NA
ATOM     24  C   UNL     1      -0.219   0.360  24.494  0.00  0.00    +0.084 A 
ATOM     25  C   UNL     1       1.392   0.522  23.029  0.00  0.00    +0.138 A 
ATOM     26  C   UNL     1       0.372  -0.311  23.409  0.00  0.00    +0.071 A 
BRANCH  25  20
ATOM     20  C   UNL     1       2.414   0.462  21.976  0.00  0.00    +0.080 C 
BRANCH  20  16
ATOM     16  C   UNL     1       3.751  -0.090  22.468  0.00  0.00    -0.004 C 
ATOM     17  C   UNL     1       4.606   1.028  23.079  0.00  0.00    +0.004 C 
ATOM     18  C   UNL     1       3.531  -1.223  23.478  0.00  0.00    +0.004 C 
ATOM     21  C   UNL     1       5.927   0.492  23.627  0.00  0.00    +0.000 C 
ATOM     22  C   UNL     1       4.853  -1.756  24.026  0.00  0.00    +0.000 C 
ATOM     23  C   UNL     1       5.704  -0.641  24.625  0.00  0.00    +0.000 C 
ENDBRANCH  20  16
ENDBRANCH  25  20
ENDBRANCH  14  24
ENDBRANCH   7  14
TORSDOF 7
ENDMDL
MODEL 3
REMARK VINA RESULT:      -4.4      2.065      6.511
REMARK  Name = 26743248
REMARK  7 active torsions:
REMARK  status: ('A' for Active; 'I' for Inactive)
REMARK    1  A    between atoms: N_4  and  C_8
REMARK    2  A    between atoms: C_6  and  C_13
REMARK    3  A    between atoms: C_7  and  C_14
REMARK    4  A    between atoms: C_13  and  C_19
REMARK    5  A    between atoms: C_14  and  C_24
REMARK    6  A    between atoms: C_16  and  C_20
REMARK    7  A    between atoms: C_20  and  C_25
REMARK                            x       y       z     vdW  Elec       q    Type
REMARK                         _______ _______ _______ _____ _____    ______ ____
ROOT
ATOM      3  N   UNL     1      -3.589  -3.311  24.259  0.00  0.00    -0.316 NA
ATOM      6  C   UNL     1      -2.962  -0.551  25.090  0.00  0.00    +0.004 C 
ATOM      7  C   UNL     1      -4.379  -0.990  24.648  0.00  0.00    +0.012 C 
ATOM      9  C   UNL     1      -2.193  -1.780  25.603  0.00  0.00    +0.019 C 
ATOM     12  C   UNL     1      -4.327  -2.186  23.683  0.00  0.00    +0.085 C 
ATOM     15  C   UNL     1      -2.220  -2.941  24.609  0.00  0.00    +0.081 C 
ATOM     27  H   UNL     1      -3.569  -4.080  23.588  0.00  0.00    +0.122 HD
ENDROOT
BRANCH   6  13
ATOM     13  C   UNL     1      -2.166   0.175  24.000  0.00  0.00    +0.099 C 
BRANCH  13  19
ATOM      2  O   UNL     1      -0.196   0.520  25.362  0.00  0.00    -0.276 OA
ATOM      4  N   UNL     1       0.045  -0.239  23.179  0.00  0.00    -0.312 N 
ATOM     19  C   UNL     1      -0.678   0.181  24.285  0.00  0.00    +0.214 C 
ATOM     28  H   UNL     1      -0.443  -0.492  22.324  0.00  0.00    +0.149 HD
BRANCH   4   8
ATOM      8  C   UNL     1       1.488  -0.328  23.167  0.00  0.00    +0.073 C 
ATOM     10  C   UNL     1       2.341   0.904  23.075  0.00  0.00    +0.024 C 
ATOM     11  C   UNL     1       2.274  -0.050  21.919  0.00  0.00    +0.024 C 
ENDBRANCH   4   8
ENDBRANCH  13  19
ENDBRANCH   6  13
BRANCH   7  14
ATOM     14  C   UNL     1      -5.198   0.151  24.044  0.00  0.00    +0.064 C 
BRANCH  14  24
ATOM      1  O   UNL     1      -5.621   2.850  26.390  0.00  0.00    -0.359 OA
ATOM      5  N   UNL     1      -6.007   1.641  25.823  0.00  0.00    -0.083 NA
ATOM     24  C   UNL     1      -5.097   1.397  24.876  0.00  0.00    +0.084 A 
ATOM     25  C   UNL     1      -4.497   3.296  25.771  0.00  0.00    +0.138 A 
ATOM     26  C   UNL     1      -4.122   2.408  24.798  0.00  0.00    +0.071 A 
BRANCH  25  20
ATOM     20  C   UNL     1      -3.949   4.572  26.249  0.00  0.00    +0.080 C 
BRANCH  20  16
ATOM     16  C   UNL     1      -2.433   4.673  26.086  0.00  0.00    -0.004 C 
ATOM     17  C   UNL     1      -1.784   3.286  26.191  0.00  0.00    +0.004 C 
ATOM     18  C   UNL     1      -2.075   5.344  24.754  0.00  0.00    +0.004 C 
ATOM     21  C   UNL     1      -0.273   3.353  25.977  0.00  0.00    +0.000 C 
ATOM     22  C   UNL     1      -0.564   5.409  24.543  0.00  0.00    +0.000 C 
ATOM     23  C   UNL     1       0.079   4.030  24.656  0.00  0.00    +0.000 C 
ENDBRANCH  20  16
ENDBRANCH  25  20
ENDBRANCH  14  24
ENDBRANCH   7  14
TORSDOF 7
ENDMDL
MODEL 4
REMARK VINA RESULT:      -4.1      1.981      6.336
REMARK  Name = 26743248
REMARK  7 active torsions:
REMARK  status: ('A' for Active; 'I' for Inactive)
REMARK    1  A    between atoms: N_4  and  C_8
REMARK    2  A    between atoms: C_6  and  C_13
REMARK    3  A    between atoms: C_7  and  C_14
REMARK    4  A    between atoms: C_13  and  C_19
REMARK    5  A    between atoms: C_14  and  C_24
REMARK    6  A    between atoms: C_16  and  C_20
REMARK    7  A    between atoms: C_20  and  C_25
REMARK                            x       y       z     vdW  Elec       q    Type
REMARK                         _______ _______ _______ _____ _____    ______ ____
ROOT
ATOM      3  N   UNL     1       2.876   0.420  21.883  0.00  0.00    -0.316 NA
ATOM      6  C   UNL     1       0.291   0.197  23.288  0.00  0.00    +0.004 C 
ATOM      7  C   UNL     1       1.276   1.366  23.530  0.00  0.00    +0.012 C 
ATOM      9  C   UNL     1       0.542  -0.390  21.889  0.00  0.00    +0.019 C 
ATOM     12  C   UNL     1       2.729   0.954  23.239  0.00  0.00    +0.085 C 
ATOM     15  C   UNL     1       2.013  -0.737  21.658  0.00  0.00    +0.081 C 
ATOM     27  H   UNL     1       3.848   0.151  21.731  0.00  0.00    +0.122 HD
ENDROOT
BRANCH   6  13
ATOM     13  C   UNL     1       0.349  -0.899  24.359  0.00  0.00    +0.099 C 
BRANCH  13  19
ATOM      2  O   UNL     1      -1.210  -0.586  26.181  0.00  0.00    -0.276 OA
ATOM      4  N   UNL     1      -1.856  -1.833  24.329  0.00  0.00    -0.312 N 
ATOM     19  C   UNL     1      -0.973  -1.069  25.078  0.00  0.00    +0.214 C 
ATOM     28  H   UNL     1      -1.565  -2.198  23.427  0.00  0.00    +0.149 HD
BRANCH   4   8
ATOM      8  C   UNL     1      -3.192  -2.156  24.775  0.00  0.00    +0.073 C 
ATOM     10  C   UNL     1      -3.934  -3.333  24.212  0.00  0.00    +0.024 C 
ATOM     11  C   UNL     1      -4.382  -1.939  23.886  0.00  0.00    +0.024 C 
ENDBRANCH   4   8
ENDBRANCH  13  19
ENDBRANCH   6  13
BRANCH   7  14
ATOM     14  C   UNL     1       1.159   1.966  24.932  0.00  0.00    +0.064 C 
BRANCH  14  24
ATOM      1  O   UNL     1      -1.865   3.467  26.183  0.00  0.00    -0.359 OA
ATOM      5  N   UNL     1      -0.647   2.820  26.361  0.00  0.00    -0.083 NA
ATOM     24  C   UNL     1      -0.166   2.645  25.128  0.00  0.00    +0.084 A 
ATOM     25  C   UNL     1      -2.079   3.661  24.857  0.00  0.00    +0.138 A 
ATOM     26  C   UNL     1      -1.027   3.155  24.140  0.00  0.00    +0.071 A 
BRANCH  25  20
ATOM     20  C   UNL     1      -3.329   4.337  24.487  0.00  0.00    +0.080 C 
BRANCH  20  16
ATOM     16  C   UNL     1      -4.558   3.438  24.611  0.00  0.00    -0.004 C 
ATOM     17  C   UNL     1      -4.191   1.976  24.320  0.00  0.00    +0.004 C 
ATOM     18  C   UNL     1      -5.191   3.575  26.002  0.00  0.00    +0.004 C 
ATOM     21  C   UNL     1      -5.392   1.049  24.490  0.00  0.00    +0.000 C 
ATOM     22  C   UNL     1      -6.391   2.646  26.170  0.00  0.00    +0.000 C 
ATOM     23  C   UNL     1      -6.025   1.195  25.871  0.00  0.00    +0.000 C 
ENDBRANCH  20  16
ENDBRANCH  25  20
ENDBRANCH  14  24
ENDBRANCH   7  14
TORSDOF 7
ENDMDL
MODEL 5
REMARK VINA RESULT:      -3.9      2.212      4.137
REMARK  Name = 26743248
REMARK  7 active torsions:
REMARK  status: ('A' for Active; 'I' for Inactive)
REMARK    1  A    between atoms: N_4  and  C_8
REMARK    2  A    between atoms: C_6  and  C_13
REMARK    3  A    between atoms: C_7  and  C_14
REMARK    4  A    between atoms: C_13  and  C_19
REMARK    5  A    between atoms: C_14  and  C_24
REMARK    6  A    between atoms: C_16  and  C_20
REMARK    7  A    between atoms: C_20  and  C_25
REMARK                            x       y       z     vdW  Elec       q    Type
REMARK                         _______ _______ _______ _____ _____    ______ ____
ROOT
ATOM      3  N   UNL     1      -4.644   3.923  24.975  0.00  0.00    -0.316 NA
ATOM      6  C   UNL     1      -1.891   2.863  25.007  0.00  0.00    +0.004 C 
ATOM      7  C   UNL     1      -3.099   2.039  24.498  0.00  0.00    +0.012 C 
ATOM      9  C   UNL     1      -2.215   4.360  24.879  0.00  0.00    +0.019 C 
ATOM     12  C   UNL     1      -4.412   2.489  25.159  0.00  0.00    +0.085 C 
ATOM     15  C   UNL     1      -3.553   4.725  25.523  0.00  0.00    +0.081 C 
ATOM     27  H   UNL     1      -5.518   4.185  25.433  0.00  0.00    +0.122 HD
ENDROOT
BRANCH   6  13
ATOM     13  C   UNL     1      -1.460   2.518  26.437  0.00  0.00    +0.099 C 
BRANCH  13  19
ATOM      2  O   UNL     1       0.804   2.306  25.613  0.00  0.00    -0.276 OA
ATOM      4  N   UNL     1       0.431   2.434  27.903  0.00  0.00    -0.312 N 
ATOM     19  C   UNL     1       0.044   2.408  26.572  0.00  0.00    +0.214 C 
ATOM     28  H   UNL     1      -0.274   2.513  28.631  0.00  0.00    +0.149 HD
BRANCH   4   8
ATOM      8  C   UNL     1       1.811   2.344  28.325  0.00  0.00    +0.073 C 
ATOM     10  C   UNL     1       2.176   2.308  29.780  0.00  0.00    +0.024 C 
ATOM     11  C   UNL     1       2.510   3.514  28.953  0.00  0.00    +0.024 C 
ENDBRANCH   4   8
ENDBRANCH  13  19
ENDBRANCH   6  13
BRANCH   7  14
ATOM     14  C   UNL     1      -2.906   0.531  24.660  0.00  0.00    +0.064 C 
BRANCH  14  24
ATOM      1  O   UNL     1       0.347  -0.967  24.293  0.00  0.00    -0.359 OA
ATOM      5  N   UNL     1      -0.868  -0.812  24.948  0.00  0.00    -0.083 NA
ATOM     24  C   UNL     1      -1.529   0.106  24.238  0.00  0.00    +0.084 A 
ATOM     25  C   UNL     1       0.384  -0.144  23.214  0.00  0.00    +0.138 A 
ATOM     26  C   UNL     1      -0.787   0.563  23.134  0.00  0.00    +0.071 A 
BRANCH  25  20
ATOM     20  C   UNL     1       1.606  -0.180  22.402  0.00  0.00    +0.080 C 
BRANCH  20  16
ATOM     16  C   UNL     1       2.884  -0.076  23.234  0.00  0.00    -0.004 C 
ATOM     17  C   UNL     1       3.588  -1.437  23.316  0.00  0.00    +0.004 C 
ATOM     18  C   UNL     1       3.822   0.991  22.655  0.00  0.00    +0.004 C 
ATOM     21  C   UNL     1       4.897  -1.348  24.098  0.00  0.00    +0.000 C 
ATOM     22  C   UNL     1       5.130   1.077  23.438  0.00  0.00    +0.000 C 
ATOM     23  C   UNL     1       5.824  -0.280  23.525  0.00  0.00    +0.000 C 
ENDBRANCH  20  16
ENDBRANCH  25  20
ENDBRANCH  14  24
ENDBRANCH   7  14
TORSDOF 7
ENDMDL
MODEL 6
REMARK VINA RESULT:      -3.8      2.055      7.434
REMARK  Name = 26743248
REMARK  7 active torsions:
REMARK  status: ('A' for Active; 'I' for Inactive)
REMARK    1  A    between atoms: N_4  and  C_8
REMARK    2  A    between atoms: C_6  and  C_13
REMARK    3  A    between atoms: C_7  and  C_14
REMARK    4  A    between atoms: C_13  and  C_19
REMARK    5  A    between atoms: C_14  and  C_24
REMARK    6  A    between atoms: C_16  and  C_20
REMARK    7  A    between atoms: C_20  and  C_25
REMARK                            x       y       z     vdW  Elec       q    Type
REMARK                         _______ _______ _______ _____ _____    ______ ____
ROOT
ATOM      3  N   UNL     1      -2.478  -0.759  25.560  0.00  0.00    -0.316 NA
ATOM      6  C   UNL     1       0.226  -0.569  24.395  0.00  0.00    +0.004 C 
ATOM      7  C   UNL     1      -0.330   0.475  25.394  0.00  0.00    +0.012 C 
ATOM      9  C   UNL     1      -0.510  -1.903  24.602  0.00  0.00    +0.019 C 
ATOM     12  C   UNL     1      -1.865   0.551  25.339  0.00  0.00    +0.085 C 
ATOM     15  C   UNL     1      -2.030  -1.742  24.576  0.00  0.00    +0.081 C 
ATOM     27  H   UNL     1      -3.493  -0.670  25.508  0.00  0.00    +0.122 HD
ENDROOT
BRANCH   6  13
ATOM     13  C   UNL     1       0.154  -0.128  22.929  0.00  0.00    +0.099 C 
BRANCH  13  19
ATOM      2  O   UNL     1       1.629  -0.491  21.046  0.00  0.00    -0.276 OA
ATOM      4  N   UNL     1       2.535   0.034  23.120  0.00  0.00    -0.312 N 
ATOM     19  C   UNL     1       1.497  -0.221  22.236  0.00  0.00    +0.214 C 
ATOM     28  H   UNL     1       2.328   0.242  24.093  0.00  0.00    +0.149 HD
BRANCH   4   8
ATOM      8  C   UNL     1       3.927   0.011  22.730  0.00  0.00    +0.073 C 
ATOM     10  C   UNL     1       4.947  -0.735  23.540  0.00  0.00    +0.024 C 
ATOM     11  C   UNL     1       4.965   0.765  23.509  0.00  0.00    +0.024 C 
ENDBRANCH   4   8
ENDBRANCH  13  19
ENDBRANCH   6  13
BRANCH   7  14
ATOM     14  C   UNL     1       0.284   1.863  25.213  0.00  0.00    +0.064 C 
BRANCH  14  24
ATOM      1  O   UNL     1      -1.675   4.882  25.113  0.00  0.00    -0.359 OA
ATOM      5  N   UNL     1      -0.494   4.190  25.352  0.00  0.00    -0.083 NA
ATOM     24  C   UNL     1      -0.777   2.916  25.068  0.00  0.00    +0.084 A 
ATOM     25  C   UNL     1      -2.629   4.011  24.695  0.00  0.00    +0.138 A 
ATOM     26  C   UNL     1      -2.109   2.744  24.650  0.00  0.00    +0.071 A 
BRANCH  25  20
ATOM     20  C   UNL     1      -3.950   4.578  24.396  0.00  0.00    +0.080 C 
BRANCH  20  16
ATOM     16  C   UNL     1      -5.103   3.662  24.800  0.00  0.00    -0.004 C 
ATOM     17  C   UNL     1      -4.984   2.301  24.101  0.00  0.00    +0.004 C 
ATOM     18  C   UNL     1      -5.151   3.491  26.324  0.00  0.00    +0.004 C 
ATOM     21  C   UNL     1      -6.096   1.347  24.530  0.00  0.00    +0.000 C 
ATOM     22  C   UNL     1      -6.263   2.535  26.750  0.00  0.00    +0.000 C 
ATOM     23  C   UNL     1      -6.146   1.186  26.047  0.00  0.00    +0.000 C 
ENDBRANCH  20  16
ENDBRANCH  25  20
ENDBRANCH  14  24
ENDBRANCH   7  14
TORSDOF 7
ENDMDL
MODEL 7
REMARK VINA RESULT:      -3.8      2.449      4.661
REMARK  Name = 26743248
REMARK  7 active torsions:
REMARK  status: ('A' for Active; 'I' for Inactive)
REMARK    1  A    between atoms: N_4  and  C_8
REMARK    2  A    between atoms: C_6  and  C_13
REMARK    3  A    between atoms: C_7  and  C_14
REMARK    4  A    between atoms: C_13  and  C_19
REMARK    5  A    between atoms: C_14  and  C_24
REMARK    6  A    between atoms: C_16  and  C_20
REMARK    7  A    between atoms: C_20  and  C_25
REMARK                            x       y       z     vdW  Elec       q    Type
REMARK                         _______ _______ _______ _____ _____    ______ ____
ROOT
ATOM      3  N   UNL     1      -1.262   5.671  25.230  0.00  0.00    -0.316 NA
ATOM      6  C   UNL     1      -1.590   2.754  24.932  0.00  0.00    +0.004 C 
ATOM      7  C   UNL     1      -0.223   3.462  24.773  0.00  0.00    +0.012 C 
ATOM      9  C   UNL     1      -2.503   3.618  25.818  0.00  0.00    +0.019 C 
ATOM     12  C   UNL     1      -0.389   4.923  24.322  0.00  0.00    +0.085 C 
ATOM     15  C   UNL     1      -2.587   5.065  25.332  0.00  0.00    +0.081 C 
ATOM     27  H   UNL     1      -1.354   6.630  24.894  0.00  0.00    +0.122 HD
ENDROOT
BRANCH   6  13
ATOM     13  C   UNL     1      -2.276   2.419  23.603  0.00  0.00    +0.099 C 
BRANCH  13  19
ATOM      2  O   UNL     1      -4.347   3.442  22.883  0.00  0.00    -0.276 OA
ATOM      4  N   UNL     1      -4.372   1.943  24.659  0.00  0.00    -0.312 N 
ATOM     19  C   UNL     1      -3.768   2.677  23.648  0.00  0.00    +0.214 C 
ATOM     28  H   UNL     1      -3.807   1.340  25.250  0.00  0.00    +0.149 HD
BRANCH   4   8
ATOM      8  C   UNL     1      -5.791   1.997  24.932  0.00  0.00    +0.073 C 
ATOM     10  C   UNL     1      -6.385   3.121  25.730  0.00  0.00    +0.024 C 
ATOM     11  C   UNL     1      -6.327   1.738  26.310  0.00  0.00    +0.024 C 
ENDBRANCH   4   8
ENDBRANCH  13  19
ENDBRANCH   6  13
BRANCH   7  14
ATOM     14  C   UNL     1       0.732   2.718  23.839  0.00  0.00    +0.064 C 
BRANCH  14  24
ATOM      1  O   UNL     1       0.664  -0.851  23.370  0.00  0.00    -0.359 OA
ATOM      5  N   UNL     1       0.980   0.438  22.957  0.00  0.00    -0.083 NA
ATOM     24  C   UNL     1       0.552   1.231  23.944  0.00  0.00    +0.084 A 
ATOM     25  C   UNL     1       0.060  -0.797  24.585  0.00  0.00    +0.138 A 
ATOM     26  C   UNL     1      -0.036   0.507  24.995  0.00  0.00    +0.071 A 
BRANCH  25  20
ATOM     20  C   UNL     1      -0.344  -2.080  25.174  0.00  0.00    +0.080 C 
BRANCH  20  16
ATOM     16  C   UNL     1      -1.859  -2.271  25.216  0.00  0.00    -0.004 C 
ATOM     17  C   UNL     1      -2.562  -0.954  25.571  0.00  0.00    +0.004 C 
ATOM     18  C   UNL     1      -2.373  -2.821  23.879  0.00  0.00    +0.004 C 
ATOM     21  C   UNL     1      -4.081  -1.106  25.568  0.00  0.00    +0.000 C 
ATOM     22  C   UNL     1      -3.893  -2.971  23.878  0.00  0.00    +0.000 C 
ATOM     23  C   UNL     1      -4.588  -1.661  24.240  0.00  0.00    +0.000 C 
ENDBRANCH  20  16
ENDBRANCH  25  20
ENDBRANCH  14  24
ENDBRANCH   7  14
TORSDOF 7
ENDMDL
MODEL 8
REMARK VINA RESULT:      -2.3      3.258      5.840
REMARK  Name = 26743248
REMARK  7 active torsions:
REMARK  status: ('A' for Active; 'I' for Inactive)
REMARK    1  A    between atoms: N_4  and  C_8
REMARK    2  A    between atoms: C_6  and  C_13
REMARK    3  A    between atoms: C_7  and  C_14
REMARK    4  A    between atoms: C_13  and  C_19
REMARK    5  A    between atoms: C_14  and  C_24
REMARK    6  A    between atoms: C_16  and  C_20
REMARK    7  A    between atoms: C_20  and  C_25
REMARK                            x       y       z     vdW  Elec       q    Type
REMARK                         _______ _______ _______ _____ _____    ______ ____
ROOT
ATOM      3  N   UNL     1      -0.942   6.048  24.463  0.00  0.00    -0.316 NA
ATOM      6  C   UNL     1      -1.806   3.267  24.937  0.00  0.00    +0.004 C 
ATOM      7  C   UNL     1      -2.805   4.442  24.802  0.00  0.00    +0.012 C 
ATOM      9  C   UNL     1      -0.502   3.631  24.208  0.00  0.00    +0.019 C 
ATOM     12  C   UNL     1      -2.168   5.779  25.217  0.00  0.00    +0.085 C 
ATOM     15  C   UNL     1       0.049   4.989  24.641  0.00  0.00    +0.081 C 
ATOM     27  H   UNL     1      -0.545   6.936  24.771  0.00  0.00    +0.122 HD
ENDROOT
BRANCH   6  13
ATOM     13  C   UNL     1      -1.524   2.852  26.385  0.00  0.00    +0.099 C 
BRANCH  13  19
ATOM      2  O   UNL     1       0.587   1.904  25.680  0.00  0.00    -0.276 OA
ATOM      4  N   UNL     1       0.316   2.569  27.890  0.00  0.00    -0.312 N 
ATOM     19  C   UNL     1      -0.097   2.384  26.579  0.00  0.00    +0.214 C 
ATOM     28  H   UNL     1      -0.326   2.968  28.569  0.00  0.00    +0.149 HD
BRANCH   4   8
ATOM      8  C   UNL     1       1.635   2.208  28.360  0.00  0.00    +0.073 C 
ATOM     10  C   UNL     1       1.952   2.168  29.826  0.00  0.00    +0.024 C 
ATOM     11  C   UNL     1       2.554   3.233  28.958  0.00  0.00    +0.024 C 
ENDBRANCH   4   8
ENDBRANCH  13  19
ENDBRANCH   6  13
BRANCH   7  14
ATOM     14  C   UNL     1      -4.109   4.210  25.566  0.00  0.00    +0.064 C 
BRANCH  14  24
ATOM      1  O   UNL     1      -5.857   1.064  25.672  0.00  0.00    -0.359 OA
ATOM      5  N   UNL     1      -5.673   2.383  26.070  0.00  0.00    -0.083 NA
ATOM     24  C   UNL     1      -4.606   2.805  25.386  0.00  0.00    +0.084 A 
ATOM     25  C   UNL     1      -4.902   0.732  24.766  0.00  0.00    +0.138 A 
ATOM     26  C   UNL     1      -4.079   1.806  24.549  0.00  0.00    +0.071 A 
BRANCH  25  20
ATOM     20  C   UNL     1      -4.948  -0.637  24.237  0.00  0.00    +0.080 C 
BRANCH  20  16
ATOM     16  C   UNL     1      -3.564  -1.237  24.002  0.00  0.00    -0.004 C 
ATOM     17  C   UNL     1      -2.472  -0.320  24.570  0.00  0.00    +0.004 C 
ATOM     18  C   UNL     1      -3.471  -2.641  24.614  0.00  0.00    +0.004 C 
ATOM     21  C   UNL     1      -1.081  -0.924  24.395  0.00  0.00    +0.000 C 
ATOM     22  C   UNL     1      -2.078  -3.242  24.440  0.00  0.00    +0.000 C 
ATOM     23  C   UNL     1      -0.995  -2.323  24.998  0.00  0.00    +0.000 C 
ENDBRANCH  20  16
ENDBRANCH  25  20
ENDBRANCH  14  24
ENDBRANCH   7  14
TORSDOF 7
ENDMDL
MODEL 9
REMARK VINA RESULT:      -2.1      2.062      5.681
REMARK  Name = 26743248
REMARK  7 active torsions:
REMARK  status: ('A' for Active; 'I' for Inactive)
REMARK    1  A    between atoms: N_4  and  C_8
REMARK    2  A    between atoms: C_6  and  C_13
REMARK    3  A    between atoms: C_7  and  C_14
REMARK    4  A    between atoms: C_13  and  C_19
REMARK    5  A    between atoms: C_14  and  C_24
REMARK    6  A    between atoms: C_16  and  C_20
REMARK    7  A    between atoms: C_20  and  C_25
REMARK                            x       y       z     vdW  Elec       q    Type
REMARK                         _______ _______ _______ _____ _____    ______ ____
ROOT
ATOM      3  N   UNL     1      -0.926   6.114  24.411  0.00  0.00    -0.316 NA
ATOM      6  C   UNL     1      -1.948   3.360  24.684  0.00  0.00    +0.004 C 
ATOM      7  C   UNL     1      -2.820   4.607  24.966  0.00  0.00    +0.012 C 
ATOM      9  C   UNL     1      -0.817   3.746  23.716  0.00  0.00    +0.019 C 
ATOM     12  C   UNL     1      -1.965   5.812  25.396  0.00  0.00    +0.085 C 
ATOM     15  C   UNL     1      -0.039   4.975  24.189  0.00  0.00    +0.081 C 
ATOM     27  H   UNL     1      -0.376   6.911  24.734  0.00  0.00    +0.122 HD
ENDROOT
BRANCH   6  13
ATOM     13  C   UNL     1      -1.384   2.696  25.945  0.00  0.00    +0.099 C 
BRANCH  13  19
ATOM      2  O   UNL     1       0.960   2.235  26.332  0.00  0.00    -0.276 OA
ATOM      4  N   UNL     1      -0.161   1.105  24.639  0.00  0.00    -0.312 N 
ATOM     19  C   UNL     1      -0.060   2.007  25.687  0.00  0.00    +0.214 C 
ATOM     28  H   UNL     1      -1.049   0.990  24.157  0.00  0.00    +0.149 HD
BRANCH   4   8
ATOM      8  C   UNL     1       0.952   0.308  24.174  0.00  0.00    +0.073 C 
ATOM     10  C   UNL     1       1.933   0.853  23.177  0.00  0.00    +0.024 C 
ATOM     11  C   UNL     1       0.986  -0.240  22.777  0.00  0.00    +0.024 C 
ENDBRANCH   4   8
ENDBRANCH  13  19
ENDBRANCH   6  13
BRANCH   7  14
ATOM     14  C   UNL     1      -3.929   4.345  25.985  0.00  0.00    +0.064 C 
BRANCH  14  24
ATOM      1  O   UNL     1      -6.156   1.520  25.831  0.00  0.00    -0.359 OA
ATOM      5  N   UNL     1      -5.802   2.784  26.288  0.00  0.00    -0.083 NA
ATOM     24  C   UNL     1      -4.624   3.042  25.715  0.00  0.00    +0.084 A 
ATOM     25  C   UNL     1      -5.187   1.057  25.000  0.00  0.00    +0.138 A 
ATOM     26  C   UNL     1      -4.187   1.988  24.893  0.00  0.00    +0.071 A 
BRANCH  25  20
ATOM     20  C   UNL     1      -5.402  -0.276  24.422  0.00  0.00    +0.080 C 
BRANCH  20  16
ATOM     16  C   UNL     1      -4.329  -1.286  24.826  0.00  0.00    -0.004 C 
ATOM     17  C   UNL     1      -4.037  -2.255  23.673  0.00  0.00    +0.004 C 
ATOM     18  C   UNL     1      -3.049  -0.567  25.272  0.00  0.00    +0.004 C 
ATOM     21  C   UNL     1      -2.928  -3.242  24.033  0.00  0.00    +0.000 C 
ATOM     22  C   UNL     1      -1.941  -1.556  25.630  0.00  0.00    +0.000 C 
ATOM     23  C   UNL     1      -1.660  -2.524  24.484  0.00  0.00    +0.000 C 
ENDBRANCH  20  16
ENDBRANCH  25  20
ENDBRANCH  14  24
ENDBRANCH   7  14
TORSDOF 7
ENDMDL
MODEL 10
REMARK VINA RESULT:      -1.8      2.475      6.849
REMARK  Name = 26743248
REMARK  7 active torsions:
REMARK  status: ('A' for Active; 'I' for Inactive)
REMARK    1  A    between atoms: N_4  and  C_8
REMARK    2  A    between atoms: C_6  and  C_13
REMARK    3  A    between atoms: C_7  and  C_14
REMARK    4  A    between atoms: C_13  and  C_19
REMARK    5  A    between atoms: C_14  and  C_24
REMARK    6  A    between atoms: C_16  and  C_20
REMARK    7  A    between atoms: C_20  and  C_25
REMARK                            x       y       z     vdW  Elec       q    Type
REMARK                         _______ _______ _______ _____ _____    ______ ____
ROOT
ATOM      3  N   UNL     1       0.462  -0.641  22.173  0.00  0.00    -0.316 NA
ATOM      6  C   UNL     1       0.510   0.372  24.944  0.00  0.00    +0.004 C 
ATOM      7  C   UNL     1       0.020  -1.051  24.582  0.00  0.00    +0.012 C 
ATOM      9  C   UNL     1       1.473   0.864  23.850  0.00  0.00    +0.019 C 
ATOM     12  C   UNL     1      -0.525  -1.116  23.145  0.00  0.00    +0.085 C 
ATOM     15  C   UNL     1       0.879   0.732  22.448  0.00  0.00    +0.081 C 
ATOM     27  H   UNL     1       0.063  -0.691  21.235  0.00  0.00    +0.122 HD
ENDROOT
BRANCH   6  13
ATOM     13  C   UNL     1      -0.621   1.381  25.171  0.00  0.00    +0.099 C 
BRANCH  13  19
ATOM      2  O   UNL     1      -0.486   3.697  25.856  0.00  0.00    -0.276 OA
ATOM      4  N   UNL     1       0.552   2.064  27.143  0.00  0.00    -0.312 N 
ATOM     19  C   UNL     1      -0.197   2.524  26.070  0.00  0.00    +0.214 C 
ATOM     28  H   UNL     1       0.748   1.071  27.233  0.00  0.00    +0.149 HD
BRANCH   4   8
ATOM      8  C   UNL     1       1.090   2.939  28.161  0.00  0.00    +0.073 C 
ATOM     10  C   UNL     1       2.505   2.793  28.639  0.00  0.00    +0.024 C 
ATOM     11  C   UNL     1       1.366   2.439  29.549  0.00  0.00    +0.024 C 
ENDBRANCH   4   8
ENDBRANCH  13  19
ENDBRANCH   6  13
BRANCH   7  14
ATOM     14  C   UNL     1      -1.009  -1.600  25.571  0.00  0.00    +0.064 C 
BRANCH  14  24
ATOM      1  O   UNL     1      -4.313  -1.593  24.139  0.00  0.00    -0.359 OA
ATOM      5  N   UNL     1      -3.070  -2.173  24.361  0.00  0.00    -0.083 NA
ATOM     24  C   UNL     1      -2.411  -1.298  25.125  0.00  0.00    +0.084 A 
ATOM     25  C   UNL     1      -4.366  -0.393  24.772  0.00  0.00    +0.138 A 
ATOM     26  C   UNL     1      -3.180  -0.157  25.415  0.00  0.00    +0.071 A 
BRANCH  25  20
ATOM     20  C   UNL     1      -5.619   0.362  24.641  0.00  0.00    +0.080 C 
BRANCH  20  16
ATOM     16  C   UNL     1      -5.402   1.870  24.525  0.00  0.00    -0.004 C 
ATOM     17  C   UNL     1      -5.577   2.549  25.890  0.00  0.00    +0.004 C 
ATOM     18  C   UNL     1      -4.018   2.175  23.936  0.00  0.00    +0.004 C 
ATOM     21  C   UNL     1      -5.312   4.051  25.810  0.00  0.00    +0.000 C 
ATOM     22  C   UNL     1      -3.756   3.677  23.859  0.00  0.00    +0.000 C 
ATOM     23  C   UNL     1      -3.939   4.350  25.216  0.00  0.00    +0.000 C 
ENDBRANCH  20  16
ENDBRANCH  25  20
ENDBRANCH  14  24
ENDBRANCH   7  14
TORSDOF 7
ENDMDL
