MODEL 1
REMARK VINA RESULT:      -3.5      0.000      0.000
REMARK  Name = 40777894
REMARK  11 active torsions:
REMARK  status: ('A' for Active; 'I' for Inactive)
REMARK    1  A    between atoms: S_1  and  N_10
REMARK    2  A    between atoms: S_1  and  C_23
REMARK    3  A    between atoms: O_3  and  C_12
REMARK    4  A    between atoms: O_4  and  C_13
REMARK    5  A    between atoms: O_5  and  C_22
REMARK    6  A    between atoms: O_5  and  C_24
REMARK    7  A    between atoms: N_10  and  C_21
REMARK    8  A    between atoms: C_11  and  C_16
REMARK    9  A    between atoms: C_14  and  C_21
REMARK   10  A    between atoms: C_15  and  C_22
REMARK   11  A    between atoms: C_16  and  C_20
REMARK                            x       y       z     vdW  Elec       q    Type
REMARK                         _______ _______ _______ _____ _____    ______ ____
ROOT
ATOM      2  O   UNL     1      -1.904  -0.313  24.957  0.00  0.00    -0.366 OA
ATOM     11  C   UNL     1      -3.214  -0.281  24.364  0.00  0.00    +0.158 C 
ATOM     12  C   UNL     1      -3.419  -1.654  23.745  0.00  0.00    +0.175 C 
ATOM     13  C   UNL     1      -2.701  -2.544  24.738  0.00  0.00    +0.175 C 
ATOM     14  C   UNL     1      -1.494  -1.692  25.114  0.00  0.00    +0.165 C 
ENDROOT
BRANCH  12   3
ATOM      3  O   UNL     1      -4.787  -1.970  23.599  0.00  0.00    -0.387 OA
ATOM     30  H   UNL     1      -4.843  -2.900  23.321  0.00  0.00    +0.210 HD
ENDBRANCH  12   3
BRANCH  13   4
ATOM      4  O   UNL     1      -3.498  -2.725  25.908  0.00  0.00    -0.387 OA
ATOM     31  H   UNL     1      -4.300  -3.205  25.642  0.00  0.00    +0.210 HD
ENDBRANCH  13   4
BRANCH  11  16
ATOM     16  C   UNL     1      -3.292   0.852  23.355  0.00  0.00    +0.130 C 
BRANCH  16  20
ATOM      6  O   UNL     1      -5.046   2.278  24.099  0.00  0.00    -0.276 OA
ATOM      9  N   UNL     1      -2.877   2.970  24.510  0.00  0.00    -0.296 N 
ATOM     15  C   UNL     1      -3.224   4.268  25.096  0.00  0.00    +0.102 C 
ATOM     17  C   UNL     1      -1.901   5.038  25.080  0.00  0.00    +0.026 C 
ATOM     18  C   UNL     1      -1.429   2.792  24.437  0.00  0.00    +0.108 C 
ATOM     19  C   UNL     1      -0.854   3.944  25.247  0.00  0.00    +0.021 C 
ATOM     20  C   UNL     1      -3.831   2.095  24.018  0.00  0.00    +0.218 C 
BRANCH  15  22
ATOM     22  C   UNL     1      -3.783   4.110  26.508  0.00  0.00    +0.181 C 
BRANCH  22   5
ATOM      5  O   UNL     1      -5.158   3.787  26.414  0.00  0.00    -0.381 OA
ATOM     24  C   UNL     1      -5.878   4.759  25.664  0.00  0.00    +0.194 C 
ENDBRANCH  22   5
ENDBRANCH  15  22
ENDBRANCH  16  20
ENDBRANCH  11  16
BRANCH  14  21
ATOM     21  C   UNL     1      -0.293  -1.926  24.209  0.00  0.00    +0.140 C 
BRANCH  21  10
ATOM     10  N   UNL     1       0.707  -0.919  24.403  0.00  0.00    -0.187 NA
ATOM     32  H   UNL     1       0.776  -0.517  25.346  0.00  0.00    +0.148 HD
BRANCH  10   1
ATOM      1  S   UNL     1       1.276   0.044  23.092  0.00  0.00    +0.058 S 
ATOM      7  O   UNL     1       0.922   1.428  23.347  0.00  0.00    -0.153 OA
ATOM      8  O   UNL     1       0.930  -0.577  21.828  0.00  0.00    -0.153 OA
BRANCH   1  23
ATOM     23  C   UNL     1       3.026  -0.115  23.283  0.00  0.00    +0.105 A 
ATOM     25  C   UNL     1       3.572  -1.316  23.736  0.00  0.00    +0.028 A 
ATOM     26  C   UNL     1       3.861   0.961  22.982  0.00  0.00    +0.028 A 
ATOM     27  C   UNL     1       4.953  -1.441  23.889  0.00  0.00    +0.002 A 
ATOM     28  C   UNL     1       5.242   0.836  23.134  0.00  0.00    +0.002 A 
ATOM     29  C   UNL     1       5.788  -0.364  23.587  0.00  0.00    +0.000 A 
ENDBRANCH   1  23
ENDBRANCH  10   1
ENDBRANCH  21  10
ENDBRANCH  14  21
TORSDOF 10
ENDMDL
MODEL 2
REMARK VINA RESULT:      -3.3      2.331      7.220
REMARK  Name = 40777894
REMARK  11 active torsions:
REMARK  status: ('A' for Active; 'I' for Inactive)
REMARK    1  A    between atoms: S_1  and  N_10
REMARK    2  A    between atoms: S_1  and  C_23
REMARK    3  A    between atoms: O_3  and  C_12
REMARK    4  A    between atoms: O_4  and  C_13
REMARK    5  A    between atoms: O_5  and  C_22
REMARK    6  A    between atoms: O_5  and  C_24
REMARK    7  A    between atoms: N_10  and  C_21
REMARK    8  A    between atoms: C_11  and  C_16
REMARK    9  A    between atoms: C_14  and  C_21
REMARK   10  A    between atoms: C_15  and  C_22
REMARK   11  A    between atoms: C_16  and  C_20
REMARK                            x       y       z     vdW  Elec       q    Type
REMARK                         _______ _______ _______ _____ _____    ______ ____
ROOT
ATOM      2  O   UNL     1      -1.896   3.486  26.715  0.00  0.00    -0.366 OA
ATOM     11  C   UNL     1      -0.871   3.309  25.721  0.00  0.00    +0.158 C 
ATOM     12  C   UNL     1      -1.460   3.839  24.425  0.00  0.00    +0.175 C 
ATOM     13  C   UNL     1      -2.297   4.999  24.923  0.00  0.00    +0.175 C 
ATOM     14  C   UNL     1      -2.863   4.445  26.226  0.00  0.00    +0.165 C 
ENDROOT
BRANCH  12   3
ATOM      3  O   UNL     1      -0.459   4.226  23.507  0.00  0.00    -0.387 OA
ATOM     30  H   UNL     1       0.377   3.831  23.805  0.00  0.00    +0.210 HD
ENDBRANCH  12   3
BRANCH  13   4
ATOM      4  O   UNL     1      -1.462   6.113  25.240  0.00  0.00    -0.387 OA
ATOM     31  H   UNL     1      -0.715   5.775  25.762  0.00  0.00    +0.210 HD
ENDBRANCH  13   4
BRANCH  11  16
ATOM     16  C   UNL     1      -0.475   1.845  25.649  0.00  0.00    +0.130 C 
BRANCH  16  20
ATOM      6  O   UNL     1       1.412   2.477  24.343  0.00  0.00    -0.276 OA
ATOM      9  N   UNL     1       0.388   0.469  23.817  0.00  0.00    -0.296 N 
ATOM     15  C   UNL     1       1.220   0.158  22.652  0.00  0.00    +0.102 C 
ATOM     17  C   UNL     1       0.443  -0.949  21.937  0.00  0.00    +0.026 C 
ATOM     18  C   UNL     1      -0.637  -0.550  24.023  0.00  0.00    +0.108 C 
ATOM     19  C   UNL     1      -0.261  -1.678  23.075  0.00  0.00    +0.021 C 
ATOM     20  C   UNL     1       0.533   1.638  24.546  0.00  0.00    +0.218 C 
BRANCH  15  22
ATOM     22  C   UNL     1       2.618  -0.295  23.069  0.00  0.00    +0.181 C 
BRANCH  22   5
ATOM      5  O   UNL     1       3.553   0.674  22.632  0.00  0.00    -0.381 OA
ATOM     24  C   UNL     1       4.856   0.419  23.144  0.00  0.00    +0.194 C 
ENDBRANCH  22   5
ENDBRANCH  15  22
ENDBRANCH  16  20
ENDBRANCH  11  16
BRANCH  14  21
ATOM     21  C   UNL     1      -4.187   3.718  26.041  0.00  0.00    +0.140 C 
BRANCH  21  10
ATOM     10  N   UNL     1      -3.982   2.321  25.794  0.00  0.00    -0.187 NA
ATOM     32  H   UNL     1      -3.126   1.908  26.184  0.00  0.00    +0.148 HD
BRANCH  10   1
ATOM      1  S   UNL     1      -4.685   1.540  24.428  0.00  0.00    +0.058 S 
ATOM      7  O   UNL     1      -4.024   2.020  23.230  0.00  0.00    -0.153 OA
ATOM      8  O   UNL     1      -6.132   1.569  24.525  0.00  0.00    -0.153 OA
BRANCH   1  23
ATOM     23  C   UNL     1      -4.184  -0.134  24.695  0.00  0.00    +0.105 A 
ATOM     25  C   UNL     1      -3.631  -0.510  25.918  0.00  0.00    +0.028 A 
ATOM     26  C   UNL     1      -4.341  -1.078  23.679  0.00  0.00    +0.028 A 
ATOM     27  C   UNL     1      -3.233  -1.831  26.127  0.00  0.00    +0.002 A 
ATOM     28  C   UNL     1      -3.944  -2.399  23.888  0.00  0.00    +0.002 A 
ATOM     29  C   UNL     1      -3.391  -2.775  25.112  0.00  0.00    +0.000 A 
ENDBRANCH   1  23
ENDBRANCH  10   1
ENDBRANCH  21  10
ENDBRANCH  14  21
TORSDOF 10
ENDMDL
MODEL 3
REMARK VINA RESULT:      -3.2      1.182      2.151
REMARK  Name = 40777894
REMARK  11 active torsions:
REMARK  status: ('A' for Active; 'I' for Inactive)
REMARK    1  A    between atoms: S_1  and  N_10
REMARK    2  A    between atoms: S_1  and  C_23
REMARK    3  A    between atoms: O_3  and  C_12
REMARK    4  A    between atoms: O_4  and  C_13
REMARK    5  A    between atoms: O_5  and  C_22
REMARK    6  A    between atoms: O_5  and  C_24
REMARK    7  A    between atoms: N_10  and  C_21
REMARK    8  A    between atoms: C_11  and  C_16
REMARK    9  A    between atoms: C_14  and  C_21
REMARK   10  A    between atoms: C_15  and  C_22
REMARK   11  A    between atoms: C_16  and  C_20
REMARK                            x       y       z     vdW  Elec       q    Type
REMARK                         _______ _______ _______ _____ _____    ______ ____
ROOT
ATOM      2  O   UNL     1      -2.146  -0.565  24.950  0.00  0.00    -0.366 OA
ATOM     11  C   UNL     1      -3.483  -0.644  24.428  0.00  0.00    +0.158 C 
ATOM     12  C   UNL     1      -3.560  -1.973  23.695  0.00  0.00    +0.175 C 
ATOM     13  C   UNL     1      -2.682  -2.850  24.564  0.00  0.00    +0.175 C 
ATOM     14  C   UNL     1      -1.565  -1.890  24.957  0.00  0.00    +0.165 C 
ENDROOT
BRANCH  12   3
ATOM      3  O   UNL     1      -4.887  -2.443  23.588  0.00  0.00    -0.387 OA
ATOM     30  H   UNL     1      -5.460  -1.801  24.040  0.00  0.00    +0.210 HD
ENDBRANCH  12   3
BRANCH  13   4
ATOM      4  O   UNL     1      -3.380  -3.229  25.750  0.00  0.00    -0.387 OA
ATOM     31  H   UNL     1      -4.033  -2.534  25.937  0.00  0.00    +0.210 HD
ENDBRANCH  13   4
BRANCH  11  16
ATOM     16  C   UNL     1      -3.756   0.553  23.535  0.00  0.00    +0.130 C 
BRANCH  16  20
ATOM      6  O   UNL     1      -1.790   1.887  23.679  0.00  0.00    -0.276 OA
ATOM      9  N   UNL     1      -3.655   2.627  24.832  0.00  0.00    -0.296 N 
ATOM     15  C   UNL     1      -3.013   3.782  25.465  0.00  0.00    +0.102 C 
ATOM     17  C   UNL     1      -3.990   4.179  26.573  0.00  0.00    +0.026 C 
ATOM     18  C   UNL     1      -5.047   2.497  25.257  0.00  0.00    +0.108 C 
ATOM     19  C   UNL     1      -5.348   3.787  26.004  0.00  0.00    +0.021 C 
ATOM     20  C   UNL     1      -2.966   1.744  24.016  0.00  0.00    +0.218 C 
BRANCH  15  22
ATOM     22  C   UNL     1      -2.787   4.912  24.462  0.00  0.00    +0.181 C 
BRANCH  22   5
ATOM      5  O   UNL     1      -1.556   5.541  24.764  0.00  0.00    -0.381 OA
ATOM     24  C   UNL     1      -0.509   4.595  24.947  0.00  0.00    +0.194 C 
ENDBRANCH  22   5
ENDBRANCH  15  22
ENDBRANCH  16  20
ENDBRANCH  11  16
BRANCH  14  21
ATOM     21  C   UNL     1      -0.401  -1.894  23.977  0.00  0.00    +0.140 C 
BRANCH  21  10
ATOM     10  N   UNL     1       0.524  -0.839  24.265  0.00  0.00    -0.187 NA
ATOM     32  H   UNL     1       0.471  -0.427  25.205  0.00  0.00    +0.148 HD
BRANCH  10   1
ATOM      1  S   UNL     1       1.188   0.139  23.011  0.00  0.00    +0.058 S 
ATOM      7  O   UNL     1       0.881   1.527  23.295  0.00  0.00    -0.153 OA
ATOM      8  O   UNL     1       0.873  -0.429  21.714  0.00  0.00    -0.153 OA
BRANCH   1  23
ATOM     23  C   UNL     1       2.921  -0.100  23.271  0.00  0.00    +0.105 A 
ATOM     25  C   UNL     1       3.812   0.946  23.036  0.00  0.00    +0.028 A 
ATOM     26  C   UNL     1       3.395  -1.336  23.710  0.00  0.00    +0.028 A 
ATOM     27  C   UNL     1       5.179   0.757  23.239  0.00  0.00    +0.002 A 
ATOM     28  C   UNL     1       4.762  -1.525  23.914  0.00  0.00    +0.002 A 
ATOM     29  C   UNL     1       5.653  -0.479  23.679  0.00  0.00    +0.000 A 
ENDBRANCH   1  23
ENDBRANCH  10   1
ENDBRANCH  21  10
ENDBRANCH  14  21
TORSDOF 10
ENDMDL
MODEL 4
REMARK VINA RESULT:      -3.0      1.783      4.614
REMARK  Name = 40777894
REMARK  11 active torsions:
REMARK  status: ('A' for Active; 'I' for Inactive)
REMARK    1  A    between atoms: S_1  and  N_10
REMARK    2  A    between atoms: S_1  and  C_23
REMARK    3  A    between atoms: O_3  and  C_12
REMARK    4  A    between atoms: O_4  and  C_13
REMARK    5  A    between atoms: O_5  and  C_22
REMARK    6  A    between atoms: O_5  and  C_24
REMARK    7  A    between atoms: N_10  and  C_21
REMARK    8  A    between atoms: C_11  and  C_16
REMARK    9  A    between atoms: C_14  and  C_21
REMARK   10  A    between atoms: C_15  and  C_22
REMARK   11  A    between atoms: C_16  and  C_20
REMARK                            x       y       z     vdW  Elec       q    Type
REMARK                         _______ _______ _______ _____ _____    ______ ____
ROOT
ATOM      2  O   UNL     1      -1.684   2.923  23.353  0.00  0.00    -0.366 OA
ATOM     11  C   UNL     1      -2.782   3.306  24.200  0.00  0.00    +0.158 C 
ATOM     12  C   UNL     1      -2.221   3.334  25.612  0.00  0.00    +0.175 C 
ATOM     13  C   UNL     1      -0.814   3.837  25.369  0.00  0.00    +0.175 C 
ATOM     14  C   UNL     1      -0.444   3.134  24.068  0.00  0.00    +0.165 C 
ENDROOT
BRANCH  12   3
ATOM      3  O   UNL     1      -2.975   4.169  26.464  0.00  0.00    -0.387 OA
ATOM     30  H   UNL     1      -2.791   3.894  27.378  0.00  0.00    +0.210 HD
ENDBRANCH  12   3
BRANCH  13   4
ATOM      4  O   UNL     1      -0.825   5.244  25.125  0.00  0.00    -0.387 OA
ATOM     31  H   UNL     1      -0.475   5.385  24.229  0.00  0.00    +0.210 HD
ENDBRANCH  13   4
BRANCH  11  16
ATOM     16  C   UNL     1      -3.928   2.325  24.026  0.00  0.00    +0.130 C 
BRANCH  16  20
ATOM      6  O   UNL     1      -2.918   0.987  22.336  0.00  0.00    -0.276 OA
ATOM      9  N   UNL     1      -3.534  -0.076  24.297  0.00  0.00    -0.296 N 
ATOM     15  C   UNL     1      -3.173  -1.431  23.873  0.00  0.00    +0.102 C 
ATOM     17  C   UNL     1      -3.866  -2.329  24.899  0.00  0.00    +0.026 C 
ATOM     18  C   UNL     1      -4.112  -0.078  25.639  0.00  0.00    +0.108 C 
ATOM     19  C   UNL     1      -3.867  -1.483  26.166  0.00  0.00    +0.021 C 
ATOM     20  C   UNL     1      -3.412   1.024  23.464  0.00  0.00    +0.218 C 
BRANCH  15  22
ATOM     22  C   UNL     1      -1.658  -1.627  23.865  0.00  0.00    +0.181 C 
BRANCH  22   5
ATOM      5  O   UNL     1      -1.290  -2.331  25.036  0.00  0.00    -0.381 OA
ATOM     24  C   UNL     1      -0.557  -1.510  25.938  0.00  0.00    +0.194 C 
ENDBRANCH  22   5
ENDBRANCH  15  22
ENDBRANCH  16  20
ENDBRANCH  11  16
BRANCH  14  21
ATOM     21  C   UNL     1       0.203   1.774  24.287  0.00  0.00    +0.140 C 
BRANCH  21  10
ATOM     10  N   UNL     1       1.226   1.523  23.317  0.00  0.00    -0.187 NA
ATOM     32  H   UNL     1       1.443   2.292  22.671  0.00  0.00    +0.148 HD
BRANCH  10   1
ATOM      1  S   UNL     1       1.589  -0.077  22.789  0.00  0.00    +0.058 S 
ATOM      7  O   UNL     1       1.482  -0.122  21.343  0.00  0.00    -0.153 OA
ATOM      8  O   UNL     1       0.880  -1.045  23.604  0.00  0.00    -0.153 OA
BRANCH   1  23
ATOM     23  C   UNL     1       3.300  -0.199  23.214  0.00  0.00    +0.105 A 
ATOM     25  C   UNL     1       3.814  -1.399  23.705  0.00  0.00    +0.028 A 
ATOM     26  C   UNL     1       4.137   0.907  23.058  0.00  0.00    +0.028 A 
ATOM     27  C   UNL     1       5.164  -1.494  24.041  0.00  0.00    +0.002 A 
ATOM     28  C   UNL     1       5.487   0.812  23.394  0.00  0.00    +0.002 A 
ATOM     29  C   UNL     1       6.001  -0.388  23.885  0.00  0.00    +0.000 A 
ENDBRANCH   1  23
ENDBRANCH  10   1
ENDBRANCH  21  10
ENDBRANCH  14  21
TORSDOF 10
ENDMDL
MODEL 5
REMARK VINA RESULT:      -2.9      1.376      1.917
REMARK  Name = 40777894
REMARK  11 active torsions:
REMARK  status: ('A' for Active; 'I' for Inactive)
REMARK    1  A    between atoms: S_1  and  N_10
REMARK    2  A    between atoms: S_1  and  C_23
REMARK    3  A    between atoms: O_3  and  C_12
REMARK    4  A    between atoms: O_4  and  C_13
REMARK    5  A    between atoms: O_5  and  C_22
REMARK    6  A    between atoms: O_5  and  C_24
REMARK    7  A    between atoms: N_10  and  C_21
REMARK    8  A    between atoms: C_11  and  C_16
REMARK    9  A    between atoms: C_14  and  C_21
REMARK   10  A    between atoms: C_15  and  C_22
REMARK   11  A    between atoms: C_16  and  C_20
REMARK                            x       y       z     vdW  Elec       q    Type
REMARK                         _______ _______ _______ _____ _____    ______ ____
ROOT
ATOM      2  O   UNL     1      -2.642  -0.496  25.742  0.00  0.00    -0.366 OA
ATOM     11  C   UNL     1      -3.583  -1.386  25.117  0.00  0.00    +0.158 C 
ATOM     12  C   UNL     1      -2.780  -2.193  24.111  0.00  0.00    +0.175 C 
ATOM     13  C   UNL     1      -1.458  -2.348  24.834  0.00  0.00    +0.175 C 
ATOM     14  C   UNL     1      -1.303  -0.989  25.508  0.00  0.00    +0.165 C 
ENDROOT
BRANCH  12   3
ATOM      3  O   UNL     1      -3.398  -3.425  23.806  0.00  0.00    -0.387 OA
ATOM     30  H   UNL     1      -4.085  -3.249  23.142  0.00  0.00    +0.210 HD
ENDBRANCH  12   3
BRANCH  13   4
ATOM      4  O   UNL     1      -1.564  -3.340  25.856  0.00  0.00    -0.387 OA
ATOM     31  H   UNL     1      -1.341  -4.196  25.453  0.00  0.00    +0.210 HD
ENDBRANCH  13   4
BRANCH  11  16
ATOM     16  C   UNL     1      -4.706  -0.582  24.484  0.00  0.00    +0.130 C 
BRANCH  16  20
ATOM      6  O   UNL     1      -5.253   1.121  26.054  0.00  0.00    -0.276 OA
ATOM      9  N   UNL     1      -3.979   1.741  24.225  0.00  0.00    -0.296 N 
ATOM     15  C   UNL     1      -3.934   3.174  24.530  0.00  0.00    +0.102 C 
ATOM     17  C   UNL     1      -3.456   3.809  23.223  0.00  0.00    +0.026 C 
ATOM     18  C   UNL     1      -3.285   1.445  22.974  0.00  0.00    +0.108 C 
ATOM     19  C   UNL     1      -2.563   2.734  22.614  0.00  0.00    +0.021 C 
ATOM     20  C   UNL     1      -4.679   0.834  25.003  0.00  0.00    +0.218 C 
BRANCH  15  22
ATOM     22  C   UNL     1      -2.988   3.466  25.694  0.00  0.00    +0.181 C 
BRANCH  22   5
ATOM      5  O   UNL     1      -1.968   4.335  25.235  0.00  0.00    -0.381 OA
ATOM     24  C   UNL     1      -0.676   3.763  25.397  0.00  0.00    +0.194 C 
ENDBRANCH  22   5
ENDBRANCH  15  22
ENDBRANCH  16  20
ENDBRANCH  11  16
BRANCH  14  21
ATOM     21  C   UNL     1      -0.577   0.028  24.639  0.00  0.00    +0.140 C 
BRANCH  21  10
ATOM     10  N   UNL     1       0.558  -0.558  23.991  0.00  0.00    -0.187 NA
ATOM     32  H   UNL     1       1.076  -1.266  24.526  0.00  0.00    +0.148 HD
BRANCH  10   1
ATOM      1  S   UNL     1       1.417   0.282  22.755  0.00  0.00    +0.058 S 
ATOM      7  O   UNL     1       1.201   1.706  22.928  0.00  0.00    -0.153 OA
ATOM      8  O   UNL     1       1.178  -0.342  21.468  0.00  0.00    -0.153 OA
BRANCH   1  23
ATOM     23  C   UNL     1       3.091  -0.074  23.199  0.00  0.00    +0.105 A 
ATOM     25  C   UNL     1       3.439  -1.349  23.642  0.00  0.00    +0.028 A 
ATOM     26  C   UNL     1       4.063   0.923  23.106  0.00  0.00    +0.028 A 
ATOM     27  C   UNL     1       4.760  -1.629  23.994  0.00  0.00    +0.002 A 
ATOM     28  C   UNL     1       5.384   0.643  23.457  0.00  0.00    +0.002 A 
ATOM     29  C   UNL     1       5.732  -0.633  23.900  0.00  0.00    +0.000 A 
ENDBRANCH   1  23
ENDBRANCH  10   1
ENDBRANCH  21  10
ENDBRANCH  14  21
TORSDOF 10
ENDMDL
MODEL 6
REMARK VINA RESULT:      -2.6      1.816      4.055
REMARK  Name = 40777894
REMARK  11 active torsions:
REMARK  status: ('A' for Active; 'I' for Inactive)
REMARK    1  A    between atoms: S_1  and  N_10
REMARK    2  A    between atoms: S_1  and  C_23
REMARK    3  A    between atoms: O_3  and  C_12
REMARK    4  A    between atoms: O_4  and  C_13
REMARK    5  A    between atoms: O_5  and  C_22
REMARK    6  A    between atoms: O_5  and  C_24
REMARK    7  A    between atoms: N_10  and  C_21
REMARK    8  A    between atoms: C_11  and  C_16
REMARK    9  A    between atoms: C_14  and  C_21
REMARK   10  A    between atoms: C_15  and  C_22
REMARK   11  A    between atoms: C_16  and  C_20
REMARK                            x       y       z     vdW  Elec       q    Type
REMARK                         _______ _______ _______ _____ _____    ______ ____
ROOT
ATOM      2  O   UNL     1      -0.463   3.474  24.076  0.00  0.00    -0.366 OA
ATOM     11  C   UNL     1      -1.428   4.009  24.999  0.00  0.00    +0.158 C 
ATOM     12  C   UNL     1      -1.540   2.986  26.116  0.00  0.00    +0.175 C 
ATOM     13  C   UNL     1      -0.115   2.481  26.210  0.00  0.00    +0.175 C 
ATOM     14  C   UNL     1       0.307   2.448  24.745  0.00  0.00    +0.165 C 
ENDROOT
BRANCH  12   3
ATOM      3  O   UNL     1      -2.009   3.561  27.317  0.00  0.00    -0.387 OA
ATOM     30  H   UNL     1      -1.469   3.202  28.042  0.00  0.00    +0.210 HD
ENDBRANCH  12   3
BRANCH  13   4
ATOM      4  O   UNL     1       0.706   3.434  26.886  0.00  0.00    -0.387 OA
ATOM     31  H   UNL     1       1.561   3.008  27.061  0.00  0.00    +0.210 HD
ENDBRANCH  13   4
BRANCH  11  16
ATOM     16  C   UNL     1      -2.741   4.261  24.279  0.00  0.00    +0.130 C 
BRANCH  16  20
ATOM      6  O   UNL     1      -2.943   2.283  22.971  0.00  0.00    -0.276 OA
ATOM      9  N   UNL     1      -4.467   2.575  24.688  0.00  0.00    -0.296 N 
ATOM     15  C   UNL     1      -5.267   1.380  24.405  0.00  0.00    +0.102 C 
ATOM     17  C   UNL     1      -6.553   1.608  25.203  0.00  0.00    +0.026 C 
ATOM     18  C   UNL     1      -5.022   3.331  25.807  0.00  0.00    +0.108 C 
ATOM     19  C   UNL     1      -6.085   2.421  26.403  0.00  0.00    +0.021 C 
ATOM     20  C   UNL     1      -3.384   2.949  23.908  0.00  0.00    +0.218 C 
BRANCH  15  22
ATOM     22  C   UNL     1      -4.539   0.108  24.835  0.00  0.00    +0.181 C 
BRANCH  22   5
ATOM      5  O   UNL     1      -4.162  -0.608  23.674  0.00  0.00    -0.381 OA
ATOM     24  C   UNL     1      -4.182  -2.015  23.890  0.00  0.00    +0.194 C 
ENDBRANCH  22   5
ENDBRANCH  15  22
ENDBRANCH  16  20
ENDBRANCH  11  16
BRANCH  14  21
ATOM     21  C   UNL     1       0.003   1.120  24.066  0.00  0.00    +0.140 C 
BRANCH  21  10
ATOM     10  N   UNL     1       0.714   0.995  22.829  0.00  0.00    -0.187 NA
ATOM     32  H   UNL     1       0.463   1.660  22.086  0.00  0.00    +0.148 HD
BRANCH  10   1
ATOM      1  S   UNL     1       1.411  -0.505  22.343  0.00  0.00    +0.058 S 
ATOM      7  O   UNL     1       1.463  -0.542  20.894  0.00  0.00    -0.153 OA
ATOM      8  O   UNL     1       0.808  -1.598  23.081  0.00  0.00    -0.153 OA
BRANCH   1  23
ATOM     23  C   UNL     1       3.064  -0.326  22.944  0.00  0.00    +0.105 A 
ATOM     25  C   UNL     1       3.696  -1.396  23.575  0.00  0.00    +0.028 A 
ATOM     26  C   UNL     1       3.734   0.887  22.787  0.00  0.00    +0.028 A 
ATOM     27  C   UNL     1       5.000  -1.254  24.050  0.00  0.00    +0.002 A 
ATOM     28  C   UNL     1       5.038   1.030  23.261  0.00  0.00    +0.002 A 
ATOM     29  C   UNL     1       5.671  -0.041  23.892  0.00  0.00    +0.000 A 
ENDBRANCH   1  23
ENDBRANCH  10   1
ENDBRANCH  21  10
ENDBRANCH  14  21
TORSDOF 10
ENDMDL
MODEL 7
REMARK VINA RESULT:      -1.9      2.876      6.073
REMARK  Name = 40777894
REMARK  11 active torsions:
REMARK  status: ('A' for Active; 'I' for Inactive)
REMARK    1  A    between atoms: S_1  and  N_10
REMARK    2  A    between atoms: S_1  and  C_23
REMARK    3  A    between atoms: O_3  and  C_12
REMARK    4  A    between atoms: O_4  and  C_13
REMARK    5  A    between atoms: O_5  and  C_22
REMARK    6  A    between atoms: O_5  and  C_24
REMARK    7  A    between atoms: N_10  and  C_21
REMARK    8  A    between atoms: C_11  and  C_16
REMARK    9  A    between atoms: C_14  and  C_21
REMARK   10  A    between atoms: C_15  and  C_22
REMARK   11  A    between atoms: C_16  and  C_20
REMARK                            x       y       z     vdW  Elec       q    Type
REMARK                         _______ _______ _______ _____ _____    ______ ____
ROOT
ATOM      2  O   UNL     1      -2.375  -0.980  23.450  0.00  0.00    -0.366 OA
ATOM     11  C   UNL     1      -1.913  -2.091  24.238  0.00  0.00    +0.158 C 
ATOM     12  C   UNL     1      -2.966  -2.299  25.313  0.00  0.00    +0.175 C 
ATOM     13  C   UNL     1      -4.237  -1.957  24.564  0.00  0.00    +0.175 C 
ATOM     14  C   UNL     1      -3.788  -0.787  23.695  0.00  0.00    +0.165 C 
ENDROOT
BRANCH  12   3
ATOM      3  O   UNL     1      -2.954  -3.617  25.820  0.00  0.00    -0.387 OA
ATOM     30  H   UNL     1      -2.024  -3.892  25.891  0.00  0.00    +0.210 HD
ENDBRANCH  12   3
BRANCH  13   4
ATOM      4  O   UNL     1      -4.609  -3.032  23.701  0.00  0.00    -0.387 OA
ATOM     31  H   UNL     1      -5.531  -2.881  23.431  0.00  0.00    +0.210 HD
ENDBRANCH  13   4
BRANCH  11  16
ATOM     16  C   UNL     1      -0.534  -1.785  24.796  0.00  0.00    +0.130 C 
BRANCH  16  20
ATOM      6  O   UNL     1       0.567  -0.596  23.053  0.00  0.00    -0.276 OA
ATOM      9  N   UNL     1      -0.154   0.632  24.877  0.00  0.00    -0.296 N 
ATOM     15  C   UNL     1       0.404   1.916  24.445  0.00  0.00    +0.102 C 
ATOM     17  C   UNL     1       0.360   2.775  25.711  0.00  0.00    +0.026 C 
ATOM     18  C   UNL     1      -0.801   0.748  26.182  0.00  0.00    +0.108 C 
ATOM     19  C   UNL     1      -0.857   2.243  26.457  0.00  0.00    +0.021 C 
ATOM     20  C   UNL     1       0.015  -0.536  24.152  0.00  0.00    +0.218 C 
BRANCH  15  22
ATOM     22  C   UNL     1      -0.413   2.524  23.307  0.00  0.00    +0.181 C 
BRANCH  22   5
ATOM      5  O   UNL     1      -1.644   1.831  23.218  0.00  0.00    -0.381 OA
ATOM     24  C   UNL     1      -2.257   2.003  21.946  0.00  0.00    +0.194 C 
ENDBRANCH  22   5
ENDBRANCH  15  22
ENDBRANCH  16  20
ENDBRANCH  11  16
BRANCH  14  21
ATOM     21  C   UNL     1      -3.962   0.563  24.375  0.00  0.00    +0.140 C 
BRANCH  21  10
ATOM     10  N   UNL     1      -5.098   0.562  25.248  0.00  0.00    -0.187 NA
ATOM     32  H   UNL     1      -5.615  -0.322  25.325  0.00  0.00    +0.148 HD
BRANCH  10   1
ATOM      1  S   UNL     1      -5.958   2.013  25.602  0.00  0.00    +0.058 S 
ATOM      7  O   UNL     1      -6.344   1.992  27.000  0.00  0.00    -0.153 OA
ATOM      8  O   UNL     1      -6.948   2.271  24.574  0.00  0.00    -0.153 OA
BRANCH   1  23
ATOM     23  C   UNL     1      -4.684   3.223  25.406  0.00  0.00    +0.105 A 
ATOM     25  C   UNL     1      -4.408   3.748  24.144  0.00  0.00    +0.028 A 
ATOM     26  C   UNL     1      -3.954   3.651  26.515  0.00  0.00    +0.028 A 
ATOM     27  C   UNL     1      -3.401   4.701  23.989  0.00  0.00    +0.002 A 
ATOM     28  C   UNL     1      -2.948   4.605  26.361  0.00  0.00    +0.002 A 
ATOM     29  C   UNL     1      -2.672   5.130  25.099  0.00  0.00    +0.000 A 
ENDBRANCH   1  23
ENDBRANCH  10   1
ENDBRANCH  21  10
ENDBRANCH  14  21
TORSDOF 10
ENDMDL
MODEL 8
REMARK VINA RESULT:      -1.6      2.172      5.275
REMARK  Name = 40777894
REMARK  11 active torsions:
REMARK  status: ('A' for Active; 'I' for Inactive)
REMARK    1  A    between atoms: S_1  and  N_10
REMARK    2  A    between atoms: S_1  and  C_23
REMARK    3  A    between atoms: O_3  and  C_12
REMARK    4  A    between atoms: O_4  and  C_13
REMARK    5  A    between atoms: O_5  and  C_22
REMARK    6  A    between atoms: O_5  and  C_24
REMARK    7  A    between atoms: N_10  and  C_21
REMARK    8  A    between atoms: C_11  and  C_16
REMARK    9  A    between atoms: C_14  and  C_21
REMARK   10  A    between atoms: C_15  and  C_22
REMARK   11  A    between atoms: C_16  and  C_20
REMARK                            x       y       z     vdW  Elec       q    Type
REMARK                         _______ _______ _______ _____ _____    ______ ____
ROOT
ATOM      2  O   UNL     1      -0.495   0.403  22.877  0.00  0.00    -0.366 OA
ATOM     11  C   UNL     1       0.352   1.547  23.080  0.00  0.00    +0.158 C 
ATOM     12  C   UNL     1       1.677   0.994  23.578  0.00  0.00    +0.175 C 
ATOM     13  C   UNL     1       1.776  -0.302  22.801  0.00  0.00    +0.175 C 
ATOM     14  C   UNL     1       0.329  -0.784  22.802  0.00  0.00    +0.165 C 
ENDROOT
BRANCH  12   3
ATOM      3  O   UNL     1       2.748   1.879  23.326  0.00  0.00    -0.387 OA
ATOM     30  H   UNL     1       2.557   2.708  23.797  0.00  0.00    +0.210 HD
ENDBRANCH  12   3
BRANCH  13   4
ATOM      4  O   UNL     1       2.156  -0.042  21.449  0.00  0.00    -0.387 OA
ATOM     31  H   UNL     1       1.601  -0.603  20.880  0.00  0.00    +0.210 HD
ENDBRANCH  13   4
BRANCH  11  16
ATOM     16  C   UNL     1      -0.307   2.504  24.059  0.00  0.00    +0.130 C 
BRANCH  16  20
ATOM      6  O   UNL     1      -2.169   2.321  22.588  0.00  0.00    -0.276 OA
ATOM      9  N   UNL     1      -2.526   3.370  24.620  0.00  0.00    -0.296 N 
ATOM     15  C   UNL     1      -3.921   3.744  24.371  0.00  0.00    +0.102 C 
ATOM     17  C   UNL     1      -4.215   4.786  25.453  0.00  0.00    +0.026 C 
ATOM     18  C   UNL     1      -2.071   3.856  25.920  0.00  0.00    +0.108 C 
ATOM     19  C   UNL     1      -3.332   4.348  26.615  0.00  0.00    +0.021 C 
ATOM     20  C   UNL     1      -1.749   2.718  23.676  0.00  0.00    +0.218 C 
BRANCH  15  22
ATOM     22  C   UNL     1      -4.849   2.535  24.467  0.00  0.00    +0.181 C 
BRANCH  22   5
ATOM      5  O   UNL     1      -5.903   2.847  25.359  0.00  0.00    -0.381 OA
ATOM     24  C   UNL     1      -6.222   1.749  26.206  0.00  0.00    +0.194 C 
ENDBRANCH  22   5
ENDBRANCH  15  22
ENDBRANCH  16  20
ENDBRANCH  11  16
BRANCH  14  21
ATOM     21  C   UNL     1      -0.007  -1.661  24.000  0.00  0.00    +0.140 C 
BRANCH  21  10
ATOM     10  N   UNL     1       0.128  -0.936  25.228  0.00  0.00    -0.187 NA
ATOM     32  H   UNL     1       1.028  -1.022  25.715  0.00  0.00    +0.148 HD
BRANCH  10   1
ATOM      1  S   UNL     1      -1.248  -0.522  26.180  0.00  0.00    +0.058 S 
ATOM      7  O   UNL     1      -1.404   0.920  26.165  0.00  0.00    -0.153 OA
ATOM      8  O   UNL     1      -1.219  -1.241  27.439  0.00  0.00    -0.153 OA
BRANCH   1  23
ATOM     23  C   UNL     1      -2.555  -1.222  25.216  0.00  0.00    +0.105 A 
ATOM     25  C   UNL     1      -3.446  -0.390  24.540  0.00  0.00    +0.028 A 
ATOM     26  C   UNL     1      -2.694  -2.608  25.134  0.00  0.00    +0.028 A 
ATOM     27  C   UNL     1      -4.477  -0.942  23.781  0.00  0.00    +0.002 A 
ATOM     28  C   UNL     1      -3.725  -3.161  24.374  0.00  0.00    +0.002 A 
ATOM     29  C   UNL     1      -4.616  -2.328  23.698  0.00  0.00    +0.000 A 
ENDBRANCH   1  23
ENDBRANCH  10   1
ENDBRANCH  21  10
ENDBRANCH  14  21
TORSDOF 10
ENDMDL
MODEL 9
REMARK VINA RESULT:      -1.5      2.361      7.006
REMARK  Name = 40777894
REMARK  11 active torsions:
REMARK  status: ('A' for Active; 'I' for Inactive)
REMARK    1  A    between atoms: S_1  and  N_10
REMARK    2  A    between atoms: S_1  and  C_23
REMARK    3  A    between atoms: O_3  and  C_12
REMARK    4  A    between atoms: O_4  and  C_13
REMARK    5  A    between atoms: O_5  and  C_22
REMARK    6  A    between atoms: O_5  and  C_24
REMARK    7  A    between atoms: N_10  and  C_21
REMARK    8  A    between atoms: C_11  and  C_16
REMARK    9  A    between atoms: C_14  and  C_21
REMARK   10  A    between atoms: C_15  and  C_22
REMARK   11  A    between atoms: C_16  and  C_20
REMARK                            x       y       z     vdW  Elec       q    Type
REMARK                         _______ _______ _______ _____ _____    ______ ____
ROOT
ATOM      2  O   UNL     1      -2.603  -0.065  23.773  0.00  0.00    -0.366 OA
ATOM     11  C   UNL     1      -1.247  -0.057  24.251  0.00  0.00    +0.158 C 
ATOM     12  C   UNL     1      -1.248  -0.909  25.508  0.00  0.00    +0.175 C 
ATOM     13  C   UNL     1      -2.264  -1.974  25.152  0.00  0.00    +0.175 C 
ATOM     14  C   UNL     1      -3.308  -1.172  24.382  0.00  0.00    +0.165 C 
ENDROOT
BRANCH  12   3
ATOM      3  O   UNL     1       0.032  -1.431  25.796  0.00  0.00    -0.387 OA
ATOM     30  H   UNL     1      -0.089  -2.175  26.410  0.00  0.00    +0.210 HD
ENDBRANCH  12   3
BRANCH  13   4
ATOM      4  O   UNL     1      -1.690  -2.928  24.258  0.00  0.00    -0.387 OA
ATOM     31  H   UNL     1      -1.851  -3.810  24.633  0.00  0.00    +0.210 HD
ENDBRANCH  13   4
BRANCH  11  16
ATOM     16  C   UNL     1      -0.799   1.374  24.493  0.00  0.00    +0.130 C 
BRANCH  16  20
ATOM      6  O   UNL     1       1.368   2.246  24.952  0.00  0.00    -0.276 OA
ATOM      9  N   UNL     1       1.188   0.721  23.221  0.00  0.00    -0.296 N 
ATOM     15  C   UNL     1       2.587   0.791  22.790  0.00  0.00    +0.102 C 
ATOM     17  C   UNL     1       2.574   0.136  21.407  0.00  0.00    +0.026 C 
ATOM     18  C   UNL     1       0.416  -0.180  22.368  0.00  0.00    +0.108 C 
ATOM     19  C   UNL     1       1.454  -0.891  21.513  0.00  0.00    +0.021 C 
ATOM     20  C   UNL     1       0.685   1.497  24.252  0.00  0.00    +0.218 C 
BRANCH  15  22
ATOM     22  C   UNL     1       3.508   0.061  23.766  0.00  0.00    +0.181 C 
BRANCH  22   5
ATOM      5  O   UNL     1       4.784   0.671  23.720  0.00  0.00    -0.381 OA
ATOM     24  C   UNL     1       5.830  -0.293  23.705  0.00  0.00    +0.194 C 
ENDBRANCH  22   5
ENDBRANCH  15  22
ENDBRANCH  16  20
ENDBRANCH  11  16
BRANCH  14  21
ATOM     21  C   UNL     1      -4.396  -0.596  25.276  0.00  0.00    +0.140 C 
BRANCH  21  10
ATOM     10  N   UNL     1      -5.243   0.302  24.550  0.00  0.00    -0.187 NA
ATOM     32  H   UNL     1      -5.132   0.312  23.528  0.00  0.00    +0.148 HD
BRANCH  10   1
ATOM      1  S   UNL     1      -5.889   1.720  25.287  0.00  0.00    +0.058 S 
ATOM      7  O   UNL     1      -6.116   1.446  26.694  0.00  0.00    -0.153 OA
ATOM      8  O   UNL     1      -6.952   2.270  24.469  0.00  0.00    -0.153 OA
BRANCH   1  23
ATOM     23  C   UNL     1      -4.516   2.827  25.162  0.00  0.00    +0.105 A 
ATOM     25  C   UNL     1      -4.014   3.177  23.909  0.00  0.00    +0.028 A 
ATOM     26  C   UNL     1      -3.934   3.348  26.318  0.00  0.00    +0.028 A 
ATOM     27  C   UNL     1      -2.930   4.049  23.811  0.00  0.00    +0.002 A 
ATOM     28  C   UNL     1      -2.850   4.220  26.220  0.00  0.00    +0.002 A 
ATOM     29  C   UNL     1      -2.348   4.571  24.967  0.00  0.00    +0.000 A 
ENDBRANCH   1  23
ENDBRANCH  10   1
ENDBRANCH  21  10
ENDBRANCH  14  21
TORSDOF 10
ENDMDL
MODEL 10
REMARK VINA RESULT:      -1.2      2.085      5.500
REMARK  Name = 40777894
REMARK  11 active torsions:
REMARK  status: ('A' for Active; 'I' for Inactive)
REMARK    1  A    between atoms: S_1  and  N_10
REMARK    2  A    between atoms: S_1  and  C_23
REMARK    3  A    between atoms: O_3  and  C_12
REMARK    4  A    between atoms: O_4  and  C_13
REMARK    5  A    between atoms: O_5  and  C_22
REMARK    6  A    between atoms: O_5  and  C_24
REMARK    7  A    between atoms: N_10  and  C_21
REMARK    8  A    between atoms: C_11  and  C_16
REMARK    9  A    between atoms: C_14  and  C_21
REMARK   10  A    between atoms: C_15  and  C_22
REMARK   11  A    between atoms: C_16  and  C_20
REMARK                            x       y       z     vdW  Elec       q    Type
REMARK                         _______ _______ _______ _____ _____    ______ ____
ROOT
ATOM      2  O   UNL     1      -0.405   0.598  23.589  0.00  0.00    -0.366 OA
ATOM     11  C   UNL     1       0.747   1.445  23.749  0.00  0.00    +0.158 C 
ATOM     12  C   UNL     1       1.949   0.517  23.695  0.00  0.00    +0.175 C 
ATOM     13  C   UNL     1       1.493  -0.511  22.681  0.00  0.00    +0.175 C 
ATOM     14  C   UNL     1       0.016  -0.667  23.028  0.00  0.00    +0.165 C 
ENDROOT
BRANCH  12   3
ATOM      3  O   UNL     1       3.126   1.197  23.312  0.00  0.00    -0.387 OA
ATOM     30  H   UNL     1       3.547   1.527  24.123  0.00  0.00    +0.210 HD
ENDBRANCH  12   3
BRANCH  13   4
ATOM      4  O   UNL     1       1.585   0.021  21.360  0.00  0.00    -0.387 OA
ATOM     31  H   UNL     1       1.691  -0.730  20.751  0.00  0.00    +0.210 HD
ENDBRANCH  13   4
BRANCH  11  16
ATOM     16  C   UNL     1       0.638   2.215  25.054  0.00  0.00    +0.130 C 
BRANCH  16  20
ATOM      6  O   UNL     1      -1.508   1.555  25.845  0.00  0.00    -0.276 OA
ATOM      9  N   UNL     1      -1.269   3.747  25.141  0.00  0.00    -0.296 N 
ATOM     15  C   UNL     1      -2.673   4.131  25.316  0.00  0.00    +0.102 C 
ATOM     17  C   UNL     1      -2.789   5.442  24.535  0.00  0.00    +0.026 C 
ATOM     18  C   UNL     1      -0.481   4.850  24.599  0.00  0.00    +0.108 C 
ATOM     19  C   UNL     1      -1.402   6.059  24.672  0.00  0.00    +0.021 C 
ATOM     20  C   UNL     1      -0.812   2.462  25.386  0.00  0.00    +0.218 C 
BRANCH  15  22
ATOM     22  C   UNL     1      -3.023   4.305  26.792  0.00  0.00    +0.181 C 
BRANCH  22   5
ATOM      5  O   UNL     1      -4.346   3.843  26.997  0.00  0.00    -0.381 OA
ATOM     24  C   UNL     1      -5.241   4.351  26.014  0.00  0.00    +0.194 C 
ENDBRANCH  22   5
ENDBRANCH  15  22
ENDBRANCH  16  20
ENDBRANCH  11  16
BRANCH  14  21
ATOM     21  C   UNL     1      -0.242  -1.747  24.068  0.00  0.00    +0.140 C 
BRANCH  21  10
ATOM     10  N   UNL     1      -1.226  -1.325  25.020  0.00  0.00    -0.187 NA
ATOM     32  H   UNL     1      -0.881  -1.076  25.956  0.00  0.00    +0.148 HD
BRANCH  10   1
ATOM      1  S   UNL     1      -2.870  -1.827  24.892  0.00  0.00    +0.058 S 
ATOM      7  O   UNL     1      -3.321  -2.270  26.198  0.00  0.00    -0.153 OA
ATOM      8  O   UNL     1      -3.044  -2.680  23.732  0.00  0.00    -0.153 OA
BRANCH   1  23
ATOM     23  C   UNL     1      -3.670  -0.293  24.530  0.00  0.00    +0.105 A 
ATOM     25  C   UNL     1      -3.218   0.497  23.474  0.00  0.00    +0.028 A 
ATOM     26  C   UNL     1      -4.753   0.127  25.303  0.00  0.00    +0.028 A 
ATOM     27  C   UNL     1      -3.848   1.709  23.190  0.00  0.00    +0.002 A 
ATOM     28  C   UNL     1      -5.384   1.338  25.018  0.00  0.00    +0.002 A 
ATOM     29  C   UNL     1      -4.932   2.129  23.962  0.00  0.00    +0.000 A 
ENDBRANCH   1  23
ENDBRANCH  10   1
ENDBRANCH  21  10
ENDBRANCH  14  21
TORSDOF 10
ENDMDL
