MODEL 1
REMARK VINA RESULT:      -4.1      0.000      0.000
REMARK  Name = 51137796
REMARK  7 active torsions:
REMARK  status: ('A' for Active; 'I' for Inactive)
REMARK    1  A    between atoms: S_1  and  N_6
REMARK    2  A    between atoms: S_1  and  C_14
REMARK    3  A    between atoms: O_5  and  C_27
REMARK    4  A    between atoms: O_5  and  C_28
REMARK    5  A    between atoms: C_9  and  C_13
REMARK    6  A    between atoms: C_14  and  C_15
REMARK    7  A    between atoms: C_16  and  C_19
REMARK                            x       y       z     vdW  Elec       q    Type
REMARK                         _______ _______ _______ _____ _____    ______ ____
ROOT
ATOM      6  N   UNL     1      14.178  -6.900  31.189  0.00  0.00    -0.180 NA
ATOM      9  C   UNL     1      16.496  -6.662  30.547  0.00  0.00    +0.094 C 
ATOM     10  C   UNL     1      15.493  -7.603  31.233  0.00  0.00    +0.122 C 
ATOM     11  C   UNL     1      15.835  -5.289  30.693  0.00  0.00    +0.031 C 
ATOM     12  C   UNL     1      14.351  -5.584  30.528  0.00  0.00    +0.110 C 
ENDROOT
BRANCH   9  13
ATOM      2  O   UNL     1      16.807  -5.925  28.227  0.00  0.00    -0.420 OA
ATOM      7  N   UNL     1      17.188  -8.106  28.545  0.00  0.00    -0.112 NA
ATOM      8  N   UNL     1      17.396  -7.827  27.207  0.00  0.00    -0.107 NA
ATOM     13  C   UNL     1      16.845  -6.967  29.101  0.00  0.00    +0.222 A 
ATOM     16  C   UNL     1      17.163  -6.543  27.067  0.00  0.00    +0.248 A 
BRANCH  16  19
ATOM     19  C   UNL     1      17.223  -5.708  25.903  0.00  0.00    +0.039 A 
ATOM     23  C   UNL     1      17.276  -4.321  26.042  0.00  0.00    +0.017 A 
ATOM     24  C   UNL     1      17.231  -6.282  24.632  0.00  0.00    +0.017 A 
ATOM     25  C   UNL     1      17.336  -3.509  24.910  0.00  0.00    +0.046 A 
ATOM     26  C   UNL     1      17.290  -5.470  23.500  0.00  0.00    +0.046 A 
ATOM     27  C   UNL     1      17.343  -4.083  23.639  0.00  0.00    +0.120 A 
BRANCH  27   5
ATOM      5  O   UNL     1      17.405  -3.291  22.533  0.00  0.00    -0.495 OA
ATOM     28  C   UNL     1      17.180  -1.895  22.721  0.00  0.00    +0.277 C 
ENDBRANCH  27   5
ENDBRANCH  16  19
ENDBRANCH   9  13
BRANCH   6   1
ATOM      1  S   UNL     1      12.778  -7.795  30.856  0.00  0.00    +0.036 S 
ATOM      3  O   UNL     1      13.132  -8.963  30.072  0.00  0.00    -0.158 OA
ATOM      4  O   UNL     1      11.725  -6.895  30.426  0.00  0.00    -0.158 OA
BRANCH   1  14
ATOM     14  C   UNL     1      12.381  -8.346  32.497  0.00  0.00    +0.220 C 
BRANCH  14  15
ATOM     15  C   UNL     1      10.940  -8.756  32.505  0.00  0.00    -0.025 A 
ATOM     17  C   UNL     1       9.949  -7.818  32.795  0.00  0.00    +0.005 A 
ATOM     18  C   UNL     1      10.590 -10.076  32.224  0.00  0.00    +0.005 A 
ATOM     20  C   UNL     1       8.607  -8.200  32.801  0.00  0.00    +0.000 A 
ATOM     21  C   UNL     1       9.248 -10.459  32.231  0.00  0.00    +0.000 A 
ATOM     22  C   UNL     1       8.257  -9.520  32.520  0.00  0.00    +0.000 A 
ENDBRANCH  14  15
ENDBRANCH   1  14
ENDBRANCH   6   1
TORSDOF 6
ENDMDL
MODEL 2
REMARK VINA RESULT:      -3.0      1.374      2.087
REMARK  Name = 51137796
REMARK  7 active torsions:
REMARK  status: ('A' for Active; 'I' for Inactive)
REMARK    1  A    between atoms: S_1  and  N_6
REMARK    2  A    between atoms: S_1  and  C_14
REMARK    3  A    between atoms: O_5  and  C_27
REMARK    4  A    between atoms: O_5  and  C_28
REMARK    5  A    between atoms: C_9  and  C_13
REMARK    6  A    between atoms: C_14  and  C_15
REMARK    7  A    between atoms: C_16  and  C_19
REMARK                            x       y       z     vdW  Elec       q    Type
REMARK                         _______ _______ _______ _____ _____    ______ ____
ROOT
ATOM      6  N   UNL     1      15.227  -6.986  31.283  0.00  0.00    -0.180 NA
ATOM      9  C   UNL     1      16.808  -7.787  29.638  0.00  0.00    +0.094 C 
ATOM     10  C   UNL     1      15.617  -8.205  30.516  0.00  0.00    +0.122 C 
ATOM     11  C   UNL     1      17.373  -6.574  30.382  0.00  0.00    +0.031 C 
ATOM     12  C   UNL     1      16.136  -5.871  30.920  0.00  0.00    +0.110 C 
ENDROOT
BRANCH   9  13
ATOM      2  O   UNL     1      16.876  -6.234  27.739  0.00  0.00    -0.420 OA
ATOM      7  N   UNL     1      15.942  -8.210  27.263  0.00  0.00    -0.112 NA
ATOM      8  N   UNL     1      15.915  -7.438  26.116  0.00  0.00    -0.107 NA
ATOM     13  C   UNL     1      16.510  -7.467  28.184  0.00  0.00    +0.222 A 
ATOM     16  C   UNL     1      16.471  -6.294  26.441  0.00  0.00    +0.248 A 
BRANCH  16  19
ATOM     19  C   UNL     1      16.712  -5.120  25.652  0.00  0.00    +0.039 A 
ATOM     23  C   UNL     1      16.967  -5.237  24.286  0.00  0.00    +0.017 A 
ATOM     24  C   UNL     1      16.690  -3.861  26.252  0.00  0.00    +0.017 A 
ATOM     25  C   UNL     1      17.201  -4.096  23.520  0.00  0.00    +0.046 A 
ATOM     26  C   UNL     1      16.925  -2.719  25.486  0.00  0.00    +0.046 A 
ATOM     27  C   UNL     1      17.180  -2.837  24.120  0.00  0.00    +0.120 A 
BRANCH  27   5
ATOM      5  O   UNL     1      17.405  -1.721  23.372  0.00  0.00    -0.495 OA
ATOM     28  C   UNL     1      16.349  -1.291  22.515  0.00  0.00    +0.277 C 
ENDBRANCH  27   5
ENDBRANCH  16  19
ENDBRANCH   9  13
BRANCH   6   1
ATOM      1  S   UNL     1      13.583  -6.649  31.511  0.00  0.00    +0.036 S 
ATOM      3  O   UNL     1      13.286  -5.330  30.986  0.00  0.00    -0.158 OA
ATOM      4  O   UNL     1      13.200  -7.022  32.860  0.00  0.00    -0.158 OA
BRANCH   1  14
ATOM     14  C   UNL     1      12.879  -7.844  30.402  0.00  0.00    +0.220 C 
BRANCH  14  15
ATOM     15  C   UNL     1      11.862  -8.635  31.167  0.00  0.00    -0.025 A 
ATOM     17  C   UNL     1      12.080  -9.989  31.423  0.00  0.00    +0.005 A 
ATOM     18  C   UNL     1      10.697  -8.017  31.621  0.00  0.00    +0.005 A 
ATOM     20  C   UNL     1      11.132 -10.724  32.136  0.00  0.00    +0.000 A 
ATOM     21  C   UNL     1       9.750  -8.753  32.334  0.00  0.00    +0.000 A 
ATOM     22  C   UNL     1       9.968 -10.107  32.590  0.00  0.00    +0.000 A 
ENDBRANCH  14  15
ENDBRANCH   1  14
ENDBRANCH   6   1
TORSDOF 6
ENDMDL
MODEL 3
REMARK VINA RESULT:      -1.8     17.517     19.701
REMARK  Name = 51137796
REMARK  7 active torsions:
REMARK  status: ('A' for Active; 'I' for Inactive)
REMARK    1  A    between atoms: S_1  and  N_6
REMARK    2  A    between atoms: S_1  and  C_14
REMARK    3  A    between atoms: O_5  and  C_27
REMARK    4  A    between atoms: O_5  and  C_28
REMARK    5  A    between atoms: C_9  and  C_13
REMARK    6  A    between atoms: C_14  and  C_15
REMARK    7  A    between atoms: C_16  and  C_19
REMARK                            x       y       z     vdW  Elec       q    Type
REMARK                         _______ _______ _______ _____ _____    ______ ____
ROOT
ATOM      6  N   UNL     1      -5.513   2.518  24.875  0.00  0.00    -0.180 NA
ATOM      9  C   UNL     1      -4.615   0.365  24.237  0.00  0.00    +0.094 C 
ATOM     10  C   UNL     1      -4.885   1.793  23.733  0.00  0.00    +0.122 C 
ATOM     11  C   UNL     1      -5.618   0.212  25.383  0.00  0.00    +0.031 C 
ATOM     12  C   UNL     1      -5.647   1.590  26.025  0.00  0.00    +0.110 C 
ENDROOT
BRANCH   9  13
ATOM      2  O   UNL     1      -2.198   0.358  23.813  0.00  0.00    -0.420 OA
ATOM      7  N   UNL     1      -2.773  -0.485  25.803  0.00  0.00    -0.112 NA
ATOM      8  N   UNL     1      -1.397  -0.549  25.695  0.00  0.00    -0.107 NA
ATOM     13  C   UNL     1      -3.198   0.051  24.683  0.00  0.00    +0.222 A 
ATOM     16  C   UNL     1      -1.105  -0.046  24.518  0.00  0.00    +0.248 A 
BRANCH  16  19
ATOM     19  C   UNL     1       0.162   0.139  23.873  0.00  0.00    +0.039 A 
ATOM     23  C   UNL     1       0.964   1.229  24.211  0.00  0.00    +0.017 A 
ATOM     24  C   UNL     1       0.593  -0.771  22.909  0.00  0.00    +0.017 A 
ATOM     25  C   UNL     1       2.196   1.409  23.585  0.00  0.00    +0.046 A 
ATOM     26  C   UNL     1       1.826  -0.591  22.281  0.00  0.00    +0.046 A 
ATOM     27  C   UNL     1       2.628   0.499  22.619  0.00  0.00    +0.120 A 
BRANCH  27   5
ATOM      5  O   UNL     1       3.833   0.673  22.009  0.00  0.00    -0.495 OA
ATOM     28  C   UNL     1       4.997   0.372  22.776  0.00  0.00    +0.277 C 
ENDBRANCH  27   5
ENDBRANCH  16  19
ENDBRANCH   9  13
BRANCH   6   1
ATOM      1  S   UNL     1      -5.064   4.123  25.177  0.00  0.00    +0.036 S 
ATOM      3  O   UNL     1      -6.199   4.845  25.719  0.00  0.00    -0.158 OA
ATOM      4  O   UNL     1      -4.325   4.635  24.038  0.00  0.00    -0.158 OA
BRANCH   1  14
ATOM     14  C   UNL     1      -3.906   3.864  26.499  0.00  0.00    +0.220 C 
BRANCH  14  15
ATOM     15  C   UNL     1      -2.529   4.083  25.951  0.00  0.00    -0.025 A 
ATOM     17  C   UNL     1      -2.216   5.283  25.312  0.00  0.00    +0.005 A 
ATOM     18  C   UNL     1      -1.562   3.087  26.077  0.00  0.00    +0.005 A 
ATOM     20  C   UNL     1      -0.933   5.487  24.802  0.00  0.00    +0.000 A 
ATOM     21  C   UNL     1      -0.280   3.291  25.567  0.00  0.00    +0.000 A 
ATOM     22  C   UNL     1       0.034   4.491  24.929  0.00  0.00    +0.000 A 
ENDBRANCH  14  15
ENDBRANCH   1  14
ENDBRANCH   6   1
TORSDOF 6
ENDMDL
MODEL 4
REMARK VINA RESULT:      -1.7      1.790      2.614
REMARK  Name = 51137796
REMARK  7 active torsions:
REMARK  status: ('A' for Active; 'I' for Inactive)
REMARK    1  A    between atoms: S_1  and  N_6
REMARK    2  A    between atoms: S_1  and  C_14
REMARK    3  A    between atoms: O_5  and  C_27
REMARK    4  A    between atoms: O_5  and  C_28
REMARK    5  A    between atoms: C_9  and  C_13
REMARK    6  A    between atoms: C_14  and  C_15
REMARK    7  A    between atoms: C_16  and  C_19
REMARK                            x       y       z     vdW  Elec       q    Type
REMARK                         _______ _______ _______ _____ _____    ______ ____
ROOT
ATOM      6  N   UNL     1      14.824  -7.508  30.653  0.00  0.00    -0.180 NA
ATOM      9  C   UNL     1      16.590  -8.060  29.097  0.00  0.00    +0.094 C 
ATOM     10  C   UNL     1      15.402  -8.644  29.879  0.00  0.00    +0.122 C 
ATOM     11  C   UNL     1      16.960  -6.818  29.913  0.00  0.00    +0.031 C 
ATOM     12  C   UNL     1      15.617  -6.283  30.386  0.00  0.00    +0.110 C 
ENDROOT
BRANCH   9  13
ATOM      2  O   UNL     1      16.720  -6.479  27.224  0.00  0.00    -0.420 OA
ATOM      7  N   UNL     1      15.832  -8.458  26.681  0.00  0.00    -0.112 NA
ATOM      8  N   UNL     1      15.845  -7.671  25.545  0.00  0.00    -0.107 NA
ATOM     13  C   UNL     1      16.352  -7.722  27.636  0.00  0.00    +0.222 A 
ATOM     16  C   UNL     1      16.372  -6.525  25.909  0.00  0.00    +0.248 A 
BRANCH  16  19
ATOM     19  C   UNL     1      16.633  -5.337  25.149  0.00  0.00    +0.039 A 
ATOM     23  C   UNL     1      17.153  -5.435  23.858  0.00  0.00    +0.017 A 
ATOM     24  C   UNL     1      16.365  -4.084  25.699  0.00  0.00    +0.017 A 
ATOM     25  C   UNL     1      17.405  -4.280  23.119  0.00  0.00    +0.046 A 
ATOM     26  C   UNL     1      16.618  -2.928  24.960  0.00  0.00    +0.046 A 
ATOM     27  C   UNL     1      17.138  -3.026  23.670  0.00  0.00    +0.120 A 
BRANCH  27   5
ATOM      5  O   UNL     1      17.381  -1.898  22.947  0.00  0.00    -0.495 OA
ATOM     28  C   UNL     1      17.243  -0.651  23.624  0.00  0.00    +0.277 C 
ENDBRANCH  27   5
ENDBRANCH  16  19
ENDBRANCH   9  13
BRANCH   6   1
ATOM      1  S   UNL     1      13.140  -7.371  30.778  0.00  0.00    +0.036 S 
ATOM      3  O   UNL     1      12.542  -8.687  30.654  0.00  0.00    -0.158 OA
ATOM      4  O   UNL     1      12.688  -6.263  29.958  0.00  0.00    -0.158 OA
BRANCH   1  14
ATOM     14  C   UNL     1      13.007  -6.875  32.478  0.00  0.00    +0.220 C 
BRANCH  14  15
ATOM     15  C   UNL     1      11.787  -6.015  32.609  0.00  0.00    -0.025 A 
ATOM     17  C   UNL     1      10.521  -6.599  32.636  0.00  0.00    +0.005 A 
ATOM     18  C   UNL     1      11.919  -4.630  32.702  0.00  0.00    +0.005 A 
ATOM     20  C   UNL     1       9.386  -5.797  32.759  0.00  0.00    +0.000 A 
ATOM     21  C   UNL     1      10.784  -3.828  32.824  0.00  0.00    +0.000 A 
ATOM     22  C   UNL     1       9.518  -4.412  32.852  0.00  0.00    +0.000 A 
ENDBRANCH  14  15
ENDBRANCH   1  14
ENDBRANCH   6   1
TORSDOF 6
ENDMDL
MODEL 5
REMARK VINA RESULT:      -1.3     17.676     20.592
REMARK  Name = 51137796
REMARK  7 active torsions:
REMARK  status: ('A' for Active; 'I' for Inactive)
REMARK    1  A    between atoms: S_1  and  N_6
REMARK    2  A    between atoms: S_1  and  C_14
REMARK    3  A    between atoms: O_5  and  C_27
REMARK    4  A    between atoms: O_5  and  C_28
REMARK    5  A    between atoms: C_9  and  C_13
REMARK    6  A    between atoms: C_14  and  C_15
REMARK    7  A    between atoms: C_16  and  C_19
REMARK                            x       y       z     vdW  Elec       q    Type
REMARK                         _______ _______ _______ _____ _____    ______ ____
ROOT
ATOM      6  N   UNL     1      -1.782   4.548  25.291  0.00  0.00    -0.180 NA
ATOM      9  C   UNL     1      -4.188   4.519  25.529  0.00  0.00    +0.094 C 
ATOM     10  C   UNL     1      -3.046   4.778  24.533  0.00  0.00    +0.122 C 
ATOM     11  C   UNL     1      -3.514   4.739  26.887  0.00  0.00    +0.031 C 
ATOM     12  C   UNL     1      -2.113   4.182  26.689  0.00  0.00    +0.110 C 
ENDROOT
BRANCH   9  13
ATOM      2  O   UNL     1      -4.083   2.094  25.166  0.00  0.00    -0.420 OA
ATOM      7  N   UNL     1      -6.135   2.855  25.627  0.00  0.00    -0.112 NA
ATOM      8  N   UNL     1      -6.219   1.487  25.446  0.00  0.00    -0.107 NA
ATOM     13  C   UNL     1      -4.871   3.165  25.454  0.00  0.00    +0.222 A 
ATOM     16  C   UNL     1      -4.998   1.085  25.179  0.00  0.00    +0.248 A 
BRANCH  16  19
ATOM     19  C   UNL     1      -4.489  -0.227  24.905  0.00  0.00    +0.039 A 
ATOM     23  C   UNL     1      -4.483  -0.714  23.598  0.00  0.00    +0.017 A 
ATOM     24  C   UNL     1      -3.999  -1.016  25.945  0.00  0.00    +0.017 A 
ATOM     25  C   UNL     1      -3.988  -1.990  23.332  0.00  0.00    +0.046 A 
ATOM     26  C   UNL     1      -3.504  -2.293  25.679  0.00  0.00    +0.046 A 
ATOM     27  C   UNL     1      -3.498  -2.780  24.372  0.00  0.00    +0.120 A 
BRANCH  27   5
ATOM      5  O   UNL     1      -3.011  -4.025  24.112  0.00  0.00    -0.495 OA
ATOM     28  C   UNL     1      -1.938  -4.120  23.177  0.00  0.00    +0.277 C 
ENDBRANCH  27   5
ENDBRANCH  16  19
ENDBRANCH   9  13
BRANCH   6   1
ATOM      1  S   UNL     1      -0.500   3.747  24.525  0.00  0.00    +0.036 S 
ATOM      3  O   UNL     1       0.316   3.083  25.525  0.00  0.00    -0.158 OA
ATOM      4  O   UNL     1       0.095   4.629  23.538  0.00  0.00    -0.158 OA
BRANCH   1  14
ATOM     14  C   UNL     1      -1.410   2.496  23.653  0.00  0.00    +0.220 C 
BRANCH  14  15
ATOM     15  C   UNL     1      -1.005   1.165  24.208  0.00  0.00    -0.025 A 
ATOM     17  C   UNL     1      -1.198   0.886  25.561  0.00  0.00    +0.005 A 
ATOM     18  C   UNL     1      -0.434   0.206  23.373  0.00  0.00    +0.005 A 
ATOM     20  C   UNL     1      -0.822  -0.354  26.078  0.00  0.00    +0.000 A 
ATOM     21  C   UNL     1      -0.058  -1.034  23.889  0.00  0.00    +0.000 A 
ATOM     22  C   UNL     1      -0.251  -1.313  25.242  0.00  0.00    +0.000 A 
ENDBRANCH  14  15
ENDBRANCH   1  14
ENDBRANCH   6   1
TORSDOF 6
ENDMDL
MODEL 6
REMARK VINA RESULT:      -1.2     17.347     19.409
REMARK  Name = 51137796
REMARK  7 active torsions:
REMARK  status: ('A' for Active; 'I' for Inactive)
REMARK    1  A    between atoms: S_1  and  N_6
REMARK    2  A    between atoms: S_1  and  C_14
REMARK    3  A    between atoms: O_5  and  C_27
REMARK    4  A    between atoms: O_5  and  C_28
REMARK    5  A    between atoms: C_9  and  C_13
REMARK    6  A    between atoms: C_14  and  C_15
REMARK    7  A    between atoms: C_16  and  C_19
REMARK                            x       y       z     vdW  Elec       q    Type
REMARK                         _______ _______ _______ _____ _____    ______ ____
ROOT
ATOM      6  N   UNL     1      -4.953   3.025  25.891  0.00  0.00    -0.180 NA
ATOM      9  C   UNL     1      -2.959   4.317  26.338  0.00  0.00    +0.094 C 
ATOM     10  C   UNL     1      -3.714   3.034  26.723  0.00  0.00    +0.122 C 
ATOM     11  C   UNL     1      -4.066   5.213  25.778  0.00  0.00    +0.031 C 
ATOM     12  C   UNL     1      -4.980   4.243  25.045  0.00  0.00    +0.110 C 
ENDROOT
BRANCH   9  13
ATOM      2  O   UNL     1      -1.257   2.929  25.240  0.00  0.00    -0.420 OA
ATOM      7  N   UNL     1      -1.243   5.068  24.588  0.00  0.00    -0.112 NA
ATOM      8  N   UNL     1      -0.244   4.406  23.899  0.00  0.00    -0.107 NA
ATOM     13  C   UNL     1      -1.807   4.168  25.359  0.00  0.00    +0.222 A 
ATOM     16  C   UNL     1      -0.290   3.160  24.311  0.00  0.00    +0.248 A 
BRANCH  16  19
ATOM     19  C   UNL     1       0.508   2.027  23.940  0.00  0.00    +0.039 A 
ATOM     23  C   UNL     1       1.838   2.205  23.561  0.00  0.00    +0.017 A 
ATOM     24  C   UNL     1      -0.046   0.748  23.960  0.00  0.00    +0.017 A 
ATOM     25  C   UNL     1       2.614   1.104  23.201  0.00  0.00    +0.046 A 
ATOM     26  C   UNL     1       0.729  -0.354  23.599  0.00  0.00    +0.046 A 
ATOM     27  C   UNL     1       2.059  -0.176  23.220  0.00  0.00    +0.120 A 
BRANCH  27   5
ATOM      5  O   UNL     1       2.818  -1.253  22.872  0.00  0.00    -0.495 OA
ATOM     28  C   UNL     1       4.014  -1.472  23.616  0.00  0.00    +0.277 C 
ENDBRANCH  27   5
ENDBRANCH  16  19
ENDBRANCH   9  13
BRANCH   6   1
ATOM      1  S   UNL     1      -5.480   1.561  25.221  0.00  0.00    +0.036 S 
ATOM      3  O   UNL     1      -6.638   1.807  24.382  0.00  0.00    -0.158 OA
ATOM      4  O   UNL     1      -5.507   0.543  26.255  0.00  0.00    -0.158 OA
BRANCH   1  14
ATOM     14  C   UNL     1      -4.105   1.209  24.153  0.00  0.00    +0.220 C 
BRANCH  14  15
ATOM     15  C   UNL     1      -3.698  -0.214  24.386  0.00  0.00    -0.025 A 
ATOM     17  C   UNL     1      -2.626  -0.503  25.231  0.00  0.00    +0.005 A 
ATOM     18  C   UNL     1      -4.390  -1.247  23.756  0.00  0.00    +0.005 A 
ATOM     20  C   UNL     1      -2.248  -1.829  25.447  0.00  0.00    +0.000 A 
ATOM     21  C   UNL     1      -4.011  -2.573  23.973  0.00  0.00    +0.000 A 
ATOM     22  C   UNL     1      -2.940  -2.863  24.818  0.00  0.00    +0.000 A 
ENDBRANCH  14  15
ENDBRANCH   1  14
ENDBRANCH   6   1
TORSDOF 6
ENDMDL
MODEL 7
REMARK VINA RESULT:      -0.3     17.612     20.602
REMARK  Name = 51137796
REMARK  7 active torsions:
REMARK  status: ('A' for Active; 'I' for Inactive)
REMARK    1  A    between atoms: S_1  and  N_6
REMARK    2  A    between atoms: S_1  and  C_14
REMARK    3  A    between atoms: O_5  and  C_27
REMARK    4  A    between atoms: O_5  and  C_28
REMARK    5  A    between atoms: C_9  and  C_13
REMARK    6  A    between atoms: C_14  and  C_15
REMARK    7  A    between atoms: C_16  and  C_19
REMARK                            x       y       z     vdW  Elec       q    Type
REMARK                         _______ _______ _______ _____ _____    ______ ____
ROOT
ATOM      6  N   UNL     1       0.429  -0.554  23.905  0.00  0.00    -0.180 NA
ATOM      9  C   UNL     1      -1.253  -2.107  24.683  0.00  0.00    +0.094 C 
ATOM     10  C   UNL     1      -0.213  -1.074  25.147  0.00  0.00    +0.122 C 
ATOM     11  C   UNL     1      -0.731  -2.524  23.306  0.00  0.00    +0.031 C 
ATOM     12  C   UNL     1      -0.164  -1.237  22.729  0.00  0.00    +0.110 C 
ENDROOT
BRANCH   9  13
ATOM      2  O   UNL     1      -2.947  -0.353  24.966  0.00  0.00    -0.420 OA
ATOM      7  N   UNL     1      -3.776  -2.313  24.277  0.00  0.00    -0.112 NA
ATOM      8  N   UNL     1      -4.827  -1.423  24.394  0.00  0.00    -0.107 NA
ATOM     13  C   UNL     1      -2.699  -1.645  24.621  0.00  0.00    +0.222 A 
ATOM     16  C   UNL     1      -4.297  -0.292  24.799  0.00  0.00    +0.248 A 
BRANCH  16  19
ATOM     19  C   UNL     1      -4.909   0.973  25.086  0.00  0.00    +0.039 A 
ATOM     23  C   UNL     1      -5.848   1.076  26.112  0.00  0.00    +0.017 A 
ATOM     24  C   UNL     1      -4.563   2.099  24.341  0.00  0.00    +0.017 A 
ATOM     25  C   UNL     1      -6.442   2.306  26.392  0.00  0.00    +0.046 A 
ATOM     26  C   UNL     1      -5.158   3.330  24.620  0.00  0.00    +0.046 A 
ATOM     27  C   UNL     1      -6.098   3.433  25.645  0.00  0.00    +0.120 A 
BRANCH  27   5
ATOM      5  O   UNL     1      -6.676   4.635  25.920  0.00  0.00    -0.495 OA
ATOM     28  C   UNL     1      -6.287   5.743  25.110  0.00  0.00    +0.277 C 
ENDBRANCH  27   5
ENDBRANCH  16  19
ENDBRANCH   9  13
BRANCH   6   1
ATOM      1  S   UNL     1       0.777   1.100  23.791  0.00  0.00    +0.036 S 
ATOM      3  O   UNL     1      -0.203   1.739  22.933  0.00  0.00    -0.158 OA
ATOM      4  O   UNL     1       2.200   1.274  23.562  0.00  0.00    -0.158 OA
BRANCH   1  14
ATOM     14  C   UNL     1       0.435   1.592  25.463  0.00  0.00    +0.220 C 
BRANCH  14  15
ATOM     15  C   UNL     1      -0.401   2.834  25.412  0.00  0.00    -0.025 A 
ATOM     17  C   UNL     1      -1.613   2.887  26.101  0.00  0.00    +0.005 A 
ATOM     18  C   UNL     1       0.032   3.935  24.675  0.00  0.00    +0.005 A 
ATOM     20  C   UNL     1      -2.391   4.044  26.053  0.00  0.00    +0.000 A 
ATOM     21  C   UNL     1      -0.746   5.092  24.628  0.00  0.00    +0.000 A 
ATOM     22  C   UNL     1      -1.958   5.146  25.316  0.00  0.00    +0.000 A 
ENDBRANCH  14  15
ENDBRANCH   1  14
ENDBRANCH   6   1
TORSDOF 6
ENDMDL
MODEL 8
REMARK VINA RESULT:      -0.1     16.483     18.212
REMARK  Name = 51137796
REMARK  7 active torsions:
REMARK  status: ('A' for Active; 'I' for Inactive)
REMARK    1  A    between atoms: S_1  and  N_6
REMARK    2  A    between atoms: S_1  and  C_14
REMARK    3  A    between atoms: O_5  and  C_27
REMARK    4  A    between atoms: O_5  and  C_28
REMARK    5  A    between atoms: C_9  and  C_13
REMARK    6  A    between atoms: C_14  and  C_15
REMARK    7  A    between atoms: C_16  and  C_19
REMARK                            x       y       z     vdW  Elec       q    Type
REMARK                         _______ _______ _______ _____ _____    ______ ____
ROOT
ATOM      6  N   UNL     1      -3.453   3.467  25.354  0.00  0.00    -0.180 NA
ATOM      9  C   UNL     1      -1.072   3.080  25.517  0.00  0.00    +0.094 C 
ATOM     10  C   UNL     1      -2.427   2.747  26.163  0.00  0.00    +0.122 C 
ATOM     11  C   UNL     1      -1.355   4.393  24.784  0.00  0.00    +0.031 C 
ATOM     12  C   UNL     1      -2.777   4.222  24.271  0.00  0.00    +0.110 C 
ENDROOT
BRANCH   9  13
ATOM      2  O   UNL     1       0.877   1.926  24.571  0.00  0.00    -0.420 OA
ATOM      7  N   UNL     1      -1.082   1.196  23.778  0.00  0.00    -0.112 NA
ATOM      8  N   UNL     1      -0.078   0.468  23.168  0.00  0.00    -0.107 NA
ATOM     13  C   UNL     1      -0.479   2.034  24.588  0.00  0.00    +0.222 A 
ATOM     16  C   UNL     1       1.049   0.928  23.661  0.00  0.00    +0.248 A 
BRANCH  16  19
ATOM     19  C   UNL     1       2.406   0.548  23.394  0.00  0.00    +0.039 A 
ATOM     23  C   UNL     1       2.835  -0.750  23.673  0.00  0.00    +0.017 A 
ATOM     24  C   UNL     1       3.296   1.476  22.854  0.00  0.00    +0.017 A 
ATOM     25  C   UNL     1       4.153  -1.119  23.412  0.00  0.00    +0.046 A 
ATOM     26  C   UNL     1       4.616   1.107  22.594  0.00  0.00    +0.046 A 
ATOM     27  C   UNL     1       5.044  -0.191  22.873  0.00  0.00    +0.120 A 
BRANCH  27   5
ATOM      5  O   UNL     1       6.332  -0.552  22.615  0.00  0.00    -0.495 OA
ATOM     28  C   UNL     1       7.316  -0.180  23.578  0.00  0.00    +0.277 C 
ENDBRANCH  27   5
ENDBRANCH  16  19
ENDBRANCH   9  13
BRANCH   6   1
ATOM      1  S   UNL     1      -4.918   2.689  25.006  0.00  0.00    +0.036 S 
ATOM      3  O   UNL     1      -4.849   2.109  23.678  0.00  0.00    -0.158 OA
ATOM      4  O   UNL     1      -6.020   3.551  25.392  0.00  0.00    -0.158 OA
BRANCH   1  14
ATOM     14  C   UNL     1      -4.835   1.360  26.182  0.00  0.00    +0.220 C 
BRANCH  14  15
ATOM     15  C   UNL     1      -4.266   0.165  25.481  0.00  0.00    -0.025 A 
ATOM     17  C   UNL     1      -3.162  -0.498  26.017  0.00  0.00    +0.005 A 
ATOM     18  C   UNL     1      -4.840  -0.284  24.292  0.00  0.00    +0.005 A 
ATOM     20  C   UNL     1      -2.633  -1.611  25.363  0.00  0.00    +0.000 A 
ATOM     21  C   UNL     1      -4.311  -1.398  23.639  0.00  0.00    +0.000 A 
ATOM     22  C   UNL     1      -3.207  -2.060  24.175  0.00  0.00    +0.000 A 
ENDBRANCH  14  15
ENDBRANCH   1  14
ENDBRANCH   6   1
TORSDOF 6
ENDMDL
