MODEL 1
REMARK VINA RESULT:      -4.0      0.000      0.000
REMARK  Name = 75536830
REMARK  8 active torsions:
REMARK  status: ('A' for Active; 'I' for Inactive)
REMARK    1  A    between atoms: S_1  and  N_8
REMARK    2  A    between atoms: S_1  and  C_20
REMARK    3  A    between atoms: O_3  and  C_11
REMARK    4  A    between atoms: N_6  and  C_9
REMARK    5  A    between atoms: N_6  and  C_10
REMARK    6  A    between atoms: N_7  and  C_19
REMARK    7  A    between atoms: N_8  and  C_18
REMARK    8  A    between atoms: C_12  and  C_18
REMARK                            x       y       z     vdW  Elec       q    Type
REMARK                         _______ _______ _______ _____ _____    ______ ____
ROOT
ATOM      2  O   UNL     1      -1.060   1.141  25.801  0.00  0.00    -0.371 OA
ATOM      9  C   UNL     1       0.477   1.107  23.990  0.00  0.00    +0.111 C 
ATOM     11  C   UNL     1      -0.379   2.356  23.890  0.00  0.00    +0.164 C 
ATOM     12  C   UNL     1      -0.880   2.484  25.322  0.00  0.00    +0.164 C 
ATOM     15  C   UNL     1      -0.358   0.243  24.921  0.00  0.00    +0.181 C 
ENDROOT
BRANCH  11   3
ATOM      3  O   UNL     1       0.360   3.493  23.487  0.00  0.00    -0.388 OA
ATOM     27  H   UNL     1       0.038   3.773  22.613  0.00  0.00    +0.210 HD
ENDBRANCH  11   3
BRANCH   9   6
ATOM      6  N   UNL     1       0.734   0.472  22.708  0.00  0.00    -0.306 NA
ATOM     26  H   UNL     1       0.466   1.094  21.947  0.00  0.00    +0.123 HD
BRANCH   6  10
ATOM      7  N   UNL     1       4.806  -0.112  23.778  0.00  0.00    -0.305 NA
ATOM     10  C   UNL     1       2.144   0.109  22.582  0.00  0.00    +0.056 C 
ATOM     13  C   UNL     1       2.500  -0.991  23.584  0.00  0.00    +0.034 C 
ATOM     14  C   UNL     1       3.045   1.328  22.802  0.00  0.00    +0.034 C 
ATOM     16  C   UNL     1       3.996  -1.314  23.537  0.00  0.00    +0.085 C 
ATOM     17  C   UNL     1       4.523   0.929  22.780  0.00  0.00    +0.085 C 
ATOM     19  C   UNL     1       6.230  -0.446  23.779  0.00  0.00    +0.104 C 
ENDBRANCH   6  10
ENDBRANCH   9   6
BRANCH  12  18
ATOM     18  C   UNL     1      -2.187   3.247  25.435  0.00  0.00    +0.140 C 
BRANCH  18   8
ATOM      8  N   UNL     1      -3.280   2.313  25.770  0.00  0.00    -0.187 NA
ATOM     28  H   UNL     1      -3.132   1.736  26.608  0.00  0.00    +0.148 HD
BRANCH   8   1
ATOM      1  S   UNL     1      -4.295   1.713  24.543  0.00  0.00    +0.058 S 
ATOM      4  O   UNL     1      -3.801   2.157  23.253  0.00  0.00    -0.153 OA
ATOM      5  O   UNL     1      -5.676   1.950  24.916  0.00  0.00    -0.153 OA
BRANCH   1  20
ATOM     20  C   UNL     1      -4.018  -0.029  24.663  0.00  0.00    +0.105 A 
ATOM     21  C   UNL     1      -4.261  -0.850  23.563  0.00  0.00    +0.028 A 
ATOM     22  C   UNL     1      -3.561  -0.582  25.859  0.00  0.00    +0.028 A 
ATOM     23  C   UNL     1      -4.048  -2.225  23.659  0.00  0.00    +0.002 A 
ATOM     24  C   UNL     1      -3.347  -1.956  25.955  0.00  0.00    +0.002 A 
ATOM     25  C   UNL     1      -3.591  -2.778  24.854  0.00  0.00    +0.000 A 
ENDBRANCH   1  20
ENDBRANCH   8   1
ENDBRANCH  18   8
ENDBRANCH  12  18
TORSDOF 7
ENDMDL
MODEL 2
REMARK VINA RESULT:      -3.8      2.926      6.110
REMARK  Name = 75536830
REMARK  8 active torsions:
REMARK  status: ('A' for Active; 'I' for Inactive)
REMARK    1  A    between atoms: S_1  and  N_8
REMARK    2  A    between atoms: S_1  and  C_20
REMARK    3  A    between atoms: O_3  and  C_11
REMARK    4  A    between atoms: N_6  and  C_9
REMARK    5  A    between atoms: N_6  and  C_10
REMARK    6  A    between atoms: N_7  and  C_19
REMARK    7  A    between atoms: N_8  and  C_18
REMARK    8  A    between atoms: C_12  and  C_18
REMARK                            x       y       z     vdW  Elec       q    Type
REMARK                         _______ _______ _______ _____ _____    ______ ____
ROOT
ATOM      2  O   UNL     1       0.317   3.599  23.429  0.00  0.00    -0.371 OA
ATOM      9  C   UNL     1      -0.901   4.341  25.330  0.00  0.00    +0.111 C 
ATOM     11  C   UNL     1      -0.608   2.859  25.476  0.00  0.00    +0.164 C 
ATOM     12  C   UNL     1       0.565   2.695  24.518  0.00  0.00    +0.164 C 
ATOM     15  C   UNL     1      -0.690   4.543  23.838  0.00  0.00    +0.181 C 
ENDROOT
BRANCH  11   3
ATOM      3  O   UNL     1      -0.262   2.499  26.799  0.00  0.00    -0.388 OA
ATOM     27  H   UNL     1      -0.292   1.530  26.871  0.00  0.00    +0.210 HD
ENDBRANCH  11   3
BRANCH   9   6
ATOM      6  N   UNL     1      -2.234   4.718  25.769  0.00  0.00    -0.306 NA
ATOM     26  H   UNL     1      -2.561   5.529  25.245  0.00  0.00    +0.123 HD
BRANCH   6  10
ATOM      7  N   UNL     1      -5.828   2.641  24.857  0.00  0.00    -0.305 NA
ATOM     10  C   UNL     1      -3.168   3.607  25.603  0.00  0.00    +0.056 C 
ATOM     13  C   UNL     1      -3.623   3.510  24.145  0.00  0.00    +0.034 C 
ATOM     14  C   UNL     1      -4.384   3.773  26.519  0.00  0.00    +0.034 C 
ATOM     16  C   UNL     1      -4.678   2.415  23.970  0.00  0.00    +0.085 C 
ATOM     17  C   UNL     1      -5.415   2.669  26.267  0.00  0.00    +0.085 C 
ATOM     19  C   UNL     1      -6.849   1.616  24.643  0.00  0.00    +0.104 C 
ENDBRANCH   6  10
ENDBRANCH   9   6
BRANCH  12  18
ATOM     18  C   UNL     1       0.713   1.281  23.987  0.00  0.00    +0.140 C 
BRANCH  18   8
ATOM      8  N   UNL     1      -0.572   0.567  24.113  0.00  0.00    -0.187 NA
ATOM     28  H   UNL     1      -1.413   1.126  23.920  0.00  0.00    +0.148 HD
BRANCH   8   1
ATOM      1  S   UNL     1      -0.709  -0.765  25.162  0.00  0.00    +0.058 S 
ATOM      4  O   UNL     1      -0.859  -0.289  26.524  0.00  0.00    -0.153 OA
ATOM      5  O   UNL     1       0.325  -1.729  24.837  0.00  0.00    -0.153 OA
BRANCH   1  20
ATOM     20  C   UNL     1      -2.250  -1.468  24.657  0.00  0.00    +0.105 A 
ATOM     21  C   UNL     1      -2.382  -2.852  24.550  0.00  0.00    +0.028 A 
ATOM     22  C   UNL     1      -3.332  -0.638  24.362  0.00  0.00    +0.028 A 
ATOM     23  C   UNL     1      -3.597  -3.407  24.146  0.00  0.00    +0.002 A 
ATOM     24  C   UNL     1      -4.546  -1.193  23.960  0.00  0.00    +0.002 A 
ATOM     25  C   UNL     1      -4.679  -2.578  23.852  0.00  0.00    +0.000 A 
ENDBRANCH   1  20
ENDBRANCH   8   1
ENDBRANCH  18   8
ENDBRANCH  12  18
TORSDOF 7
ENDMDL
MODEL 3
REMARK VINA RESULT:      -3.8      1.179      1.627
REMARK  Name = 75536830
REMARK  8 active torsions:
REMARK  status: ('A' for Active; 'I' for Inactive)
REMARK    1  A    between atoms: S_1  and  N_8
REMARK    2  A    between atoms: S_1  and  C_20
REMARK    3  A    between atoms: O_3  and  C_11
REMARK    4  A    between atoms: N_6  and  C_9
REMARK    5  A    between atoms: N_6  and  C_10
REMARK    6  A    between atoms: N_7  and  C_19
REMARK    7  A    between atoms: N_8  and  C_18
REMARK    8  A    between atoms: C_12  and  C_18
REMARK                            x       y       z     vdW  Elec       q    Type
REMARK                         _______ _______ _______ _____ _____    ______ ____
ROOT
ATOM      2  O   UNL     1      -1.077   2.951  25.625  0.00  0.00    -0.371 OA
ATOM      9  C   UNL     1      -0.270   1.548  23.886  0.00  0.00    +0.111 C 
ATOM     11  C   UNL     1      -1.682   1.992  23.549  0.00  0.00    +0.164 C 
ATOM     12  C   UNL     1      -1.817   3.231  24.425  0.00  0.00    +0.164 C 
ATOM     15  C   UNL     1      -0.216   1.824  25.380  0.00  0.00    +0.181 C 
ENDROOT
BRANCH  11   3
ATOM      3  O   UNL     1      -1.846   2.295  22.178  0.00  0.00    -0.388 OA
ATOM     27  H   UNL     1      -1.829   3.262  22.075  0.00  0.00    +0.210 HD
ENDBRANCH  11   3
BRANCH   9   6
ATOM      6  N   UNL     1      -0.002   0.158  23.558  0.00  0.00    -0.306 NA
ATOM     26  H   UNL     1      -0.661  -0.171  22.855  0.00  0.00    +0.123 HD
BRANCH   6  10
ATOM      7  N   UNL     1       4.248   0.137  23.564  0.00  0.00    -0.305 NA
ATOM     10  C   UNL     1       1.367  -0.006  23.073  0.00  0.00    +0.056 C 
ATOM     13  C   UNL     1       2.106  -1.050  23.914  0.00  0.00    +0.034 C 
ATOM     14  C   UNL     1       2.124   1.324  23.110  0.00  0.00    +0.034 C 
ATOM     16  C   UNL     1       3.571  -1.164  23.486  0.00  0.00    +0.085 C 
ATOM     17  C   UNL     1       3.589   1.134  22.708  0.00  0.00    +0.085 C 
ATOM     19  C   UNL     1       5.659   0.004  23.201  0.00  0.00    +0.104 C 
ENDBRANCH   6  10
ENDBRANCH   9   6
BRANCH  12  18
ATOM     18  C   UNL     1      -3.255   3.565  24.775  0.00  0.00    +0.140 C 
BRANCH  18   8
ATOM      8  N   UNL     1      -4.163   2.619  24.097  0.00  0.00    -0.187 NA
ATOM     28  H   UNL     1      -4.456   2.884  23.148  0.00  0.00    +0.148 HD
BRANCH   8   1
ATOM      1  S   UNL     1      -5.192   1.620  25.012  0.00  0.00    +0.058 S 
ATOM      4  O   UNL     1      -6.457   1.471  24.317  0.00  0.00    -0.153 OA
ATOM      5  O   UNL     1      -5.166   2.057  26.395  0.00  0.00    -0.153 OA
BRANCH   1  20
ATOM     20  C   UNL     1      -4.347   0.069  24.943  0.00  0.00    +0.105 A 
ATOM     21  C   UNL     1      -3.316  -0.203  25.842  0.00  0.00    +0.028 A 
ATOM     22  C   UNL     1      -4.708  -0.881  23.987  0.00  0.00    +0.028 A 
ATOM     23  C   UNL     1      -2.646  -1.425  25.785  0.00  0.00    +0.002 A 
ATOM     24  C   UNL     1      -4.039  -2.103  23.931  0.00  0.00    +0.002 A 
ATOM     25  C   UNL     1      -3.007  -2.375  24.830  0.00  0.00    +0.000 A 
ENDBRANCH   1  20
ENDBRANCH   8   1
ENDBRANCH  18   8
ENDBRANCH  12  18
TORSDOF 7
ENDMDL
MODEL 4
REMARK VINA RESULT:      -3.1      1.486      3.579
REMARK  Name = 75536830
REMARK  8 active torsions:
REMARK  status: ('A' for Active; 'I' for Inactive)
REMARK    1  A    between atoms: S_1  and  N_8
REMARK    2  A    between atoms: S_1  and  C_20
REMARK    3  A    between atoms: O_3  and  C_11
REMARK    4  A    between atoms: N_6  and  C_9
REMARK    5  A    between atoms: N_6  and  C_10
REMARK    6  A    between atoms: N_7  and  C_19
REMARK    7  A    between atoms: N_8  and  C_18
REMARK    8  A    between atoms: C_12  and  C_18
REMARK                            x       y       z     vdW  Elec       q    Type
REMARK                         _______ _______ _______ _____ _____    ______ ____
ROOT
ATOM      2  O   UNL     1      -1.662  -2.318  23.975  0.00  0.00    -0.371 OA
ATOM      9  C   UNL     1       0.108  -0.735  24.024  0.00  0.00    +0.111 C 
ATOM     11  C   UNL     1      -1.022  -0.241  24.908  0.00  0.00    +0.164 C 
ATOM     12  C   UNL     1      -1.772  -1.540  25.178  0.00  0.00    +0.164 C 
ATOM     15  C   UNL     1      -0.609  -1.764  23.165  0.00  0.00    +0.181 C 
ENDROOT
BRANCH  11   3
ATOM      3  O   UNL     1      -0.559   0.357  26.102  0.00  0.00    -0.388 OA
ATOM     27  H   UNL     1      -1.052  -0.027  26.848  0.00  0.00    +0.210 HD
ENDBRANCH  11   3
BRANCH   9   6
ATOM      6  N   UNL     1       0.737   0.316  23.240  0.00  0.00    -0.306 NA
ATOM     26  H   UNL     1       0.721   1.195  23.755  0.00  0.00    +0.123 HD
BRANCH   6  10
ATOM      7  N   UNL     1       4.946  -0.119  23.632  0.00  0.00    -0.305 NA
ATOM     10  C   UNL     1       2.113  -0.041  22.904  0.00  0.00    +0.056 C 
ATOM     13  C   UNL     1       2.667  -1.037  23.925  0.00  0.00    +0.034 C 
ATOM     14  C   UNL     1       3.004   1.203  22.852  0.00  0.00    +0.034 C 
ATOM     16  C   UNL     1       4.140  -1.347  23.647  0.00  0.00    +0.085 C 
ATOM     17  C   UNL     1       4.467   0.821  22.608  0.00  0.00    +0.085 C 
ATOM     19  C   UNL     1       6.358  -0.434  23.415  0.00  0.00    +0.104 C 
ENDBRANCH   6  10
ENDBRANCH   9   6
BRANCH  12  18
ATOM     18  C   UNL     1      -3.236  -1.328  25.519  0.00  0.00    +0.140 C 
BRANCH  18   8
ATOM      8  N   UNL     1      -3.477   0.100  25.804  0.00  0.00    -0.187 NA
ATOM     28  H   UNL     1      -3.707   0.327  26.780  0.00  0.00    +0.148 HD
BRANCH   8   1
ATOM      1  S   UNL     1      -4.048   1.129  24.577  0.00  0.00    +0.058 S 
ATOM      4  O   UNL     1      -5.432   1.473  24.846  0.00  0.00    -0.153 OA
ATOM      5  O   UNL     1      -3.670   0.582  23.288  0.00  0.00    -0.153 OA
BRANCH   1  20
ATOM     20  C   UNL     1      -3.067   2.578  24.832  0.00  0.00    +0.105 A 
ATOM     21  C   UNL     1      -3.503   3.568  25.712  0.00  0.00    +0.028 A 
ATOM     22  C   UNL     1      -1.860   2.731  24.151  0.00  0.00    +0.028 A 
ATOM     23  C   UNL     1      -2.732   4.713  25.910  0.00  0.00    +0.002 A 
ATOM     24  C   UNL     1      -1.088   3.875  24.350  0.00  0.00    +0.002 A 
ATOM     25  C   UNL     1      -1.524   4.867  25.230  0.00  0.00    +0.000 A 
ENDBRANCH   1  20
ENDBRANCH   8   1
ENDBRANCH  18   8
ENDBRANCH  12  18
TORSDOF 7
ENDMDL
MODEL 5
REMARK VINA RESULT:      -2.8      3.231      7.105
REMARK  Name = 75536830
REMARK  8 active torsions:
REMARK  status: ('A' for Active; 'I' for Inactive)
REMARK    1  A    between atoms: S_1  and  N_8
REMARK    2  A    between atoms: S_1  and  C_20
REMARK    3  A    between atoms: O_3  and  C_11
REMARK    4  A    between atoms: N_6  and  C_9
REMARK    5  A    between atoms: N_6  and  C_10
REMARK    6  A    between atoms: N_7  and  C_19
REMARK    7  A    between atoms: N_8  and  C_18
REMARK    8  A    between atoms: C_12  and  C_18
REMARK                            x       y       z     vdW  Elec       q    Type
REMARK                         _______ _______ _______ _____ _____    ______ ____
ROOT
ATOM      2  O   UNL     1      -1.561  -1.222  26.244  0.00  0.00    -0.371 OA
ATOM      9  C   UNL     1      -3.714  -1.334  25.247  0.00  0.00    +0.111 C 
ATOM     11  C   UNL     1      -2.682  -1.837  24.254  0.00  0.00    +0.164 C 
ATOM     12  C   UNL     1      -1.529  -2.193  25.185  0.00  0.00    +0.164 C 
ATOM     15  C   UNL     1      -2.841  -0.565  26.225  0.00  0.00    +0.181 C 
ENDROOT
BRANCH  11   3
ATOM      3  O   UNL     1      -3.131  -2.958  23.520  0.00  0.00    -0.388 OA
ATOM     27  H   UNL     1      -2.577  -3.722  23.757  0.00  0.00    +0.210 HD
ENDBRANCH  11   3
BRANCH   9   6
ATOM      6  N   UNL     1      -4.749  -0.510  24.644  0.00  0.00    -0.306 NA
ATOM     26  H   UNL     1      -5.666  -0.923  24.806  0.00  0.00    +0.123 HD
BRANCH   6  10
ATOM      7  N   UNL     1      -5.641   3.621  25.095  0.00  0.00    -0.305 NA
ATOM     10  C   UNL     1      -4.711   0.848  25.183  0.00  0.00    +0.056 C 
ATOM     13  C   UNL     1      -6.100   1.260  25.679  0.00  0.00    +0.034 C 
ATOM     14  C   UNL     1      -4.217   1.842  24.129  0.00  0.00    +0.034 C 
ATOM     16  C   UNL     1      -6.103   2.714  26.156  0.00  0.00    +0.085 C 
ATOM     17  C   UNL     1      -4.281   3.278  24.656  0.00  0.00    +0.085 C 
ATOM     19  C   UNL     1      -5.697   5.010  25.549  0.00  0.00    +0.104 C 
ENDBRANCH   6  10
ENDBRANCH   9   6
BRANCH  12  18
ATOM     18  C   UNL     1      -0.174  -2.161  24.501  0.00  0.00    +0.140 C 
BRANCH  18   8
ATOM      8  N   UNL     1       0.474  -0.858  24.744  0.00  0.00    -0.187 NA
ATOM     28  H   UNL     1       0.464  -0.530  25.719  0.00  0.00    +0.148 HD
BRANCH   8   1
ATOM      1  S   UNL     1       0.551   0.302  23.502  0.00  0.00    +0.058 S 
ATOM      4  O   UNL     1      -0.403  -0.043  22.465  0.00  0.00    -0.153 OA
ATOM      5  O   UNL     1       1.941   0.539  23.164  0.00  0.00    -0.153 OA
BRANCH   1  20
ATOM     20  C   UNL     1      -0.038   1.753  24.322  0.00  0.00    +0.105 A 
ATOM     21  C   UNL     1      -0.264   1.731  25.698  0.00  0.00    +0.028 A 
ATOM     22  C   UNL     1      -0.279   2.917  23.593  0.00  0.00    +0.028 A 
ATOM     23  C   UNL     1      -0.733   2.875  26.345  0.00  0.00    +0.002 A 
ATOM     24  C   UNL     1      -0.746   4.060  24.240  0.00  0.00    +0.002 A 
ATOM     25  C   UNL     1      -0.974   4.039  25.617  0.00  0.00    +0.000 A 
ENDBRANCH   1  20
ENDBRANCH   8   1
ENDBRANCH  18   8
ENDBRANCH  12  18
TORSDOF 7
ENDMDL
MODEL 6
REMARK VINA RESULT:      -2.6      2.954      4.928
REMARK  Name = 75536830
REMARK  8 active torsions:
REMARK  status: ('A' for Active; 'I' for Inactive)
REMARK    1  A    between atoms: S_1  and  N_8
REMARK    2  A    between atoms: S_1  and  C_20
REMARK    3  A    between atoms: O_3  and  C_11
REMARK    4  A    between atoms: N_6  and  C_9
REMARK    5  A    between atoms: N_6  and  C_10
REMARK    6  A    between atoms: N_7  and  C_19
REMARK    7  A    between atoms: N_8  and  C_18
REMARK    8  A    between atoms: C_12  and  C_18
REMARK                            x       y       z     vdW  Elec       q    Type
REMARK                         _______ _______ _______ _____ _____    ______ ____
ROOT
ATOM      2  O   UNL     1      -1.607  -2.626  23.935  0.00  0.00    -0.371 OA
ATOM      9  C   UNL     1       0.043  -1.035  24.558  0.00  0.00    +0.111 C 
ATOM     11  C   UNL     1      -1.129  -0.934  25.517  0.00  0.00    +0.164 C 
ATOM     12  C   UNL     1      -1.785  -2.296  25.322  0.00  0.00    +0.164 C 
ATOM     15  C   UNL     1      -0.589  -1.770  23.387  0.00  0.00    +0.181 C 
ENDROOT
BRANCH  11   3
ATOM      3  O   UNL     1      -0.723  -0.733  26.856  0.00  0.00    -0.388 OA
ATOM     27  H   UNL     1      -1.509  -0.517  27.386  0.00  0.00    +0.210 HD
ENDBRANCH  11   3
BRANCH   9   6
ATOM      6  N   UNL     1       0.601   0.254  24.182  0.00  0.00    -0.306 NA
ATOM     26  H   UNL     1       0.799   0.274  23.183  0.00  0.00    +0.123 HD
BRANCH   6  10
ATOM      7  N   UNL     1      -0.821   4.199  24.874  0.00  0.00    -0.305 NA
ATOM     10  C   UNL     1      -0.316   1.337  24.531  0.00  0.00    +0.056 C 
ATOM     13  C   UNL     1      -0.494   2.284  23.341  0.00  0.00    +0.034 C 
ATOM     14  C   UNL     1       0.194   2.117  25.746  0.00  0.00    +0.034 C 
ATOM     16  C   UNL     1      -1.372   3.480  23.718  0.00  0.00    +0.085 C 
ATOM     17  C   UNL     1      -0.707   3.318  26.045  0.00  0.00    +0.085 C 
ATOM     19  C   UNL     1      -1.642   5.367  25.191  0.00  0.00    +0.104 C 
ENDBRANCH   6  10
ENDBRANCH   9   6
BRANCH  12  18
ATOM     18  C   UNL     1      -3.263  -2.304  25.666  0.00  0.00    +0.140 C 
BRANCH  18   8
ATOM      8  N   UNL     1      -3.777  -0.920  25.680  0.00  0.00    -0.187 NA
ATOM     28  H   UNL     1      -4.127  -0.584  26.586  0.00  0.00    +0.148 HD
BRANCH   8   1
ATOM      1  S   UNL     1      -4.414  -0.233  24.260  0.00  0.00    +0.058 S 
ATOM      4  O   UNL     1      -5.612  -0.954  23.874  0.00  0.00    -0.153 OA
ATOM      5  O   UNL     1      -3.338  -0.041  23.306  0.00  0.00    -0.153 OA
BRANCH   1  20
ATOM     20  C   UNL     1      -4.900   1.371  24.821  0.00  0.00    +0.105 A 
ATOM     21  C   UNL     1      -4.338   2.510  24.246  0.00  0.00    +0.028 A 
ATOM     22  C   UNL     1      -5.844   1.497  25.841  0.00  0.00    +0.028 A 
ATOM     23  C   UNL     1      -4.718   3.777  24.692  0.00  0.00    +0.002 A 
ATOM     24  C   UNL     1      -6.224   2.763  26.285  0.00  0.00    +0.002 A 
ATOM     25  C   UNL     1      -5.661   3.903  25.711  0.00  0.00    +0.000 A 
ENDBRANCH   1  20
ENDBRANCH   8   1
ENDBRANCH  18   8
ENDBRANCH  12  18
TORSDOF 7
ENDMDL
MODEL 7
REMARK VINA RESULT:      -2.5     16.282     17.808
REMARK  Name = 75536830
REMARK  8 active torsions:
REMARK  status: ('A' for Active; 'I' for Inactive)
REMARK    1  A    between atoms: S_1  and  N_8
REMARK    2  A    between atoms: S_1  and  C_20
REMARK    3  A    between atoms: O_3  and  C_11
REMARK    4  A    between atoms: N_6  and  C_9
REMARK    5  A    between atoms: N_6  and  C_10
REMARK    6  A    between atoms: N_7  and  C_19
REMARK    7  A    between atoms: N_8  and  C_18
REMARK    8  A    between atoms: C_12  and  C_18
REMARK                            x       y       z     vdW  Elec       q    Type
REMARK                         _______ _______ _______ _____ _____    ______ ____
ROOT
ATOM      2  O   UNL     1      14.161  -7.297  28.369  0.00  0.00    -0.371 OA
ATOM      9  C   UNL     1      16.259  -7.333  27.254  0.00  0.00    +0.111 C 
ATOM     11  C   UNL     1      16.441  -7.852  28.669  0.00  0.00    +0.164 C 
ATOM     12  C   UNL     1      15.013  -8.253  29.020  0.00  0.00    +0.164 C 
ATOM     15  C   UNL     1      14.931  -6.603  27.370  0.00  0.00    +0.181 C 
ENDROOT
BRANCH  11   3
ATOM      3  O   UNL     1      17.328  -8.950  28.737  0.00  0.00    -0.388 OA
ATOM     27  H   UNL     1      16.821  -9.765  28.579  0.00  0.00    +0.210 HD
ENDBRANCH  11   3
BRANCH   9   6
ATOM      6  N   UNL     1      17.341  -6.473  26.805  0.00  0.00    -0.306 NA
ATOM     26  H   UNL     1      18.078  -7.029  26.376  0.00  0.00    +0.123 HD
BRANCH   6  10
ATOM      7  N   UNL     1      17.405  -3.452  23.816  0.00  0.00    -0.305 NA
ATOM     10  C   UNL     1      16.851  -5.477  25.854  0.00  0.00    +0.056 C 
ATOM     13  C   UNL     1      17.280  -5.846  24.432  0.00  0.00    +0.034 C 
ATOM     14  C   UNL     1      17.367  -4.080  26.210  0.00  0.00    +0.034 C 
ATOM     16  C   UNL     1      16.862  -4.763  23.434  0.00  0.00    +0.085 C 
ATOM     17  C   UNL     1      16.946  -3.054  25.154  0.00  0.00    +0.085 C 
ATOM     19  C   UNL     1      17.040  -2.438  22.827  0.00  0.00    +0.104 C 
ENDBRANCH   6  10
ENDBRANCH   9   6
BRANCH  12  18
ATOM     18  C   UNL     1      14.739  -8.251  30.513  0.00  0.00    +0.140 C 
BRANCH  18   8
ATOM      8  N   UNL     1      13.306  -8.505  30.754  0.00  0.00    -0.187 NA
ATOM     28  H   UNL     1      12.829  -9.078  30.046  0.00  0.00    +0.148 HD
BRANCH   8   1
ATOM      1  S   UNL     1      12.382  -7.395  31.652  0.00  0.00    +0.058 S 
ATOM      4  O   UNL     1      11.911  -6.341  30.772  0.00  0.00    -0.153 OA
ATOM      5  O   UNL     1      13.096  -7.063  32.870  0.00  0.00    -0.153 OA
BRANCH   1  20
ATOM     20  C   UNL     1      10.989  -8.377  32.120  0.00  0.00    +0.105 A 
ATOM     21  C   UNL     1      11.090  -9.767  32.136  0.00  0.00    +0.028 A 
ATOM     22  C   UNL     1       9.787  -7.760  32.470  0.00  0.00    +0.028 A 
ATOM     23  C   UNL     1       9.989 -10.542  32.501  0.00  0.00    +0.002 A 
ATOM     24  C   UNL     1       8.687  -8.535  32.836  0.00  0.00    +0.002 A 
ATOM     25  C   UNL     1       8.788  -9.927  32.851  0.00  0.00    +0.000 A 
ENDBRANCH   1  20
ENDBRANCH   8   1
ENDBRANCH  18   8
ENDBRANCH  12  18
TORSDOF 7
ENDMDL
MODEL 8
REMARK VINA RESULT:      -2.4      2.652      3.778
REMARK  Name = 75536830
REMARK  8 active torsions:
REMARK  status: ('A' for Active; 'I' for Inactive)
REMARK    1  A    between atoms: S_1  and  N_8
REMARK    2  A    between atoms: S_1  and  C_20
REMARK    3  A    between atoms: O_3  and  C_11
REMARK    4  A    between atoms: N_6  and  C_9
REMARK    5  A    between atoms: N_6  and  C_10
REMARK    6  A    between atoms: N_7  and  C_19
REMARK    7  A    between atoms: N_8  and  C_18
REMARK    8  A    between atoms: C_12  and  C_18
REMARK                            x       y       z     vdW  Elec       q    Type
REMARK                         _______ _______ _______ _____ _____    ______ ____
ROOT
ATOM      2  O   UNL     1      -1.156   3.565  26.742  0.00  0.00    -0.371 OA
ATOM      9  C   UNL     1       0.416   2.702  25.183  0.00  0.00    +0.111 C 
ATOM     11  C   UNL     1      -0.683   3.429  24.428  0.00  0.00    +0.164 C 
ATOM     12  C   UNL     1      -1.250   4.323  25.524  0.00  0.00    +0.164 C 
ATOM     15  C   UNL     1      -0.249   2.467  26.530  0.00  0.00    +0.181 C 
ENDROOT
BRANCH  11   3
ATOM      3  O   UNL     1      -0.190   4.181  23.338  0.00  0.00    -0.388 OA
ATOM     27  H   UNL     1      -0.646   5.040  23.327  0.00  0.00    +0.210 HD
ENDBRANCH  11   3
BRANCH   9   6
ATOM      6  N   UNL     1       0.846   1.470  24.543  0.00  0.00    -0.306 NA
ATOM     26  H   UNL     1       1.605   1.045  25.073  0.00  0.00    +0.123 HD
BRANCH   6  10
ATOM      7  N   UNL     1      -1.390  -2.123  24.930  0.00  0.00    -0.305 NA
ATOM     10  C   UNL     1      -0.267   0.531  24.423  0.00  0.00    +0.056 C 
ATOM     13  C   UNL     1      -0.746   0.098  25.811  0.00  0.00    +0.034 C 
ATOM     14  C   UNL     1       0.138  -0.697  23.604  0.00  0.00    +0.034 C 
ATOM     16  C   UNL     1      -1.845  -0.962  25.707  0.00  0.00    +0.085 C 
ATOM     17  C   UNL     1      -0.991  -1.731  23.571  0.00  0.00    +0.085 C 
ATOM     19  C   UNL     1      -2.433  -3.148  24.881  0.00  0.00    +0.104 C 
ENDBRANCH   6  10
ENDBRANCH   9   6
BRANCH  12  18
ATOM     18  C   UNL     1      -2.693   4.727  25.282  0.00  0.00    +0.140 C 
BRANCH  18   8
ATOM      8  N   UNL     1      -3.565   4.070  26.274  0.00  0.00    -0.187 NA
ATOM     28  H   UNL     1      -3.086   3.655  27.084  0.00  0.00    +0.148 HD
BRANCH   8   1
ATOM      1  S   UNL     1      -5.059   3.412  25.794  0.00  0.00    +0.058 S 
ATOM      4  O   UNL     1      -5.756   4.369  24.955  0.00  0.00    -0.153 OA
ATOM      5  O   UNL     1      -5.718   2.842  26.953  0.00  0.00    -0.153 OA
BRANCH   1  20
ATOM     20  C   UNL     1      -4.549   2.063  24.772  0.00  0.00    +0.105 A 
ATOM     21  C   UNL     1      -4.996   0.771  25.050  0.00  0.00    +0.028 A 
ATOM     22  C   UNL     1      -3.696   2.289  23.692  0.00  0.00    +0.028 A 
ATOM     23  C   UNL     1      -4.590  -0.295  24.247  0.00  0.00    +0.002 A 
ATOM     24  C   UNL     1      -3.291   1.223  22.889  0.00  0.00    +0.002 A 
ATOM     25  C   UNL     1      -3.738  -0.069  23.167  0.00  0.00    +0.000 A 
ENDBRANCH   1  20
ENDBRANCH   8   1
ENDBRANCH  18   8
ENDBRANCH  12  18
TORSDOF 7
ENDMDL
MODEL 9
REMARK VINA RESULT:      -2.3      3.175      4.900
REMARK  Name = 75536830
REMARK  8 active torsions:
REMARK  status: ('A' for Active; 'I' for Inactive)
REMARK    1  A    between atoms: S_1  and  N_8
REMARK    2  A    between atoms: S_1  and  C_20
REMARK    3  A    between atoms: O_3  and  C_11
REMARK    4  A    between atoms: N_6  and  C_9
REMARK    5  A    between atoms: N_6  and  C_10
REMARK    6  A    between atoms: N_7  and  C_19
REMARK    7  A    between atoms: N_8  and  C_18
REMARK    8  A    between atoms: C_12  and  C_18
REMARK                            x       y       z     vdW  Elec       q    Type
REMARK                         _______ _______ _______ _____ _____    ______ ____
ROOT
ATOM      2  O   UNL     1      -0.752   3.643  25.722  0.00  0.00    -0.371 OA
ATOM      9  C   UNL     1      -0.051   1.409  26.122  0.00  0.00    +0.111 C 
ATOM     11  C   UNL     1      -0.104   1.650  24.625  0.00  0.00    +0.164 C 
ATOM     12  C   UNL     1      -0.033   3.171  24.570  0.00  0.00    +0.164 C 
ATOM     15  C   UNL     1      -0.913   2.548  26.642  0.00  0.00    +0.181 C 
ENDROOT
BRANCH  11   3
ATOM      3  O   UNL     1       0.973   1.048  23.936  0.00  0.00    -0.388 OA
ATOM     27  H   UNL     1       1.175   1.587  23.152  0.00  0.00    +0.210 HD
ENDBRANCH  11   3
BRANCH   9   6
ATOM      6  N   UNL     1      -0.543   0.100  26.519  0.00  0.00    -0.306 NA
ATOM     26  H   UNL     1      -1.048   0.167  27.401  0.00  0.00    +0.123 HD
BRANCH   6  10
ATOM      7  N   UNL     1      -3.291  -2.535  24.630  0.00  0.00    -0.305 NA
ATOM     10  C   UNL     1      -1.412  -0.462  25.488  0.00  0.00    +0.056 C 
ATOM     13  C   UNL     1      -2.860  -0.507  25.982  0.00  0.00    +0.034 C 
ATOM     14  C   UNL     1      -0.952  -1.867  25.090  0.00  0.00    +0.034 C 
ATOM     16  C   UNL     1      -3.770  -1.185  24.954  0.00  0.00    +0.085 C 
ATOM     17  C   UNL     1      -1.924  -2.501  24.091  0.00  0.00    +0.085 C 
ATOM     19  C   UNL     1      -4.197  -3.188  23.686  0.00  0.00    +0.104 C 
ENDBRANCH   6  10
ENDBRANCH   9   6
BRANCH  12  18
ATOM     18  C   UNL     1      -0.645   3.756  23.310  0.00  0.00    +0.140 C 
BRANCH  18   8
ATOM      8  N   UNL     1      -2.095   3.950  23.506  0.00  0.00    -0.187 NA
ATOM     28  H   UNL     1      -2.363   4.493  24.337  0.00  0.00    +0.148 HD
BRANCH   8   1
ATOM      1  S   UNL     1      -3.199   2.810  22.894  0.00  0.00    +0.058 S 
ATOM      4  O   UNL     1      -2.528   1.535  22.727  0.00  0.00    -0.153 OA
ATOM      5  O   UNL     1      -3.923   3.403  21.786  0.00  0.00    -0.153 OA
BRANCH   1  20
ATOM     20  C   UNL     1      -4.340   2.654  24.234  0.00  0.00    +0.105 A 
ATOM     21  C   UNL     1      -5.303   1.646  24.216  0.00  0.00    +0.028 A 
ATOM     22  C   UNL     1      -4.281   3.543  25.308  0.00  0.00    +0.028 A 
ATOM     23  C   UNL     1      -6.207   1.525  25.271  0.00  0.00    +0.002 A 
ATOM     24  C   UNL     1      -5.184   3.422  26.363  0.00  0.00    +0.002 A 
ATOM     25  C   UNL     1      -6.148   2.413  26.345  0.00  0.00    +0.000 A 
ENDBRANCH   1  20
ENDBRANCH   8   1
ENDBRANCH  18   8
ENDBRANCH  12  18
TORSDOF 7
ENDMDL
MODEL 10
REMARK VINA RESULT:      -2.2      1.817      2.299
REMARK  Name = 75536830
REMARK  8 active torsions:
REMARK  status: ('A' for Active; 'I' for Inactive)
REMARK    1  A    between atoms: S_1  and  N_8
REMARK    2  A    between atoms: S_1  and  C_20
REMARK    3  A    between atoms: O_3  and  C_11
REMARK    4  A    between atoms: N_6  and  C_9
REMARK    5  A    between atoms: N_6  and  C_10
REMARK    6  A    between atoms: N_7  and  C_19
REMARK    7  A    between atoms: N_8  and  C_18
REMARK    8  A    between atoms: C_12  and  C_18
REMARK                            x       y       z     vdW  Elec       q    Type
REMARK                         _______ _______ _______ _____ _____    ______ ____
ROOT
ATOM      2  O   UNL     1      -1.466   0.078  25.359  0.00  0.00    -0.371 OA
ATOM      9  C   UNL     1       0.466   0.048  23.976  0.00  0.00    +0.111 C 
ATOM     11  C   UNL     1       0.113   1.488  24.304  0.00  0.00    +0.164 C 
ATOM     12  C   UNL     1      -0.741   1.303  25.552  0.00  0.00    +0.164 C 
ATOM     15  C   UNL     1      -0.841  -0.661  24.294  0.00  0.00    +0.181 C 
ENDROOT
BRANCH  11   3
ATOM      3  O   UNL     1       1.253   2.284  24.560  0.00  0.00    -0.388 OA
ATOM     27  H   UNL     1       1.001   2.991  25.177  0.00  0.00    +0.210 HD
ENDBRANCH  11   3
BRANCH   9   6
ATOM      6  N   UNL     1       0.896  -0.148  22.602  0.00  0.00    -0.306 NA
ATOM     26  H   UNL     1       0.641   0.659  22.035  0.00  0.00    +0.123 HD
BRANCH   6  10
ATOM      7  N   UNL     1       4.985  -0.111  23.762  0.00  0.00    -0.305 NA
ATOM     10  C   UNL     1       2.340  -0.367  22.537  0.00  0.00    +0.056 C 
ATOM     13  C   UNL     1       2.793  -1.258  23.696  0.00  0.00    +0.034 C 
ATOM     14  C   UNL     1       3.098   0.963  22.574  0.00  0.00    +0.034 C 
ATOM     16  C   UNL     1       4.316  -1.418  23.704  0.00  0.00    +0.085 C 
ATOM     17  C   UNL     1       4.611   0.731  22.618  0.00  0.00    +0.085 C 
ATOM     19  C   UNL     1       6.437  -0.281  23.820  0.00  0.00    +0.104 C 
ENDBRANCH   6  10
ENDBRANCH   9   6
BRANCH  12  18
ATOM     18  C   UNL     1      -1.715   2.444  25.786  0.00  0.00    +0.140 C 
BRANCH  18   8
ATOM      8  N   UNL     1      -1.767   3.305  24.588  0.00  0.00    -0.187 NA
ATOM     28  H   UNL     1      -1.243   4.187  24.651  0.00  0.00    +0.148 HD
BRANCH   8   1
ATOM      1  S   UNL     1      -3.106   3.232  23.542  0.00  0.00    +0.058 S 
ATOM      4  O   UNL     1      -2.811   2.326  22.448  0.00  0.00    -0.153 OA
ATOM      5  O   UNL     1      -3.565   4.580  23.269  0.00  0.00    -0.153 OA
BRANCH   1  20
ATOM     20  C   UNL     1      -4.326   2.468  24.568  0.00  0.00    +0.105 A 
ATOM     21  C   UNL     1      -4.493   1.084  24.539  0.00  0.00    +0.028 A 
ATOM     22  C   UNL     1      -5.124   3.250  25.403  0.00  0.00    +0.028 A 
ATOM     23  C   UNL     1      -5.460   0.482  25.345  0.00  0.00    +0.002 A 
ATOM     24  C   UNL     1      -6.089   2.648  26.209  0.00  0.00    +0.002 A 
ATOM     25  C   UNL     1      -6.257   1.263  26.180  0.00  0.00    +0.000 A 
ENDBRANCH   1  20
ENDBRANCH   8   1
ENDBRANCH  18   8
ENDBRANCH  12  18
TORSDOF 7
ENDMDL
