MODEL 1
REMARK VINA RESULT:      -5.5      0.000      0.000
REMARK  Name = 75536885
REMARK  5 active torsions:
REMARK  status: ('A' for Active; 'I' for Inactive)
REMARK    1  A    between atoms: O_2  and  C_8
REMARK    2  A    between atoms: O_2  and  C_16
REMARK    3  A    between atoms: N_5  and  C_17
REMARK    4  A    between atoms: C_12  and  C_13
REMARK    5  A    between atoms: C_15  and  C_18
REMARK                            x       y       z     vdW  Elec       q    Type
REMARK                         _______ _______ _______ _____ _____    ______ ____
ROOT
ATOM      1  O   UNL     1      -1.988   4.952  25.751  0.00  0.00    -0.376 OA
ATOM      3  O   UNL     1      -0.309   0.927  23.679  0.00  0.00    -0.268 OA
ATOM      4  N   UNL     1      -2.162   2.305  24.082  0.00  0.00    -0.292 N 
ATOM      7  C   UNL     1      -3.574   2.425  24.464  0.00  0.00    +0.142 C 
ATOM      8  C   UNL     1      -4.008   3.757  25.081  0.00  0.00    +0.161 C 
ATOM      9  C   UNL     1      -1.399   3.531  23.846  0.00  0.00    +0.136 C 
ATOM     10  C   UNL     1      -3.107   4.210  26.228  0.00  0.00    +0.193 C 
ATOM     11  C   UNL     1      -0.959   4.165  25.160  0.00  0.00    +0.179 C 
ATOM     12  C   UNL     1      -1.497   1.073  23.966  0.00  0.00    +0.265 C 
ENDROOT
BRANCH  12  13
ATOM      5  N   UNL     1      -2.095  -1.008  25.257  0.00  0.00    -0.262 N 
ATOM      6  N   UNL     1      -2.924  -2.066  25.242  0.00  0.00    -0.176 NA
ATOM     13  C   UNL     1      -2.264  -0.160  24.203  0.00  0.00    +0.123 A 
ATOM     14  C   UNL     1      -3.274  -0.701  23.444  0.00  0.00    +0.057 A 
ATOM     15  C   UNL     1      -3.641  -1.872  24.133  0.00  0.00    +0.061 A 
ATOM     17  C   UNL     1      -1.144  -0.870  26.336  0.00  0.00    +0.173 C 
ATOM     18  C   UNL     1      -4.684  -2.843  23.759  0.00  0.00    +0.067 C 
ENDBRANCH  12  13
BRANCH   8   2
ATOM      2  O   UNL     1      -5.334   3.567  25.579  0.00  0.00    -0.376 OA
ATOM     16  C   UNL     1      -5.754   2.221  25.421  0.00  0.00    +0.194 C 
ENDBRANCH   8   2
TORSDOF 2
ENDMDL
MODEL 2
REMARK VINA RESULT:      -5.1      1.989      5.814
REMARK  Name = 75536885
REMARK  5 active torsions:
REMARK  status: ('A' for Active; 'I' for Inactive)
REMARK    1  A    between atoms: O_2  and  C_8
REMARK    2  A    between atoms: O_2  and  C_16
REMARK    3  A    between atoms: N_5  and  C_17
REMARK    4  A    between atoms: C_12  and  C_13
REMARK    5  A    between atoms: C_15  and  C_18
REMARK                            x       y       z     vdW  Elec       q    Type
REMARK                         _______ _______ _______ _____ _____    ______ ____
ROOT
ATOM      1  O   UNL     1      -2.302  -2.827  24.959  0.00  0.00    -0.376 OA
ATOM      3  O   UNL     1      -5.296   0.959  24.870  0.00  0.00    -0.268 OA
ATOM      4  N   UNL     1      -3.266   0.041  24.142  0.00  0.00    -0.292 N 
ATOM      7  C   UNL     1      -1.827   0.210  23.909  0.00  0.00    +0.142 C 
ATOM      8  C   UNL     1      -0.974  -1.062  23.924  0.00  0.00    +0.161 C 
ATOM      9  C   UNL     1      -3.862  -1.272  23.890  0.00  0.00    +0.136 C 
ATOM     10  C   UNL     1      -1.214  -1.931  25.156  0.00  0.00    +0.193 C 
ATOM     11  C   UNL     1      -3.591  -2.228  25.045  0.00  0.00    +0.179 C 
ATOM     12  C   UNL     1      -4.094   1.065  24.630  0.00  0.00    +0.265 C 
ENDROOT
BRANCH  12  13
ATOM      5  N   UNL     1      -4.153   3.472  25.380  0.00  0.00    -0.262 N 
ATOM      6  N   UNL     1      -3.378   4.560  25.519  0.00  0.00    -0.176 NA
ATOM     13  C   UNL     1      -3.495   2.386  24.883  0.00  0.00    +0.123 A 
ATOM     14  C   UNL     1      -2.198   2.792  24.683  0.00  0.00    +0.057 A 
ATOM     15  C   UNL     1      -2.185   4.139  25.092  0.00  0.00    +0.061 A 
ATOM     17  C   UNL     1      -5.548   3.545  25.751  0.00  0.00    +0.173 C 
ATOM     18  C   UNL     1      -1.041   5.066  25.090  0.00  0.00    +0.067 C 
ENDBRANCH  12  13
BRANCH   8   2
ATOM      2  O   UNL     1       0.391  -0.641  23.910  0.00  0.00    -0.376 OA
ATOM     16  C   UNL     1       0.504   0.726  23.544  0.00  0.00    +0.194 C 
ENDBRANCH   8   2
TORSDOF 2
ENDMDL
MODEL 3
REMARK VINA RESULT:      -4.9      2.077      4.679
REMARK  Name = 75536885
REMARK  5 active torsions:
REMARK  status: ('A' for Active; 'I' for Inactive)
REMARK    1  A    between atoms: O_2  and  C_8
REMARK    2  A    between atoms: O_2  and  C_16
REMARK    3  A    between atoms: N_5  and  C_17
REMARK    4  A    between atoms: C_12  and  C_13
REMARK    5  A    between atoms: C_15  and  C_18
REMARK                            x       y       z     vdW  Elec       q    Type
REMARK                         _______ _______ _______ _____ _____    ______ ____
ROOT
ATOM      1  O   UNL     1       0.920  -0.431  23.366  0.00  0.00    -0.376 OA
ATOM      3  O   UNL     1      -1.269   3.789  24.209  0.00  0.00    -0.268 OA
ATOM      4  N   UNL     1      -0.945   1.570  24.895  0.00  0.00    -0.292 N 
ATOM      7  C   UNL     1      -1.525   0.310  25.372  0.00  0.00    +0.142 C 
ATOM      8  C   UNL     1      -0.731  -0.966  25.081  0.00  0.00    +0.161 C 
ATOM      9  C   UNL     1       0.494   1.619  24.634  0.00  0.00    +0.136 C 
ATOM     10  C   UNL     1      -0.315  -1.094  23.617  0.00  0.00    +0.193 C 
ATOM     11  C   UNL     1       0.830   0.988  23.289  0.00  0.00    +0.179 C 
ATOM     12  C   UNL     1      -1.708   2.722  24.640  0.00  0.00    +0.265 C 
ENDROOT
BRANCH  12  13
ATOM      5  N   UNL     1      -3.823   3.447  25.804  0.00  0.00    -0.262 N 
ATOM      6  N   UNL     1      -5.145   3.209  25.851  0.00  0.00    -0.176 NA
ATOM     13  C   UNL     1      -3.155   2.674  24.901  0.00  0.00    +0.123 A 
ATOM     14  C   UNL     1      -4.106   1.873  24.316  0.00  0.00    +0.057 A 
ATOM     15  C   UNL     1      -5.311   2.246  24.940  0.00  0.00    +0.061 A 
ATOM     17  C   UNL     1      -3.255   4.453  26.673  0.00  0.00    +0.173 C 
ATOM     18  C   UNL     1      -6.657   1.702  24.691  0.00  0.00    +0.067 C 
ENDBRANCH  12  13
BRANCH   8   2
ATOM      2  O   UNL     1      -1.578  -2.065  25.422  0.00  0.00    -0.376 OA
ATOM     16  C   UNL     1      -2.781  -2.038  24.670  0.00  0.00    +0.194 C 
ENDBRANCH   8   2
TORSDOF 2
ENDMDL
MODEL 4
REMARK VINA RESULT:      -4.8      1.480      1.707
REMARK  Name = 75536885
REMARK  5 active torsions:
REMARK  status: ('A' for Active; 'I' for Inactive)
REMARK    1  A    between atoms: O_2  and  C_8
REMARK    2  A    between atoms: O_2  and  C_16
REMARK    3  A    between atoms: N_5  and  C_17
REMARK    4  A    between atoms: C_12  and  C_13
REMARK    5  A    between atoms: C_15  and  C_18
REMARK                            x       y       z     vdW  Elec       q    Type
REMARK                         _______ _______ _______ _____ _____    ______ ____
ROOT
ATOM      1  O   UNL     1      -3.745   4.665  26.224  0.00  0.00    -0.376 OA
ATOM      3  O   UNL     1       0.004   1.723  25.447  0.00  0.00    -0.268 OA
ATOM      4  N   UNL     1      -2.131   2.409  24.764  0.00  0.00    -0.292 N 
ATOM      7  C   UNL     1      -3.482   2.045  24.322  0.00  0.00    +0.142 C 
ATOM      8  C   UNL     1      -4.592   3.066  24.587  0.00  0.00    +0.161 C 
ATOM      9  C   UNL     1      -1.823   3.826  24.960  0.00  0.00    +0.136 C 
ATOM     10  C   UNL     1      -4.621   3.559  26.032  0.00  0.00    +0.193 C 
ATOM     11  C   UNL     1      -2.364   4.326  26.294  0.00  0.00    +0.179 C 
ATOM     12  C   UNL     1      -1.131   1.465  25.044  0.00  0.00    +0.265 C 
ENDROOT
BRANCH  12  13
ATOM      5  N   UNL     1      -0.689  -0.842  24.127  0.00  0.00    -0.262 N 
ATOM      6  N   UNL     1      -1.190  -2.089  24.102  0.00  0.00    -0.176 NA
ATOM     13  C   UNL     1      -1.440   0.039  24.847  0.00  0.00    +0.123 A 
ATOM     14  C   UNL     1      -2.509  -0.681  25.326  0.00  0.00    +0.057 A 
ATOM     15  C   UNL     1      -2.302  -1.983  24.835  0.00  0.00    +0.061 A 
ATOM     17  C   UNL     1       0.541  -0.561  23.424  0.00  0.00    +0.173 C 
ATOM     18  C   UNL     1      -3.152  -3.167  25.048  0.00  0.00    +0.067 C 
ENDBRANCH  12  13
BRANCH   8   2
ATOM      2  O   UNL     1      -5.829   2.415  24.292  0.00  0.00    -0.376 OA
ATOM     16  C   UNL     1      -6.281   1.646  25.395  0.00  0.00    +0.194 C 
ENDBRANCH   8   2
TORSDOF 2
ENDMDL
MODEL 5
REMARK VINA RESULT:      -4.3     16.764     18.986
REMARK  Name = 75536885
REMARK  5 active torsions:
REMARK  status: ('A' for Active; 'I' for Inactive)
REMARK    1  A    between atoms: O_2  and  C_8
REMARK    2  A    between atoms: O_2  and  C_16
REMARK    3  A    between atoms: N_5  and  C_17
REMARK    4  A    between atoms: C_12  and  C_13
REMARK    5  A    between atoms: C_15  and  C_18
REMARK                            x       y       z     vdW  Elec       q    Type
REMARK                         _______ _______ _______ _____ _____    ______ ____
ROOT
ATOM      1  O   UNL     1      10.052   8.408  19.563  0.00  0.00    -0.376 OA
ATOM      3  O   UNL     1      13.882   7.631  22.398  0.00  0.00    -0.268 OA
ATOM      4  N   UNL     1      13.060   8.589  20.422  0.00  0.00    -0.292 N 
ATOM      7  C   UNL     1      13.221   8.823  18.983  0.00  0.00    +0.142 C 
ATOM      8  C   UNL     1      11.943   9.094  18.183  0.00  0.00    +0.161 C 
ATOM      9  C   UNL     1      11.851   9.089  21.078  0.00  0.00    +0.136 C 
ATOM     10  C   UNL     1      10.848   8.061  18.435  0.00  0.00    +0.193 C 
ATOM     11  C   UNL     1      10.667   8.164  20.824  0.00  0.00    +0.179 C 
ATOM     12  C   UNL     1      13.991   7.877  21.197  0.00  0.00    +0.265 C 
ENDROOT
BRANCH  12  13
ATOM      5  N   UNL     1      16.465   7.874  20.709  0.00  0.00    -0.262 N 
ATOM      6  N   UNL     1      17.405   7.235  19.993  0.00  0.00    -0.176 NA
ATOM     13  C   UNL     1      15.208   7.374  20.539  0.00  0.00    +0.123 A 
ATOM     14  C   UNL     1      15.334   6.335  19.648  0.00  0.00    +0.057 A 
ATOM     15  C   UNL     1      16.708   6.297  19.347  0.00  0.00    +0.061 A 
ATOM     17  C   UNL     1      16.851   8.980  21.555  0.00  0.00    +0.173 C 
ATOM     18  C   UNL     1      17.402   5.369  18.437  0.00  0.00    +0.067 C 
ENDBRANCH  12  13
BRANCH   8   2
ATOM      2  O   UNL     1      12.308   9.060  16.802  0.00  0.00    -0.376 OA
ATOM     16  C   UNL     1      11.161   9.081  15.968  0.00  0.00    +0.194 C 
ENDBRANCH   8   2
TORSDOF 2
ENDMDL
MODEL 6
REMARK VINA RESULT:      -3.8      2.299      5.200
REMARK  Name = 75536885
REMARK  5 active torsions:
REMARK  status: ('A' for Active; 'I' for Inactive)
REMARK    1  A    between atoms: O_2  and  C_8
REMARK    2  A    between atoms: O_2  and  C_16
REMARK    3  A    between atoms: N_5  and  C_17
REMARK    4  A    between atoms: C_12  and  C_13
REMARK    5  A    between atoms: C_15  and  C_18
REMARK                            x       y       z     vdW  Elec       q    Type
REMARK                         _______ _______ _______ _____ _____    ______ ____
ROOT
ATOM      1  O   UNL     1      -2.704  -2.951  24.288  0.00  0.00    -0.376 OA
ATOM      3  O   UNL     1       0.788   0.363  23.923  0.00  0.00    -0.268 OA
ATOM      4  N   UNL     1      -1.176  -0.311  25.010  0.00  0.00    -0.292 N 
ATOM      7  C   UNL     1      -2.499   0.041  25.539  0.00  0.00    +0.142 C 
ATOM      8  C   UNL     1      -3.521  -1.095  25.644  0.00  0.00    +0.161 C 
ATOM      9  C   UNL     1      -0.749  -1.709  25.081  0.00  0.00    +0.136 C 
ATOM     10  C   UNL     1      -3.661  -1.898  24.354  0.00  0.00    +0.193 C 
ATOM     11  C   UNL     1      -1.381  -2.533  23.966  0.00  0.00    +0.179 C 
ATOM     12  C   UNL     1      -0.314   0.619  24.407  0.00  0.00    +0.265 C 
ENDROOT
BRANCH  12  13
ATOM      5  N   UNL     1      -1.703   2.520  23.502  0.00  0.00    -0.262 N 
ATOM      6  N   UNL     1      -1.909   3.841  23.634  0.00  0.00    -0.176 NA
ATOM     13  C   UNL     1      -0.744   2.025  24.336  0.00  0.00    +0.123 A 
ATOM     14  C   UNL     1      -0.290   3.099  25.065  0.00  0.00    +0.057 A 
ATOM     15  C   UNL     1      -1.044   4.189  24.591  0.00  0.00    +0.061 A 
ATOM     17  C   UNL     1      -2.478   1.777  22.536  0.00  0.00    +0.173 C 
ATOM     18  C   UNL     1      -0.965   5.592  25.029  0.00  0.00    +0.067 C 
ENDBRANCH  12  13
BRANCH   8   2
ATOM      2  O   UNL     1      -4.778  -0.489  25.954  0.00  0.00    -0.376 OA
ATOM     16  C   UNL     1      -4.925   0.757  25.291  0.00  0.00    +0.194 C 
ENDBRANCH   8   2
TORSDOF 2
ENDMDL
MODEL 7
REMARK VINA RESULT:      -3.6      2.093      5.137
REMARK  Name = 75536885
REMARK  5 active torsions:
REMARK  status: ('A' for Active; 'I' for Inactive)
REMARK    1  A    between atoms: O_2  and  C_8
REMARK    2  A    between atoms: O_2  and  C_16
REMARK    3  A    between atoms: N_5  and  C_17
REMARK    4  A    between atoms: C_12  and  C_13
REMARK    5  A    between atoms: C_15  and  C_18
REMARK                            x       y       z     vdW  Elec       q    Type
REMARK                         _______ _______ _______ _____ _____    ______ ____
ROOT
ATOM      1  O   UNL     1      -0.717  -2.461  24.447  0.00  0.00    -0.376 OA
ATOM      3  O   UNL     1      -0.485   2.272  25.374  0.00  0.00    -0.268 OA
ATOM      4  N   UNL     1      -1.716   0.287  25.577  0.00  0.00    -0.292 N 
ATOM      7  C   UNL     1      -3.008  -0.400  25.478  0.00  0.00    +0.142 C 
ATOM      8  C   UNL     1      -2.966  -1.909  25.216  0.00  0.00    +0.161 C 
ATOM      9  C   UNL     1      -0.530  -0.505  25.908  0.00  0.00    +0.136 C 
ATOM     10  C   UNL     1      -2.070  -2.289  24.039  0.00  0.00    +0.193 C 
ATOM     11  C   UNL     1      -0.008  -1.249  24.685  0.00  0.00    +0.179 C 
ATOM     12  C   UNL     1      -1.553   1.661  25.334  0.00  0.00    +0.265 C 
ENDROOT
BRANCH  12  13
ATOM      5  N   UNL     1      -3.243   2.651  23.746  0.00  0.00    -0.262 N 
ATOM      6  N   UNL     1      -4.344   3.420  23.711  0.00  0.00    -0.176 NA
ATOM     13  C   UNL     1      -2.744   2.457  25.000  0.00  0.00    +0.123 A 
ATOM     14  C   UNL     1      -3.578   3.149  25.846  0.00  0.00    +0.057 A 
ATOM     15  C   UNL     1      -4.543   3.721  24.997  0.00  0.00    +0.061 A 
ATOM     17  C   UNL     1      -2.710   2.123  22.511  0.00  0.00    +0.173 C 
ATOM     18  C   UNL     1      -5.684   4.571  25.380  0.00  0.00    +0.067 C 
ENDBRANCH  12  13
BRANCH   8   2
ATOM      2  O   UNL     1      -4.306  -2.314  24.930  0.00  0.00    -0.376 OA
ATOM     16  C   UNL     1      -4.497  -2.515  23.539  0.00  0.00    +0.194 C 
ENDBRANCH   8   2
TORSDOF 2
ENDMDL
MODEL 8
REMARK VINA RESULT:      -2.9     18.960     20.859
REMARK  Name = 75536885
REMARK  5 active torsions:
REMARK  status: ('A' for Active; 'I' for Inactive)
REMARK    1  A    between atoms: O_2  and  C_8
REMARK    2  A    between atoms: O_2  and  C_16
REMARK    3  A    between atoms: N_5  and  C_17
REMARK    4  A    between atoms: C_12  and  C_13
REMARK    5  A    between atoms: C_15  and  C_18
REMARK                            x       y       z     vdW  Elec       q    Type
REMARK                         _______ _______ _______ _____ _____    ______ ____
ROOT
ATOM      1  O   UNL     1      16.575  -7.253  25.479  0.00  0.00    -0.376 OA
ATOM      3  O   UNL     1      16.056  -5.127  29.783  0.00  0.00    -0.268 OA
ATOM      4  N   UNL     1      16.209  -7.140  28.590  0.00  0.00    -0.292 N 
ATOM      7  C   UNL     1      15.702  -8.495  28.352  0.00  0.00    +0.142 C 
ATOM      8  C   UNL     1      15.951  -9.088  26.961  0.00  0.00    +0.161 C 
ATOM      9  C   UNL     1      17.291  -6.642  27.739  0.00  0.00    +0.136 C 
ATOM     10  C   UNL     1      15.530  -8.156  25.827  0.00  0.00    +0.193 C 
ATOM     11  C   UNL     1      16.758  -6.174  26.391  0.00  0.00    +0.179 C 
ATOM     12  C   UNL     1      15.683  -6.281  29.570  0.00  0.00    +0.265 C 
ENDROOT
BRANCH  12  13
ATOM      5  N   UNL     1      14.757  -7.480  31.585  0.00  0.00    -0.262 N 
ATOM      6  N   UNL     1      13.601  -7.821  32.180  0.00  0.00    -0.176 NA
ATOM     13  C   UNL     1      14.595  -6.781  30.426  0.00  0.00    +0.123 A 
ATOM     14  C   UNL     1      13.238  -6.656  30.248  0.00  0.00    +0.057 A 
ATOM     15  C   UNL     1      12.678  -7.315  31.358  0.00  0.00    +0.061 A 
ATOM     17  C   UNL     1      16.007  -7.866  32.197  0.00  0.00    +0.173 C 
ATOM     18  C   UNL     1      11.249  -7.485  31.673  0.00  0.00    +0.067 C 
ENDBRANCH  12  13
BRANCH   8   2
ATOM      2  O   UNL     1      15.185 -10.291  26.884  0.00  0.00    -0.376 OA
ATOM     16  C   UNL     1      14.781 -10.559  25.550  0.00  0.00    +0.194 C 
ENDBRANCH   8   2
TORSDOF 2
ENDMDL
MODEL 9
REMARK VINA RESULT:      -2.6      2.300      3.013
REMARK  Name = 75536885
REMARK  5 active torsions:
REMARK  status: ('A' for Active; 'I' for Inactive)
REMARK    1  A    between atoms: O_2  and  C_8
REMARK    2  A    between atoms: O_2  and  C_16
REMARK    3  A    between atoms: N_5  and  C_17
REMARK    4  A    between atoms: C_12  and  C_13
REMARK    5  A    between atoms: C_15  and  C_18
REMARK                            x       y       z     vdW  Elec       q    Type
REMARK                         _______ _______ _______ _____ _____    ______ ____
ROOT
ATOM      1  O   UNL     1      -4.280   4.044  26.676  0.00  0.00    -0.376 OA
ATOM      3  O   UNL     1       0.424   3.192  26.000  0.00  0.00    -0.268 OA
ATOM      4  N   UNL     1      -1.712   3.305  25.039  0.00  0.00    -0.292 N 
ATOM      7  C   UNL     1      -2.721   2.709  24.157  0.00  0.00    +0.142 C 
ATOM      8  C   UNL     1      -4.182   3.073  24.439  0.00  0.00    +0.161 C 
ATOM      9  C   UNL     1      -2.058   4.526  25.768  0.00  0.00    +0.136 C 
ATOM     10  C   UNL     1      -4.576   2.885  25.903  0.00  0.00    +0.193 C 
ATOM     11  C   UNL     1      -2.903   4.210  26.996  0.00  0.00    +0.179 C 
ATOM     12  C   UNL     1      -0.441   2.744  25.247  0.00  0.00    +0.265 C 
ENDROOT
BRANCH  12  13
ATOM      5  N   UNL     1      -0.531   0.261  24.817  0.00  0.00    -0.262 N 
ATOM      6  N   UNL     1      -0.065  -0.691  23.991  0.00  0.00    -0.176 NA
ATOM     13  C   UNL     1      -0.092   1.516  24.514  0.00  0.00    +0.123 A 
ATOM     14  C   UNL     1       0.718   1.375  23.413  0.00  0.00    +0.057 A 
ATOM     15  C   UNL     1       0.696  -0.004  23.135  0.00  0.00    +0.061 A 
ATOM     17  C   UNL     1      -1.412  -0.112  25.899  0.00  0.00    +0.173 C 
ATOM     18  C   UNL     1       1.398  -0.712  22.051  0.00  0.00    +0.067 C 
ENDBRANCH  12  13
BRANCH   8   2
ATOM      2  O   UNL     1      -4.984   2.214  23.627  0.00  0.00    -0.376 OA
ATOM     16  C   UNL     1      -5.938   1.512  24.408  0.00  0.00    +0.194 C 
ENDBRANCH   8   2
TORSDOF 2
ENDMDL
MODEL 10
REMARK VINA RESULT:      -2.2      1.893      2.384
REMARK  Name = 75536885
REMARK  5 active torsions:
REMARK  status: ('A' for Active; 'I' for Inactive)
REMARK    1  A    between atoms: O_2  and  C_8
REMARK    2  A    between atoms: O_2  and  C_16
REMARK    3  A    between atoms: N_5  and  C_17
REMARK    4  A    between atoms: C_12  and  C_13
REMARK    5  A    between atoms: C_15  and  C_18
REMARK                            x       y       z     vdW  Elec       q    Type
REMARK                         _______ _______ _______ _____ _____    ______ ____
ROOT
ATOM      1  O   UNL     1      -1.004   3.978  25.543  0.00  0.00    -0.376 OA
ATOM      3  O   UNL     1      -0.754  -0.734  26.566  0.00  0.00    -0.268 OA
ATOM      4  N   UNL     1      -1.058   0.908  24.919  0.00  0.00    -0.292 N 
ATOM      7  C   UNL     1      -1.810   1.388  23.755  0.00  0.00    +0.142 C 
ATOM      8  C   UNL     1      -1.795   2.899  23.503  0.00  0.00    +0.161 C 
ATOM      9  C   UNL     1       0.010   1.752  25.455  0.00  0.00    +0.136 C 
ATOM     10  C   UNL     1      -2.151   3.718  24.741  0.00  0.00    +0.193 C 
ATOM     11  C   UNL     1      -0.556   2.872  26.319  0.00  0.00    +0.179 C 
ATOM     12  C   UNL     1      -1.337  -0.306  25.569  0.00  0.00    +0.265 C 
ENDROOT
BRANCH  12  13
ATOM      5  N   UNL     1      -3.734  -0.825  24.981  0.00  0.00    -0.262 N 
ATOM      6  N   UNL     1      -4.512  -1.777  24.441  0.00  0.00    -0.176 NA
ATOM     13  C   UNL     1      -2.412  -1.156  25.031  0.00  0.00    +0.123 A 
ATOM     14  C   UNL     1      -2.319  -2.414  24.486  0.00  0.00    +0.057 A 
ATOM     15  C   UNL     1      -3.642  -2.745  24.140  0.00  0.00    +0.061 A 
ATOM     17  C   UNL     1      -4.337   0.406  25.438  0.00  0.00    +0.173 C 
ATOM     18  C   UNL     1      -4.122  -3.990  23.516  0.00  0.00    +0.067 C 
ENDBRANCH  12  13
BRANCH   8   2
ATOM      2  O   UNL     1      -2.760   3.155  22.481  0.00  0.00    -0.376 OA
ATOM     16  C   UNL     1      -4.082   3.074  22.991  0.00  0.00    +0.194 C 
ENDBRANCH   8   2
TORSDOF 2
ENDMDL
