MODEL 1
REMARK VINA RESULT:      -5.1      0.000      0.000
REMARK  Name = 38030234
REMARK  13 active torsions:
REMARK  status: ('A' for Active; 'I' for Inactive)
REMARK    1  A    between atoms: N_3  and  C_14
REMARK    2  A    between atoms: N_3  and  C_20
REMARK    3  A    between atoms: N_6  and  C_21
REMARK    4  A    between atoms: C_7  and  C_11
REMARK    5  A    between atoms: C_8  and  C_14
REMARK    6  A    between atoms: C_10  and  C_15
REMARK    7  A    between atoms: C_11  and  C_16
REMARK    8  A    between atoms: C_11  and  C_17
REMARK    9  A    between atoms: C_12  and  C_18
REMARK   10  A    between atoms: C_15  and  C_19
REMARK   11  A    between atoms: C_20  and  C_21
REMARK   12  A    between atoms: C_22  and  C_23
REMARK   13  A    between atoms: C_24  and  C_27
REMARK                            x       y       z     vdW  Elec       q    Type
REMARK                         _______ _______ _______ _____ _____    ______ ____
ROOT
ATOM      7  C   UNL     1      -2.071   3.646  25.848  0.00  0.00    +0.000 C 
ATOM      8  C   UNL     1      -3.461   3.853  25.201  0.00  0.00    +0.029 C 
ATOM      9  C   UNL     1      -1.549   2.231  25.562  0.00  0.00    +0.012 C 
ATOM     10  C   UNL     1      -1.469   1.902  24.056  0.00  0.00    +0.024 C 
ATOM     12  C   UNL     1      -2.647   2.449  23.263  0.00  0.00    -0.073 C 
ATOM     13  C   UNL     1      -3.532   3.310  23.797  0.00  0.00    -0.023 C 
ATOM     18  C   UNL     1      -2.765   2.038  21.821  0.00  0.00    +0.039 C 
ENDROOT
BRANCH   7  11
ATOM     11  C   UNL     1      -1.072   4.712  25.378  0.00  0.00    -0.013 C 
ATOM     16  C   UNL     1      -1.811   5.934  24.841  0.00  0.00    +0.007 C 
ATOM     17  C   UNL     1      -0.138   4.136  24.318  0.00  0.00    +0.007 C 
ENDBRANCH   7  11
BRANCH   8  14
ATOM     14  C   UNL     1      -4.576   3.222  26.043  0.00  0.00    +0.088 C 
BRANCH  14   3
ATOM      3  N   UNL     1      -5.770   3.072  25.272  0.00  0.00    -0.314 NA
ATOM     31  H   UNL     1      -5.716   3.632  24.422  0.00  0.00    +0.122 HD
BRANCH   3  20
ATOM     20  C   UNL     1      -6.026   1.671  24.921  0.00  0.00    +0.099 C 
BRANCH  20  21
ATOM     21  C   UNL     1      -4.927   0.777  25.474  0.00  0.00    +0.119 C 
BRANCH  21   6
ATOM      2  O   UNL     1      -3.388  -1.610  26.074  0.00  0.00    -0.276 OA
ATOM      6  N   UNL     1      -4.687  -0.347  24.611  0.00  0.00    -0.314 N 
ATOM     24  C   UNL     1      -3.934  -1.452  24.985  0.00  0.00    +0.210 C 
ATOM     27  C   UNL     1      -3.861  -2.495  23.902  0.00  0.00    +0.109 C 
ATOM     32  H   UNL     1      -5.108  -0.331  23.686  0.00  0.00    +0.149 HD
ENDBRANCH  21   6
ENDBRANCH  20  21
ENDBRANCH   3  20
ENDBRANCH  14   3
ENDBRANCH   8  14
BRANCH  10  15
ATOM     15  C   UNL     1      -1.294   0.387  23.895  0.00  0.00    +0.105 C 
BRANCH  15  19
ATOM      1  O   UNL     1       1.131   0.127  23.782  0.00  0.00    -0.420 OA
ATOM      4  N   UNL     1       0.074  -0.293  21.856  0.00  0.00    -0.112 NA
ATOM      5  N   UNL     1       1.429  -0.478  21.650  0.00  0.00    -0.107 NA
ATOM     19  C   UNL     1      -0.053   0.058  23.114  0.00  0.00    +0.218 A 
ATOM     22  C   UNL     1       2.006  -0.221  22.801  0.00  0.00    +0.248 A 
BRANCH  22  23
ATOM     23  C   UNL     1       3.389  -0.251  23.175  0.00  0.00    +0.038 A 
ATOM     25  C   UNL     1       4.187   0.880  22.990  0.00  0.00    +0.013 A 
ATOM     26  C   UNL     1       3.940  -1.409  23.723  0.00  0.00    +0.013 A 
ATOM     28  C   UNL     1       5.532   0.851  23.354  0.00  0.00    +0.001 A 
ATOM     29  C   UNL     1       5.286  -1.438  24.088  0.00  0.00    +0.001 A 
ATOM     30  C   UNL     1       6.082  -0.308  23.903  0.00  0.00    +0.000 A 
ENDBRANCH  22  23
ENDBRANCH  15  19
ENDBRANCH  10  15
TORSDOF 9
ENDMDL
MODEL 2
REMARK VINA RESULT:      -4.5      1.553      6.497
REMARK  Name = 38030234
REMARK  13 active torsions:
REMARK  status: ('A' for Active; 'I' for Inactive)
REMARK    1  A    between atoms: N_3  and  C_14
REMARK    2  A    between atoms: N_3  and  C_20
REMARK    3  A    between atoms: N_6  and  C_21
REMARK    4  A    between atoms: C_7  and  C_11
REMARK    5  A    between atoms: C_8  and  C_14
REMARK    6  A    between atoms: C_10  and  C_15
REMARK    7  A    between atoms: C_11  and  C_16
REMARK    8  A    between atoms: C_11  and  C_17
REMARK    9  A    between atoms: C_12  and  C_18
REMARK   10  A    between atoms: C_15  and  C_19
REMARK   11  A    between atoms: C_20  and  C_21
REMARK   12  A    between atoms: C_22  and  C_23
REMARK   13  A    between atoms: C_24  and  C_27
REMARK                            x       y       z     vdW  Elec       q    Type
REMARK                         _______ _______ _______ _____ _____    ______ ____
ROOT
ATOM      7  C   UNL     1      -0.605   3.277  24.010  0.00  0.00    +0.000 C 
ATOM      8  C   UNL     1      -0.516   2.536  25.365  0.00  0.00    +0.029 C 
ATOM      9  C   UNL     1      -2.070   3.448  23.585  0.00  0.00    +0.012 C 
ATOM     10  C   UNL     1      -2.929   4.188  24.633  0.00  0.00    +0.024 C 
ATOM     12  C   UNL     1      -2.597   3.790  26.064  0.00  0.00    -0.073 C 
ATOM     13  C   UNL     1      -1.521   3.041  26.368  0.00  0.00    -0.023 C 
ATOM     18  C   UNL     1      -3.489   4.313  27.156  0.00  0.00    +0.039 C 
ENDROOT
BRANCH   7  11
ATOM     11  C   UNL     1       0.118   4.630  24.065  0.00  0.00    -0.013 C 
ATOM     16  C   UNL     1      -0.748   5.668  24.773  0.00  0.00    +0.007 C 
ATOM     17  C   UNL     1       0.480   5.097  22.659  0.00  0.00    +0.007 C 
ENDBRANCH   7  11
BRANCH   8  14
ATOM     14  C   UNL     1      -0.691   1.023  25.194  0.00  0.00    +0.088 C 
BRANCH  14   3
ATOM      3  N   UNL     1      -0.539   0.646  23.824  0.00  0.00    -0.314 NA
ATOM     31  H   UNL     1      -0.272   1.454  23.262  0.00  0.00    +0.122 HD
BRANCH   3  20
ATOM     20  C   UNL     1       0.454  -0.419  23.653  0.00  0.00    +0.099 C 
BRANCH  20  21
ATOM     21  C   UNL     1       1.517   0.002  22.650  0.00  0.00    +0.119 C 
BRANCH  21   6
ATOM      2  O   UNL     1       3.940   1.595  22.507  0.00  0.00    -0.276 OA
ATOM      6  N   UNL     1       2.832  -0.366  23.098  0.00  0.00    -0.314 N 
ATOM     24  C   UNL     1       3.938   0.465  22.988  0.00  0.00    +0.210 C 
ATOM     27  C   UNL     1       5.186  -0.156  23.558  0.00  0.00    +0.109 C 
ATOM     32  H   UNL     1       2.944  -1.279  23.532  0.00  0.00    +0.149 HD
ENDBRANCH  21   6
ENDBRANCH  20  21
ENDBRANCH   3  20
ENDBRANCH  14   3
ENDBRANCH   8  14
BRANCH  10  15
ATOM     15  C   UNL     1      -4.409   3.985  24.286  0.00  0.00    +0.105 C 
BRANCH  15  19
ATOM      1  O   UNL     1      -4.064   1.576  24.467  0.00  0.00    -0.420 OA
ATOM      4  N   UNL     1      -6.014   2.287  25.301  0.00  0.00    -0.112 NA
ATOM      5  N   UNL     1      -5.951   0.916  25.469  0.00  0.00    -0.107 NA
ATOM     19  C   UNL     1      -4.891   2.628  24.713  0.00  0.00    +0.218 A 
ATOM     22  C   UNL     1      -4.797   0.545  24.967  0.00  0.00    +0.248 A 
BRANCH  22  23
ATOM     23  C   UNL     1      -4.201  -0.756  24.868  0.00  0.00    +0.038 A 
ATOM     25  C   UNL     1      -4.497  -1.578  23.779  0.00  0.00    +0.013 A 
ATOM     26  C   UNL     1      -3.326  -1.200  25.859  0.00  0.00    +0.013 A 
ATOM     28  C   UNL     1      -3.917  -2.842  23.682  0.00  0.00    +0.001 A 
ATOM     29  C   UNL     1      -2.746  -2.465  25.762  0.00  0.00    +0.001 A 
ATOM     30  C   UNL     1      -3.041  -3.286  24.674  0.00  0.00    +0.000 A 
ENDBRANCH  22  23
ENDBRANCH  15  19
ENDBRANCH  10  15
TORSDOF 9
ENDMDL
MODEL 3
REMARK VINA RESULT:      -3.3      2.139      3.776
REMARK  Name = 38030234
REMARK  13 active torsions:
REMARK  status: ('A' for Active; 'I' for Inactive)
REMARK    1  A    between atoms: N_3  and  C_14
REMARK    2  A    between atoms: N_3  and  C_20
REMARK    3  A    between atoms: N_6  and  C_21
REMARK    4  A    between atoms: C_7  and  C_11
REMARK    5  A    between atoms: C_8  and  C_14
REMARK    6  A    between atoms: C_10  and  C_15
REMARK    7  A    between atoms: C_11  and  C_16
REMARK    8  A    between atoms: C_11  and  C_17
REMARK    9  A    between atoms: C_12  and  C_18
REMARK   10  A    between atoms: C_15  and  C_19
REMARK   11  A    between atoms: C_20  and  C_21
REMARK   12  A    between atoms: C_22  and  C_23
REMARK   13  A    between atoms: C_24  and  C_27
REMARK                            x       y       z     vdW  Elec       q    Type
REMARK                         _______ _______ _______ _____ _____    ______ ____
ROOT
ATOM      7  C   UNL     1      -4.854   2.119  26.122  0.00  0.00    +0.000 C 
ATOM      8  C   UNL     1      -4.523   0.915  25.209  0.00  0.00    +0.029 C 
ATOM      9  C   UNL     1      -3.731   3.163  26.065  0.00  0.00    +0.012 C 
ATOM     10  C   UNL     1      -3.437   3.668  24.636  0.00  0.00    +0.024 C 
ATOM     12  C   UNL     1      -3.500   2.565  23.590  0.00  0.00    -0.073 C 
ATOM     13  C   UNL     1      -3.977   1.338  23.869  0.00  0.00    -0.023 C 
ATOM     18  C   UNL     1      -3.058   2.906  22.193  0.00  0.00    +0.039 C 
ENDROOT
BRANCH   7  11
ATOM     11  C   UNL     1      -6.209   2.740  25.758  0.00  0.00    -0.013 C 
ATOM     16  C   UNL     1      -6.843   1.988  24.592  0.00  0.00    +0.007 C 
ATOM     17  C   UNL     1      -6.044   4.219  25.422  0.00  0.00    +0.007 C 
ENDBRANCH   7  11
BRANCH   8  14
ATOM     14  C   UNL     1      -3.533  -0.046  25.876  0.00  0.00    +0.088 C 
BRANCH  14   3
ATOM      3  N   UNL     1      -2.195   0.230  25.455  0.00  0.00    -0.314 NA
ATOM     31  H   UNL     1      -1.924   1.173  25.735  0.00  0.00    +0.122 HD
BRANCH   3  20
ATOM     20  C   UNL     1      -1.237  -0.738  25.998  0.00  0.00    +0.099 C 
BRANCH  20  21
ATOM     21  C   UNL     1      -1.045  -1.894  25.029  0.00  0.00    +0.119 C 
BRANCH  21   6
ATOM      2  O   UNL     1      -3.492  -3.384  25.499  0.00  0.00    -0.276 OA
ATOM      6  N   UNL     1      -2.171  -2.025  24.146  0.00  0.00    -0.314 N 
ATOM     24  C   UNL     1      -3.305  -2.762  24.456  0.00  0.00    +0.210 C 
ATOM     27  C   UNL     1      -4.343  -2.712  23.366  0.00  0.00    +0.109 C 
ATOM     32  H   UNL     1      -2.132  -1.535  23.256  0.00  0.00    +0.149 HD
ENDBRANCH  21   6
ENDBRANCH  20  21
ENDBRANCH   3  20
ENDBRANCH  14   3
ENDBRANCH   8  14
BRANCH  10  15
ATOM     15  C   UNL     1      -2.094   4.407  24.644  0.00  0.00    +0.105 C 
BRANCH  15  19
ATOM      1  O   UNL     1      -0.400   2.848  23.833  0.00  0.00    -0.420 OA
ATOM      4  N   UNL     1      -0.389   3.141  26.051  0.00  0.00    -0.112 NA
ATOM      5  N   UNL     1       0.612   2.242  25.733  0.00  0.00    -0.107 NA
ATOM     19  C   UNL     1      -0.953   3.468  24.911  0.00  0.00    +0.218 A 
ATOM     22  C   UNL     1       0.569   2.102  24.429  0.00  0.00    +0.248 A 
BRANCH  22  23
ATOM     23  C   UNL     1       1.370   1.298  23.553  0.00  0.00    +0.038 A 
ATOM     25  C   UNL     1       0.788   0.244  22.846  0.00  0.00    +0.013 A 
ATOM     26  C   UNL     1       2.730   1.568  23.406  0.00  0.00    +0.013 A 
ATOM     28  C   UNL     1       1.567  -0.537  21.994  0.00  0.00    +0.001 A 
ATOM     29  C   UNL     1       3.509   0.786  22.552  0.00  0.00    +0.001 A 
ATOM     30  C   UNL     1       2.928  -0.267  21.847  0.00  0.00    +0.000 A 
ENDBRANCH  22  23
ENDBRANCH  15  19
ENDBRANCH  10  15
TORSDOF 9
ENDMDL
MODEL 4
REMARK VINA RESULT:      -3.2      2.822      5.325
REMARK  Name = 38030234
REMARK  13 active torsions:
REMARK  status: ('A' for Active; 'I' for Inactive)
REMARK    1  A    between atoms: N_3  and  C_14
REMARK    2  A    between atoms: N_3  and  C_20
REMARK    3  A    between atoms: N_6  and  C_21
REMARK    4  A    between atoms: C_7  and  C_11
REMARK    5  A    between atoms: C_8  and  C_14
REMARK    6  A    between atoms: C_10  and  C_15
REMARK    7  A    between atoms: C_11  and  C_16
REMARK    8  A    between atoms: C_11  and  C_17
REMARK    9  A    between atoms: C_12  and  C_18
REMARK   10  A    between atoms: C_15  and  C_19
REMARK   11  A    between atoms: C_20  and  C_21
REMARK   12  A    between atoms: C_22  and  C_23
REMARK   13  A    between atoms: C_24  and  C_27
REMARK                            x       y       z     vdW  Elec       q    Type
REMARK                         _______ _______ _______ _____ _____    ______ ____
ROOT
ATOM      7  C   UNL     1      -4.436   1.578  25.754  0.00  0.00    +0.000 C 
ATOM      8  C   UNL     1      -4.036   0.383  24.857  0.00  0.00    +0.029 C 
ATOM      9  C   UNL     1      -3.400   2.705  25.644  0.00  0.00    +0.012 C 
ATOM     10  C   UNL     1      -3.185   3.199  24.197  0.00  0.00    +0.024 C 
ATOM     12  C   UNL     1      -3.188   2.070  23.176  0.00  0.00    -0.073 C 
ATOM     13  C   UNL     1      -3.560   0.817  23.494  0.00  0.00    -0.023 C 
ATOM     18  C   UNL     1      -2.811   2.413  21.761  0.00  0.00    +0.039 C 
ENDROOT
BRANCH   7  11
ATOM     11  C   UNL     1      -5.845   2.084  25.415  0.00  0.00    -0.013 C 
ATOM     16  C   UNL     1      -5.871   3.609  25.392  0.00  0.00    +0.007 C 
ATOM     17  C   UNL     1      -6.861   1.540  26.415  0.00  0.00    +0.007 C 
ENDBRANCH   7  11
BRANCH   8  14
ATOM     14  C   UNL     1      -2.956  -0.482  25.516  0.00  0.00    +0.088 C 
BRANCH  14   3
ATOM      3  N   UNL     1      -1.651   0.009  25.204  0.00  0.00    -0.314 NA
ATOM     31  H   UNL     1      -1.275   0.539  25.990  0.00  0.00    +0.122 HD
BRANCH   3  20
ATOM     20  C   UNL     1      -0.725  -1.072  24.853  0.00  0.00    +0.099 C 
BRANCH  20  21
ATOM     21  C   UNL     1      -0.162  -0.856  23.458  0.00  0.00    +0.119 C 
BRANCH  21   6
ATOM      2  O   UNL     1       1.647  -0.383  21.237  0.00  0.00    -0.276 OA
ATOM      6  N   UNL     1       1.154  -0.279  23.510  0.00  0.00    -0.314 N 
ATOM     24  C   UNL     1       1.952  -0.090  22.391  0.00  0.00    +0.210 C 
ATOM     27  C   UNL     1       3.271   0.556  22.723  0.00  0.00    +0.109 C 
ATOM     32  H   UNL     1       1.503   0.018  24.418  0.00  0.00    +0.149 HD
ENDBRANCH  21   6
ENDBRANCH  20  21
ENDBRANCH   3  20
ENDBRANCH  14   3
ENDBRANCH   8  14
BRANCH  10  15
ATOM     15  C   UNL     1      -1.904   4.040  24.152  0.00  0.00    +0.105 C 
BRANCH  15  19
ATOM      1  O   UNL     1      -0.510   3.496  26.080  0.00  0.00    -0.420 OA
ATOM      4  N   UNL     1       0.108   2.479  24.186  0.00  0.00    -0.112 NA
ATOM      5  N   UNL     1       0.976   2.084  25.187  0.00  0.00    -0.107 NA
ATOM     19  C   UNL     1      -0.742   3.302  24.753  0.00  0.00    +0.218 A 
ATOM     22  C   UNL     1       0.577   2.702  26.274  0.00  0.00    +0.248 A 
BRANCH  22  23
ATOM     23  C   UNL     1       1.101   2.669  27.609  0.00  0.00    +0.038 A 
ATOM     25  C   UNL     1       0.279   2.290  28.671  0.00  0.00    +0.013 A 
ATOM     26  C   UNL     1       2.430   3.016  27.846  0.00  0.00    +0.013 A 
ATOM     28  C   UNL     1       0.788   2.257  29.969  0.00  0.00    +0.001 A 
ATOM     29  C   UNL     1       2.939   2.983  29.144  0.00  0.00    +0.001 A 
ATOM     30  C   UNL     1       2.118   2.604  30.206  0.00  0.00    +0.000 A 
ENDBRANCH  22  23
ENDBRANCH  15  19
ENDBRANCH  10  15
TORSDOF 9
ENDMDL
MODEL 5
REMARK VINA RESULT:      -1.8      1.805      6.942
REMARK  Name = 38030234
REMARK  13 active torsions:
REMARK  status: ('A' for Active; 'I' for Inactive)
REMARK    1  A    between atoms: N_3  and  C_14
REMARK    2  A    between atoms: N_3  and  C_20
REMARK    3  A    between atoms: N_6  and  C_21
REMARK    4  A    between atoms: C_7  and  C_11
REMARK    5  A    between atoms: C_8  and  C_14
REMARK    6  A    between atoms: C_10  and  C_15
REMARK    7  A    between atoms: C_11  and  C_16
REMARK    8  A    between atoms: C_11  and  C_17
REMARK    9  A    between atoms: C_12  and  C_18
REMARK   10  A    between atoms: C_15  and  C_19
REMARK   11  A    between atoms: C_20  and  C_21
REMARK   12  A    between atoms: C_22  and  C_23
REMARK   13  A    between atoms: C_24  and  C_27
REMARK                            x       y       z     vdW  Elec       q    Type
REMARK                         _______ _______ _______ _____ _____    ______ ____
ROOT
ATOM      7  C   UNL     1      -2.625  -1.667  25.468  0.00  0.00    +0.000 C 
ATOM      8  C   UNL     1      -1.771  -0.702  24.610  0.00  0.00    +0.029 C 
ATOM      9  C   UNL     1      -3.782  -0.911  26.135  0.00  0.00    +0.012 C 
ATOM     10  C   UNL     1      -4.693  -0.176  25.130  0.00  0.00    +0.024 C 
ATOM     12  C   UNL     1      -3.921   0.476  23.992  0.00  0.00    -0.073 C 
ATOM     13  C   UNL     1      -2.613   0.236  23.784  0.00  0.00    -0.023 C 
ATOM     18  C   UNL     1      -4.687   1.367  23.053  0.00  0.00    +0.039 C 
ENDROOT
BRANCH   7  11
ATOM     11  C   UNL     1      -3.140  -2.849  24.635  0.00  0.00    -0.013 C 
ATOM     16  C   UNL     1      -2.066  -3.318  23.658  0.00  0.00    +0.007 C 
ATOM     17  C   UNL     1      -4.415  -2.461  23.893  0.00  0.00    +0.007 C 
ENDBRANCH   7  11
BRANCH   8  14
ATOM     14  C   UNL     1      -0.803   0.114  25.471  0.00  0.00    +0.088 C 
BRANCH  14   3
ATOM      3  N   UNL     1       0.381   0.437  24.738  0.00  0.00    -0.314 NA
ATOM     31  H   UNL     1       1.194   0.421  25.353  0.00  0.00    +0.122 HD
BRANCH   3  20
ATOM     20  C   UNL     1       0.598  -0.480  23.614  0.00  0.00    +0.099 C 
BRANCH  20  21
ATOM     21  C   UNL     1       1.658   0.075  22.675  0.00  0.00    +0.119 C 
BRANCH  21   6
ATOM      2  O   UNL     1       4.099   1.640  22.517  0.00  0.00    -0.276 OA
ATOM      6  N   UNL     1       2.977  -0.320  23.086  0.00  0.00    -0.314 N 
ATOM     24  C   UNL     1       4.092   0.499  22.973  0.00  0.00    +0.210 C 
ATOM     27  C   UNL     1       5.343  -0.151  23.502  0.00  0.00    +0.109 C 
ATOM     32  H   UNL     1       3.086  -1.244  23.497  0.00  0.00    +0.149 HD
ENDBRANCH  21   6
ENDBRANCH  20  21
ENDBRANCH   3  20
ENDBRANCH  14   3
ENDBRANCH   8  14
BRANCH  10  15
ATOM     15  C   UNL     1      -5.571   0.818  25.900  0.00  0.00    +0.105 C 
BRANCH  15  19
ATOM      1  O   UNL     1      -3.752   2.372  25.419  0.00  0.00    -0.420 OA
ATOM      4  N   UNL     1      -5.695   3.362  25.917  0.00  0.00    -0.112 NA
ATOM      5  N   UNL     1      -4.762   4.351  25.669  0.00  0.00    -0.107 NA
ATOM     19  C   UNL     1      -5.061   2.224  25.760  0.00  0.00    +0.218 A 
ATOM     22  C   UNL     1      -3.644   3.728  25.383  0.00  0.00    +0.248 A 
BRANCH  22  23
ATOM     23  C   UNL     1      -2.350   4.245  25.044  0.00  0.00    +0.038 A 
ATOM     25  C   UNL     1      -2.079   5.605  25.202  0.00  0.00    +0.013 A 
ATOM     26  C   UNL     1      -1.362   3.391  24.556  0.00  0.00    +0.013 A 
ATOM     28  C   UNL     1      -0.821   6.109  24.873  0.00  0.00    +0.001 A 
ATOM     29  C   UNL     1      -0.103   3.894  24.227  0.00  0.00    +0.001 A 
ATOM     30  C   UNL     1       0.167   5.253  24.385  0.00  0.00    +0.000 A 
ENDBRANCH  22  23
ENDBRANCH  15  19
ENDBRANCH  10  15
TORSDOF 9
ENDMDL
MODEL 6
REMARK VINA RESULT:      -1.3      3.267      4.617
REMARK  Name = 38030234
REMARK  13 active torsions:
REMARK  status: ('A' for Active; 'I' for Inactive)
REMARK    1  A    between atoms: N_3  and  C_14
REMARK    2  A    between atoms: N_3  and  C_20
REMARK    3  A    between atoms: N_6  and  C_21
REMARK    4  A    between atoms: C_7  and  C_11
REMARK    5  A    between atoms: C_8  and  C_14
REMARK    6  A    between atoms: C_10  and  C_15
REMARK    7  A    between atoms: C_11  and  C_16
REMARK    8  A    between atoms: C_11  and  C_17
REMARK    9  A    between atoms: C_12  and  C_18
REMARK   10  A    between atoms: C_15  and  C_19
REMARK   11  A    between atoms: C_20  and  C_21
REMARK   12  A    between atoms: C_22  and  C_23
REMARK   13  A    between atoms: C_24  and  C_27
REMARK                            x       y       z     vdW  Elec       q    Type
REMARK                         _______ _______ _______ _____ _____    ______ ____
ROOT
ATOM      7  C   UNL     1      -4.517   2.090  25.779  0.00  0.00    +0.000 C 
ATOM      8  C   UNL     1      -4.198   0.766  25.044  0.00  0.00    +0.029 C 
ATOM      9  C   UNL     1      -3.375   3.098  25.591  0.00  0.00    +0.012 C 
ATOM     10  C   UNL     1      -3.058   3.396  24.110  0.00  0.00    +0.024 C 
ATOM     12  C   UNL     1      -3.129   2.159  23.226  0.00  0.00    -0.073 C 
ATOM     13  C   UNL     1      -3.632   0.991  23.666  0.00  0.00    -0.023 C 
ATOM     18  C   UNL     1      -2.668   2.297  21.801  0.00  0.00    +0.039 C 
ENDROOT
BRANCH   7  11
ATOM     11  C   UNL     1      -5.857   2.678  25.315  0.00  0.00    -0.013 C 
ATOM     16  C   UNL     1      -5.860   4.194  25.485  0.00  0.00    +0.007 C 
ATOM     17  C   UNL     1      -7.011   2.045  26.085  0.00  0.00    +0.007 C 
ENDBRANCH   7  11
BRANCH   8  14
ATOM     14  C   UNL     1      -3.233  -0.109  25.850  0.00  0.00    +0.088 C 
BRANCH  14   3
ATOM      3  N   UNL     1      -1.885   0.091  25.418  0.00  0.00    -0.314 NA
ATOM     31  H   UNL     1      -1.530   0.982  25.766  0.00  0.00    +0.122 HD
BRANCH   3  20
ATOM     20  C   UNL     1      -1.000  -0.994  25.855  0.00  0.00    +0.099 C 
BRANCH  20  21
ATOM     21  C   UNL     1      -0.835  -2.021  24.746  0.00  0.00    +0.119 C 
BRANCH  21   6
ATOM      2  O   UNL     1      -3.347  -3.182  25.623  0.00  0.00    -0.276 OA
ATOM      6  N   UNL     1      -2.044  -2.164  23.983  0.00  0.00    -0.314 N 
ATOM     24  C   UNL     1      -3.204  -2.735  24.487  0.00  0.00    +0.210 C 
ATOM     27  C   UNL     1      -4.329  -2.736  23.486  0.00  0.00    +0.109 C 
ATOM     32  H   UNL     1      -2.045  -1.809  23.030  0.00  0.00    +0.149 HD
ENDBRANCH  21   6
ENDBRANCH  20  21
ENDBRANCH   3  20
ENDBRANCH  14   3
ENDBRANCH   8  14
BRANCH  10  15
ATOM     15  C   UNL     1      -1.702   4.107  24.032  0.00  0.00    +0.105 C 
BRANCH  15  19
ATOM      1  O   UNL     1      -0.389   3.533  26.008  0.00  0.00    -0.420 OA
ATOM      4  N   UNL     1       0.160   2.373  24.175  0.00  0.00    -0.112 NA
ATOM      5  N   UNL     1       0.974   1.950  25.209  0.00  0.00    -0.107 NA
ATOM     19  C   UNL     1      -0.620   3.297  24.688  0.00  0.00    +0.218 A 
ATOM     22  C   UNL     1       0.619   2.654  26.258  0.00  0.00    +0.248 A 
BRANCH  22  23
ATOM     23  C   UNL     1       1.120   2.638  27.602  0.00  0.00    +0.038 A 
ATOM     25  C   UNL     1       2.461   2.937  27.850  0.00  0.00    +0.013 A 
ATOM     26  C   UNL     1       0.268   2.325  28.661  0.00  0.00    +0.013 A 
ATOM     28  C   UNL     1       2.948   2.923  29.156  0.00  0.00    +0.001 A 
ATOM     29  C   UNL     1       0.756   2.312  29.968  0.00  0.00    +0.001 A 
ATOM     30  C   UNL     1       2.095   2.610  30.216  0.00  0.00    +0.000 A 
ENDBRANCH  22  23
ENDBRANCH  15  19
ENDBRANCH  10  15
TORSDOF 9
ENDMDL
MODEL 7
REMARK VINA RESULT:      -1.3      2.936      6.258
REMARK  Name = 38030234
REMARK  13 active torsions:
REMARK  status: ('A' for Active; 'I' for Inactive)
REMARK    1  A    between atoms: N_3  and  C_14
REMARK    2  A    between atoms: N_3  and  C_20
REMARK    3  A    between atoms: N_6  and  C_21
REMARK    4  A    between atoms: C_7  and  C_11
REMARK    5  A    between atoms: C_8  and  C_14
REMARK    6  A    between atoms: C_10  and  C_15
REMARK    7  A    between atoms: C_11  and  C_16
REMARK    8  A    between atoms: C_11  and  C_17
REMARK    9  A    between atoms: C_12  and  C_18
REMARK   10  A    between atoms: C_15  and  C_19
REMARK   11  A    between atoms: C_20  and  C_21
REMARK   12  A    between atoms: C_22  and  C_23
REMARK   13  A    between atoms: C_24  and  C_27
REMARK                            x       y       z     vdW  Elec       q    Type
REMARK                         _______ _______ _______ _____ _____    ______ ____
ROOT
ATOM      7  C   UNL     1      -2.957  -0.700  25.290  0.00  0.00    +0.000 C 
ATOM      8  C   UNL     1      -1.924  -0.933  24.163  0.00  0.00    +0.029 C 
ATOM      9  C   UNL     1      -3.009   0.785  25.674  0.00  0.00    +0.012 C 
ATOM     10  C   UNL     1      -3.329   1.714  24.484  0.00  0.00    +0.024 C 
ATOM     12  C   UNL     1      -2.642   1.289  23.195  0.00  0.00    -0.073 C 
ATOM     13  C   UNL     1      -2.009   0.108  23.076  0.00  0.00    -0.023 C 
ATOM     18  C   UNL     1      -2.739   2.219  22.016  0.00  0.00    +0.039 C 
ENDROOT
BRANCH   7  11
ATOM     11  C   UNL     1      -4.346  -1.219  24.892  0.00  0.00    -0.013 C 
ATOM     16  C   UNL     1      -4.236  -2.177  23.710  0.00  0.00    +0.007 C 
ATOM     17  C   UNL     1      -5.274  -0.055  24.561  0.00  0.00    +0.007 C 
ENDBRANCH   7  11
BRANCH   8  14
ATOM     14  C   UNL     1      -0.492  -0.977  24.707  0.00  0.00    +0.088 C 
BRANCH  14   3
ATOM      3  N   UNL     1       0.456  -1.012  23.639  0.00  0.00    -0.314 NA
ATOM     31  H   UNL     1      -0.007  -1.243  22.761  0.00  0.00    +0.122 HD
BRANCH   3  20
ATOM     20  C   UNL     1       1.172   0.260  23.496  0.00  0.00    +0.099 C 
BRANCH  20  21
ATOM     21  C   UNL     1       2.241   0.148  22.420  0.00  0.00    +0.119 C 
BRANCH  21   6
ATOM      2  O   UNL     1       4.183  -1.539  23.764  0.00  0.00    -0.276 OA
ATOM      6  N   UNL     1       3.530   0.532  22.925  0.00  0.00    -0.314 N 
ATOM     24  C   UNL     1       4.398  -0.347  23.557  0.00  0.00    +0.210 C 
ATOM     27  C   UNL     1       5.691   0.308  23.964  0.00  0.00    +0.109 C 
ATOM     32  H   UNL     1       3.820   1.498  22.792  0.00  0.00    +0.149 HD
ENDBRANCH  21   6
ENDBRANCH  20  21
ENDBRANCH   3  20
ENDBRANCH  14   3
ENDBRANCH   8  14
BRANCH  10  15
ATOM     15  C   UNL     1      -3.002   3.157  24.887  0.00  0.00    +0.105 C 
BRANCH  15  19
ATOM      1  O   UNL     1      -1.194   2.928  26.510  0.00  0.00    -0.420 OA
ATOM      4  N   UNL     1      -0.553   3.763  24.537  0.00  0.00    -0.112 NA
ATOM      5  N   UNL     1       0.561   3.688  25.352  0.00  0.00    -0.107 NA
ATOM     19  C   UNL     1      -1.554   3.309  25.254  0.00  0.00    +0.218 A 
ATOM     22  C   UNL     1       0.140   3.195  26.493  0.00  0.00    +0.248 A 
BRANCH  22  23
ATOM     23  C   UNL     1       0.855   2.901  27.701  0.00  0.00    +0.038 A 
ATOM     25  C   UNL     1       2.245   3.019  27.734  0.00  0.00    +0.013 A 
ATOM     26  C   UNL     1       0.162   2.496  28.841  0.00  0.00    +0.013 A 
ATOM     28  C   UNL     1       2.941   2.733  28.908  0.00  0.00    +0.001 A 
ATOM     29  C   UNL     1       0.858   2.210  30.016  0.00  0.00    +0.001 A 
ATOM     30  C   UNL     1       2.247   2.328  30.050  0.00  0.00    +0.000 A 
ENDBRANCH  22  23
ENDBRANCH  15  19
ENDBRANCH  10  15
TORSDOF 9
ENDMDL
MODEL 8
REMARK VINA RESULT:      -1.2      1.864      7.042
REMARK  Name = 38030234
REMARK  13 active torsions:
REMARK  status: ('A' for Active; 'I' for Inactive)
REMARK    1  A    between atoms: N_3  and  C_14
REMARK    2  A    between atoms: N_3  and  C_20
REMARK    3  A    between atoms: N_6  and  C_21
REMARK    4  A    between atoms: C_7  and  C_11
REMARK    5  A    between atoms: C_8  and  C_14
REMARK    6  A    between atoms: C_10  and  C_15
REMARK    7  A    between atoms: C_11  and  C_16
REMARK    8  A    between atoms: C_11  and  C_17
REMARK    9  A    between atoms: C_12  and  C_18
REMARK   10  A    between atoms: C_15  and  C_19
REMARK   11  A    between atoms: C_20  and  C_21
REMARK   12  A    between atoms: C_22  and  C_23
REMARK   13  A    between atoms: C_24  and  C_27
REMARK                            x       y       z     vdW  Elec       q    Type
REMARK                         _______ _______ _______ _____ _____    ______ ____
ROOT
ATOM      7  C   UNL     1      -1.329  -0.408  25.418  0.00  0.00    +0.000 C 
ATOM      8  C   UNL     1      -1.169  -0.874  23.951  0.00  0.00    +0.029 C 
ATOM      9  C   UNL     1      -2.740   0.146  25.655  0.00  0.00    +0.012 C 
ATOM     10  C   UNL     1      -3.859  -0.860  25.310  0.00  0.00    +0.024 C 
ATOM     12  C   UNL     1      -3.565  -1.670  24.057  0.00  0.00    -0.073 C 
ATOM     13  C   UNL     1      -2.361  -1.653  23.458  0.00  0.00    -0.023 C 
ATOM     18  C   UNL     1      -4.663  -2.553  23.527  0.00  0.00    +0.039 C 
ENDROOT
BRANCH   7  11
ATOM     11  C   UNL     1      -1.005  -1.541  26.402  0.00  0.00    -0.013 C 
ATOM     16  C   UNL     1      -0.612  -0.968  27.760  0.00  0.00    +0.007 C 
ATOM     17  C   UNL     1       0.106  -2.427  25.847  0.00  0.00    +0.007 C 
ENDBRANCH   7  11
BRANCH   8  14
ATOM     14  C   UNL     1      -0.913   0.307  23.008  0.00  0.00    +0.088 C 
BRANCH  14   3
ATOM      3  N   UNL     1       0.397   0.841  23.207  0.00  0.00    -0.314 NA
ATOM     31  H   UNL     1       0.434   1.375  24.075  0.00  0.00    +0.122 HD
BRANCH   3  20
ATOM     20  C   UNL     1       1.421  -0.209  23.233  0.00  0.00    +0.099 C 
BRANCH  20  21
ATOM     21  C   UNL     1       2.519   0.097  22.227  0.00  0.00    +0.119 C 
BRANCH  21   6
ATOM      2  O   UNL     1       4.407  -1.528  23.718  0.00  0.00    -0.276 OA
ATOM      6  N   UNL     1       3.721   0.535  22.883  0.00  0.00    -0.314 N 
ATOM     24  C   UNL     1       4.568  -0.318  23.577  0.00  0.00    +0.210 C 
ATOM     27  C   UNL     1       5.766   0.394  24.146  0.00  0.00    +0.109 C 
ATOM     32  H   UNL     1       3.963   1.520  22.816  0.00  0.00    +0.149 HD
ENDBRANCH  21   6
ENDBRANCH  20  21
ENDBRANCH   3  20
ENDBRANCH  14   3
ENDBRANCH   8  14
BRANCH  10  15
ATOM     15  C   UNL     1      -5.191  -0.104  25.233  0.00  0.00    +0.105 C 
BRANCH  15  19
ATOM      1  O   UNL     1      -3.714   1.833  25.078  0.00  0.00    -0.420 OA
ATOM      4  N   UNL     1      -5.850   2.342  25.504  0.00  0.00    -0.112 NA
ATOM      5  N   UNL     1      -5.133   3.522  25.443  0.00  0.00    -0.107 NA
ATOM     19  C   UNL     1      -4.982   1.383  25.285  0.00  0.00    +0.218 A 
ATOM     22  C   UNL     1      -3.892   3.177  25.193  0.00  0.00    +0.248 A 
BRANCH  22  23
ATOM     23  C   UNL     1      -2.718   3.983  25.024  0.00  0.00    +0.038 A 
ATOM     25  C   UNL     1      -1.497   3.380  24.714  0.00  0.00    +0.013 A 
ATOM     26  C   UNL     1      -2.794   5.367  25.170  0.00  0.00    +0.013 A 
ATOM     28  C   UNL     1      -0.355   4.163  24.550  0.00  0.00    +0.001 A 
ATOM     29  C   UNL     1      -1.651   6.151  25.006  0.00  0.00    +0.001 A 
ATOM     30  C   UNL     1      -0.432   5.549  24.696  0.00  0.00    +0.000 A 
ENDBRANCH  22  23
ENDBRANCH  15  19
ENDBRANCH  10  15
TORSDOF 9
ENDMDL
MODEL 9
REMARK VINA RESULT:      -1.2      1.614      3.069
REMARK  Name = 38030234
REMARK  13 active torsions:
REMARK  status: ('A' for Active; 'I' for Inactive)
REMARK    1  A    between atoms: N_3  and  C_14
REMARK    2  A    between atoms: N_3  and  C_20
REMARK    3  A    between atoms: N_6  and  C_21
REMARK    4  A    between atoms: C_7  and  C_11
REMARK    5  A    between atoms: C_8  and  C_14
REMARK    6  A    between atoms: C_10  and  C_15
REMARK    7  A    between atoms: C_11  and  C_16
REMARK    8  A    between atoms: C_11  and  C_17
REMARK    9  A    between atoms: C_12  and  C_18
REMARK   10  A    between atoms: C_15  and  C_19
REMARK   11  A    between atoms: C_20  and  C_21
REMARK   12  A    between atoms: C_22  and  C_23
REMARK   13  A    between atoms: C_24  and  C_27
REMARK                            x       y       z     vdW  Elec       q    Type
REMARK                         _______ _______ _______ _____ _____    ______ ____
ROOT
ATOM      7  C   UNL     1      -3.995   2.135  25.613  0.00  0.00    +0.000 C 
ATOM      8  C   UNL     1      -4.229   0.918  24.685  0.00  0.00    +0.029 C 
ATOM      9  C   UNL     1      -2.558   2.653  25.469  0.00  0.00    +0.012 C 
ATOM     10  C   UNL     1      -2.186   3.033  24.020  0.00  0.00    +0.024 C 
ATOM     12  C   UNL     1      -2.749   2.068  22.988  0.00  0.00    -0.073 C 
ATOM     13  C   UNL     1      -3.652   1.123  23.308  0.00  0.00    -0.023 C 
ATOM     18  C   UNL     1      -2.304   2.238  21.561  0.00  0.00    +0.039 C 
ENDROOT
BRANCH   7  11
ATOM     11  C   UNL     1      -5.016   3.248  25.341  0.00  0.00    -0.013 C 
ATOM     16  C   UNL     1      -4.603   4.533  26.053  0.00  0.00    +0.007 C 
ATOM     17  C   UNL     1      -6.410   2.811  25.780  0.00  0.00    +0.007 C 
ENDBRANCH   7  11
BRANCH   8  14
ATOM     14  C   UNL     1      -3.656  -0.369  25.286  0.00  0.00    +0.088 C 
BRANCH  14   3
ATOM      3  N   UNL     1      -4.454  -1.498  24.923  0.00  0.00    -0.314 NA
ATOM     31  H   UNL     1      -5.058  -1.266  24.135  0.00  0.00    +0.122 HD
BRANCH   3  20
ATOM     20  C   UNL     1      -3.634  -2.666  24.586  0.00  0.00    +0.099 C 
BRANCH  20  21
ATOM     21  C   UNL     1      -2.483  -2.261  23.679  0.00  0.00    +0.119 C 
BRANCH  21   6
ATOM      2  O   UNL     1      -1.076  -1.163  25.969  0.00  0.00    -0.276 OA
ATOM      6  N   UNL     1      -1.221  -2.690  24.216  0.00  0.00    -0.314 N 
ATOM     24  C   UNL     1      -0.620  -2.102  25.321  0.00  0.00    +0.210 C 
ATOM     27  C   UNL     1       0.683  -2.761  25.689  0.00  0.00    +0.109 C 
ATOM     32  H   UNL     1      -0.759  -3.476  23.766  0.00  0.00    +0.149 HD
ENDBRANCH  21   6
ENDBRANCH  20  21
ENDBRANCH   3  20
ENDBRANCH  14   3
ENDBRANCH   8  14
BRANCH  10  15
ATOM     15  C   UNL     1      -0.663   3.183  23.928  0.00  0.00    +0.105 C 
BRANCH  15  19
ATOM      1  O   UNL     1       1.359   1.830  23.726  0.00  0.00    -0.420 OA
ATOM      4  N   UNL     1      -0.535   0.718  23.300  0.00  0.00    -0.112 NA
ATOM      5  N   UNL     1       0.521  -0.162  23.151  0.00  0.00    -0.107 NA
ATOM     19  C   UNL     1       0.001   1.868  23.637  0.00  0.00    +0.218 A 
ATOM     22  C   UNL     1       1.605   0.530  23.408  0.00  0.00    +0.248 A 
BRANCH  22  23
ATOM     23  C   UNL     1       2.984   0.136  23.407  0.00  0.00    +0.038 A 
ATOM     25  C   UNL     1       3.342  -1.149  23.820  0.00  0.00    +0.013 A 
ATOM     26  C   UNL     1       3.967   1.034  22.995  0.00  0.00    +0.013 A 
ATOM     28  C   UNL     1       4.682  -1.534  23.818  0.00  0.00    +0.001 A 
ATOM     29  C   UNL     1       5.308   0.649  22.994  0.00  0.00    +0.001 A 
ATOM     30  C   UNL     1       5.666  -0.634  23.405  0.00  0.00    +0.000 A 
ENDBRANCH  22  23
ENDBRANCH  15  19
ENDBRANCH  10  15
TORSDOF 9
ENDMDL
