MODEL 1
REMARK VINA RESULT:       3.1      0.000      0.000
REMARK  Name = 11882522
REMARK  13 active torsions:
REMARK  status: ('A' for Active; 'I' for Inactive)
REMARK    1  A    between atoms: S_2  and  C_30
REMARK    2  A    between atoms: S_2  and  C_34
REMARK    3  A    between atoms: O_3  and  C_12
REMARK    4  A    between atoms: O_4  and  C_14
REMARK    5  A    between atoms: O_7  and  C_25
REMARK    6  A    between atoms: O_7  and  C_33
REMARK    7  A    between atoms: N_9  and  C_13
REMARK    8  A    between atoms: N_10  and  C_19
REMARK    9  A    between atoms: C_16  and  C_18
REMARK   10  A    between atoms: C_19  and  C_21
REMARK   11  A    between atoms: C_19  and  C_23
REMARK   12  A    between atoms: C_20  and  C_22
REMARK   13  A    between atoms: C_21  and  C_24
REMARK                            x       y       z     vdW  Elec       q    Type
REMARK                         _______ _______ _______ _____ _____    ______ ____
ROOT
ATOM     12  C   UNL     1      -1.462  -2.283  24.960  0.00  0.00    +0.167 C 
ATOM     13  C   UNL     1      -1.014  -1.295  23.866  0.00  0.00    +0.128 C 
ATOM     14  C   UNL     1      -2.990  -2.357  25.061  0.00  0.00    +0.149 C 
ATOM     15  C   UNL     1      -3.621  -0.974  25.300  0.00  0.00    +0.074 C 
ATOM     16  C   UNL     1      -2.949   0.129  24.534  0.00  0.00    +0.015 C 
ATOM     17  C   UNL     1      -1.785  -0.003  23.880  0.00  0.00    +0.006 C 
ENDROOT
BRANCH  16  18
ATOM      5  O   UNL     1      -3.959   1.922  23.400  0.00  0.00    -0.271 OA
ATOM     10  N   UNL     1      -3.786   2.007  25.723  0.00  0.00    -0.300 N 
ATOM     18  C   UNL     1      -3.614   1.434  24.476  0.00  0.00    +0.241 C 
ATOM     38  H   UNL     1      -3.383   1.576  26.548  0.00  0.00    +0.150 HD
BRANCH  10  19
ATOM     19  C   UNL     1      -4.414   3.295  25.921  0.00  0.00    +0.164 C 
BRANCH  19  23
ATOM      8  O   UNL     1      -6.449   2.003  25.611  0.00  0.00    -0.274 OA
ATOM     11  N   UNL     1      -6.603   4.294  25.693  0.00  0.00    -0.328 N 
ATOM     23  C   UNL     1      -5.908   3.103  25.710  0.00  0.00    +0.231 C 
ATOM     39  H   UNL     1      -6.144   5.195  25.778  0.00  0.00    +0.145 HD
ATOM     40  H   UNL     1      -7.611   4.306  25.574  0.00  0.00    +0.145 HD
ENDBRANCH  19  23
BRANCH  19  21
ATOM     21  C   UNL     1      -3.871   4.358  24.959  0.00  0.00    +0.074 C 
BRANCH  21  24
ATOM      1  S   UNL     1      -1.491   3.377  25.955  0.00  0.00    -0.102 S 
ATOM     24  C   UNL     1      -2.370   4.498  25.031  0.00  0.00    -0.008 A 
ATOM     27  C   UNL     1      -1.597   5.441  24.430  0.00  0.00    +0.011 A 
ATOM     31  C   UNL     1      -0.220   5.245  24.734  0.00  0.00    +0.008 A 
ATOM     32  C   UNL     1      -0.020   4.158  25.555  0.00  0.00    +0.045 A 
ENDBRANCH  21  24
ENDBRANCH  19  21
ENDBRANCH  10  19
ENDBRANCH  16  18
BRANCH  13   9
ATOM      6  O   UNL     1       0.744  -0.620  21.699  0.00  0.00    -0.270 OA
ATOM      9  N   UNL     1       0.395  -0.999  23.960  0.00  0.00    -0.302 N 
ATOM     20  C   UNL     1       1.166  -0.681  22.851  0.00  0.00    +0.248 C 
ATOM     35  H   UNL     1       0.837  -1.106  24.868  0.00  0.00    +0.150 HD
BRANCH  20  22
ATOM     22  C   UNL     1       2.606  -0.428  23.112  0.00  0.00    +0.078 A 
ATOM     25  C   UNL     1       3.087   0.865  23.117  0.00  0.00    +0.133 A 
ATOM     26  C   UNL     1       3.423  -1.517  23.343  0.00  0.00    +0.018 A 
ATOM     28  C   UNL     1       4.443   1.080  23.364  0.00  0.00    +0.061 A 
ATOM     29  C   UNL     1       4.779  -1.301  23.590  0.00  0.00    +0.015 A 
ATOM     30  C   UNL     1       5.289  -0.003  23.600  0.00  0.00    +0.011 A 
BRANCH  30   2
ATOM      2  S   UNL     1       7.022   0.271  23.916  0.00  0.00    -0.128 S 
ATOM     34  C   UNL     1       7.797  -0.799  22.672  0.00  0.00    +0.090 C 
ENDBRANCH  30   2
BRANCH  25   7
ATOM      7  O   UNL     1       2.275   1.936  22.889  0.00  0.00    -0.494 OA
ATOM     33  C   UNL     1       1.149   2.088  23.750  0.00  0.00    +0.277 C 
ENDBRANCH  25   7
ENDBRANCH  20  22
ENDBRANCH  13   9
BRANCH  12   3
ATOM      3  O   UNL     1      -0.937  -1.869  26.224  0.00  0.00    -0.387 OA
ATOM     36  H   UNL     1      -0.649  -2.655  26.717  0.00  0.00    +0.210 HD
ENDBRANCH  12   3
BRANCH  14   4
ATOM      4  O   UNL     1      -3.533  -2.944  23.880  0.00  0.00    -0.389 OA
ATOM     37  H   UNL     1      -3.698  -2.228  23.244  0.00  0.00    +0.210 HD
ENDBRANCH  14   4
TORSDOF 11
ENDMDL
MODEL 2
REMARK VINA RESULT:       3.8      1.565      2.820
REMARK  Name = 11882522
REMARK  13 active torsions:
REMARK  status: ('A' for Active; 'I' for Inactive)
REMARK    1  A    between atoms: S_2  and  C_30
REMARK    2  A    between atoms: S_2  and  C_34
REMARK    3  A    between atoms: O_3  and  C_12
REMARK    4  A    between atoms: O_4  and  C_14
REMARK    5  A    between atoms: O_7  and  C_25
REMARK    6  A    between atoms: O_7  and  C_33
REMARK    7  A    between atoms: N_9  and  C_13
REMARK    8  A    between atoms: N_10  and  C_19
REMARK    9  A    between atoms: C_16  and  C_18
REMARK   10  A    between atoms: C_19  and  C_21
REMARK   11  A    between atoms: C_19  and  C_23
REMARK   12  A    between atoms: C_20  and  C_22
REMARK   13  A    between atoms: C_21  and  C_24
REMARK                            x       y       z     vdW  Elec       q    Type
REMARK                         _______ _______ _______ _____ _____    ______ ____
ROOT
ATOM     12  C   UNL     1      -1.149  -1.836  25.130  0.00  0.00    +0.167 C 
ATOM     13  C   UNL     1      -0.555  -1.153  23.884  0.00  0.00    +0.128 C 
ATOM     14  C   UNL     1      -2.680  -1.753  25.142  0.00  0.00    +0.149 C 
ATOM     15  C   UNL     1      -3.181  -0.302  25.039  0.00  0.00    +0.074 C 
ATOM     16  C   UNL     1      -2.368   0.545  24.102  0.00  0.00    +0.015 C 
ATOM     17  C   UNL     1      -1.194   0.173  23.571  0.00  0.00    +0.006 C 
ENDROOT
BRANCH  16  18
ATOM      5  O   UNL     1      -3.499   2.018  22.663  0.00  0.00    -0.271 OA
ATOM     10  N   UNL     1      -2.638   2.837  24.667  0.00  0.00    -0.300 N 
ATOM     18  C   UNL     1      -2.897   1.859  23.724  0.00  0.00    +0.241 C 
ATOM     38  H   UNL     1      -2.049   2.635  25.468  0.00  0.00    +0.150 HD
BRANCH  10  19
ATOM     19  C   UNL     1      -3.057   4.212  24.515  0.00  0.00    +0.164 C 
BRANCH  19  23
ATOM      8  O   UNL     1      -2.021   6.281  25.257  0.00  0.00    -0.274 OA
ATOM     11  N   UNL     1      -0.725   4.388  25.126  0.00  0.00    -0.328 N 
ATOM     23  C   UNL     1      -1.905   5.087  24.986  0.00  0.00    +0.231 C 
ATOM     39  H   UNL     1      -0.645   3.402  24.902  0.00  0.00    +0.145 HD
ATOM     40  H   UNL     1       0.118   4.852  25.449  0.00  0.00    +0.145 HD
ENDBRANCH  19  23
BRANCH  19  21
ATOM     21  C   UNL     1      -4.326   4.522  25.317  0.00  0.00    +0.074 C 
BRANCH  21  24
ATOM      1  S   UNL     1      -5.435   2.656  27.021  0.00  0.00    -0.102 S 
ATOM     24  C   UNL     1      -5.227   3.321  25.474  0.00  0.00    -0.008 A 
ATOM     27  C   UNL     1      -5.921   2.675  24.499  0.00  0.00    +0.011 A 
ATOM     31  C   UNL     1      -6.661   1.583  25.036  0.00  0.00    +0.008 A 
ATOM     32  C   UNL     1      -6.487   1.458  26.397  0.00  0.00    +0.045 A 
ENDBRANCH  21  24
ENDBRANCH  19  21
ENDBRANCH  10  19
ENDBRANCH  16  18
BRANCH  13   9
ATOM      6  O   UNL     1       1.275  -0.478  21.776  0.00  0.00    -0.270 OA
ATOM      9  N   UNL     1       0.870  -0.966  24.006  0.00  0.00    -0.302 N 
ATOM     20  C   UNL     1       1.676  -0.640  22.925  0.00  0.00    +0.248 C 
ATOM     35  H   UNL     1       1.293  -1.160  24.910  0.00  0.00    +0.150 HD
BRANCH  20  22
ATOM     22  C   UNL     1       3.128  -0.509  23.212  0.00  0.00    +0.078 A 
ATOM     25  C   UNL     1       3.741   0.723  23.111  0.00  0.00    +0.133 A 
ATOM     26  C   UNL     1       3.821  -1.647  23.576  0.00  0.00    +0.018 A 
ATOM     28  C   UNL     1       5.104   0.823  23.385  0.00  0.00    +0.061 A 
ATOM     29  C   UNL     1       5.185  -1.546  23.850  0.00  0.00    +0.015 A 
ATOM     30  C   UNL     1       5.827  -0.311  23.754  0.00  0.00    +0.011 A 
BRANCH  30   2
ATOM      2  S   UNL     1       7.570  -0.183  24.105  0.00  0.00    -0.128 S 
ATOM     34  C   UNL     1       8.302  -0.766  22.549  0.00  0.00    +0.090 C 
ENDBRANCH  30   2
BRANCH  25   7
ATOM      7  O   UNL     1       3.051   1.843  22.753  0.00  0.00    -0.494 OA
ATOM     33  C   UNL     1       1.888   2.157  23.515  0.00  0.00    +0.277 C 
ENDBRANCH  25   7
ENDBRANCH  20  22
ENDBRANCH  13   9
BRANCH  12   3
ATOM      3  O   UNL     1      -0.646  -1.204  26.309  0.00  0.00    -0.387 OA
ATOM     36  H   UNL     1      -1.047  -1.625  27.087  0.00  0.00    +0.210 HD
ENDBRANCH  12   3
BRANCH  14   4
ATOM      4  O   UNL     1      -3.222  -2.534  24.079  0.00  0.00    -0.389 OA
ATOM     37  H   UNL     1      -3.148  -2.012  23.262  0.00  0.00    +0.210 HD
ENDBRANCH  14   4
TORSDOF 11
ENDMDL
MODEL 3
REMARK VINA RESULT:       4.3      1.273      1.692
REMARK  Name = 11882522
REMARK  13 active torsions:
REMARK  status: ('A' for Active; 'I' for Inactive)
REMARK    1  A    between atoms: S_2  and  C_30
REMARK    2  A    between atoms: S_2  and  C_34
REMARK    3  A    between atoms: O_3  and  C_12
REMARK    4  A    between atoms: O_4  and  C_14
REMARK    5  A    between atoms: O_7  and  C_25
REMARK    6  A    between atoms: O_7  and  C_33
REMARK    7  A    between atoms: N_9  and  C_13
REMARK    8  A    between atoms: N_10  and  C_19
REMARK    9  A    between atoms: C_16  and  C_18
REMARK   10  A    between atoms: C_19  and  C_21
REMARK   11  A    between atoms: C_19  and  C_23
REMARK   12  A    between atoms: C_20  and  C_22
REMARK   13  A    between atoms: C_21  and  C_24
REMARK                            x       y       z     vdW  Elec       q    Type
REMARK                         _______ _______ _______ _____ _____    ______ ____
ROOT
ATOM     12  C   UNL     1      -1.675  -2.720  24.589  0.00  0.00    +0.167 C 
ATOM     13  C   UNL     1      -1.365  -1.453  23.770  0.00  0.00    +0.128 C 
ATOM     14  C   UNL     1      -3.185  -2.950  24.722  0.00  0.00    +0.149 C 
ATOM     15  C   UNL     1      -3.903  -1.733  25.330  0.00  0.00    +0.074 C 
ATOM     16  C   UNL     1      -3.361  -0.418  24.849  0.00  0.00    +0.015 C 
ATOM     17  C   UNL     1      -2.229  -0.278  24.142  0.00  0.00    +0.006 C 
ENDROOT
BRANCH  16  18
ATOM      5  O   UNL     1      -5.058   0.774  25.953  0.00  0.00    -0.271 OA
ATOM     10  N   UNL     1      -3.678   1.903  24.451  0.00  0.00    -0.300 N 
ATOM     18  C   UNL     1      -4.124   0.796  25.151  0.00  0.00    +0.241 C 
ATOM     38  H   UNL     1      -2.964   1.806  23.738  0.00  0.00    +0.150 HD
BRANCH  10  19
ATOM     19  C   UNL     1      -4.276   3.213  24.580  0.00  0.00    +0.164 C 
BRANCH  19  23
ATOM      8  O   UNL     1      -4.191   5.148  23.113  0.00  0.00    -0.274 OA
ATOM     11  N   UNL     1      -3.676   3.086  22.242  0.00  0.00    -0.328 N 
ATOM     23  C   UNL     1      -4.068   3.933  23.256  0.00  0.00    +0.231 C 
ATOM     39  H   UNL     1      -3.576   2.085  22.375  0.00  0.00    +0.145 HD
ATOM     40  H   UNL     1      -3.489   3.442  21.310  0.00  0.00    +0.145 HD
ENDBRANCH  19  23
BRANCH  19  21
ATOM     21  C   UNL     1      -3.661   4.019  25.730  0.00  0.00    +0.074 C 
BRANCH  21  24
ATOM      1  S   UNL     1      -1.151   4.927  25.028  0.00  0.00    -0.102 S 
ATOM     24  C   UNL     1      -2.167   3.835  25.839  0.00  0.00    -0.008 A 
ATOM     27  C   UNL     1      -1.500   2.872  26.528  0.00  0.00    +0.011 A 
ATOM     31  C   UNL     1      -0.091   3.027  26.392  0.00  0.00    +0.008 A 
ATOM     32  C   UNL     1       0.237   4.106  25.601  0.00  0.00    +0.045 A 
ENDBRANCH  21  24
ENDBRANCH  19  21
ENDBRANCH  10  19
ENDBRANCH  16  18
BRANCH  13   9
ATOM      6  O   UNL     1       0.394  -0.705  21.627  0.00  0.00    -0.270 OA
ATOM      9  N   UNL     1       0.021  -1.068  23.887  0.00  0.00    -0.302 N 
ATOM     20  C   UNL     1       0.794  -0.721  22.788  0.00  0.00    +0.248 C 
ATOM     35  H   UNL     1       0.449  -1.133  24.805  0.00  0.00    +0.150 HD
BRANCH  20  22
ATOM     22  C   UNL     1       2.210  -0.376  23.074  0.00  0.00    +0.078 A 
ATOM     25  C   UNL     1       2.601   0.947  23.112  0.00  0.00    +0.133 A 
ATOM     26  C   UNL     1       3.098  -1.410  23.293  0.00  0.00    +0.018 A 
ATOM     28  C   UNL     1       3.935   1.250  23.382  0.00  0.00    +0.061 A 
ATOM     29  C   UNL     1       4.433  -1.107  23.563  0.00  0.00    +0.015 A 
ATOM     30  C   UNL     1       4.851   0.223  23.607  0.00  0.00    +0.011 A 
BRANCH  30   2
ATOM      2  S   UNL     1       6.557   0.609  23.952  0.00  0.00    -0.128 S 
ATOM     34  C   UNL     1       7.426  -0.614  22.930  0.00  0.00    +0.090 C 
ENDBRANCH  30   2
BRANCH  25   7
ATOM      7  O   UNL     1       1.720   1.965  22.895  0.00  0.00    -0.494 OA
ATOM     33  C   UNL     1       0.567   2.011  23.733  0.00  0.00    +0.277 C 
ENDBRANCH  25   7
ENDBRANCH  20  22
ENDBRANCH  13   9
BRANCH  12   3
ATOM      3  O   UNL     1      -1.112  -2.595  25.897  0.00  0.00    -0.387 OA
ATOM     36  H   UNL     1      -1.500  -3.276  26.472  0.00  0.00    +0.210 HD
ENDBRANCH  12   3
BRANCH  14   4
ATOM      4  O   UNL     1      -3.747  -3.264  23.449  0.00  0.00    -0.389 OA
ATOM     37  H   UNL     1      -4.704  -3.099  23.501  0.00  0.00    +0.210 HD
ENDBRANCH  14   4
TORSDOF 11
ENDMDL
MODEL 4
REMARK VINA RESULT:       4.3      1.239      1.805
REMARK  Name = 11882522
REMARK  13 active torsions:
REMARK  status: ('A' for Active; 'I' for Inactive)
REMARK    1  A    between atoms: S_2  and  C_30
REMARK    2  A    between atoms: S_2  and  C_34
REMARK    3  A    between atoms: O_3  and  C_12
REMARK    4  A    between atoms: O_4  and  C_14
REMARK    5  A    between atoms: O_7  and  C_25
REMARK    6  A    between atoms: O_7  and  C_33
REMARK    7  A    between atoms: N_9  and  C_13
REMARK    8  A    between atoms: N_10  and  C_19
REMARK    9  A    between atoms: C_16  and  C_18
REMARK   10  A    between atoms: C_19  and  C_21
REMARK   11  A    between atoms: C_19  and  C_23
REMARK   12  A    between atoms: C_20  and  C_22
REMARK   13  A    between atoms: C_21  and  C_24
REMARK                            x       y       z     vdW  Elec       q    Type
REMARK                         _______ _______ _______ _____ _____    ______ ____
ROOT
ATOM     12  C   UNL     1      -2.054  -2.420  24.234  0.00  0.00    +0.167 C 
ATOM     13  C   UNL     1      -1.681  -1.067  23.598  0.00  0.00    +0.128 C 
ATOM     14  C   UNL     1      -3.573  -2.578  24.369  0.00  0.00    +0.149 C 
ATOM     15  C   UNL     1      -4.208  -1.422  25.161  0.00  0.00    +0.074 C 
ATOM     16  C   UNL     1      -3.593  -0.085  24.860  0.00  0.00    +0.015 C 
ATOM     17  C   UNL     1      -2.466   0.089  24.155  0.00  0.00    +0.006 C 
ENDROOT
BRANCH  16  18
ATOM      5  O   UNL     1      -5.501   1.140  25.478  0.00  0.00    -0.271 OA
ATOM     10  N   UNL     1      -3.408   2.155  25.631  0.00  0.00    -0.300 N 
ATOM     18  C   UNL     1      -4.277   1.115  25.351  0.00  0.00    +0.241 C 
ATOM     38  H   UNL     1      -2.423   2.077  25.404  0.00  0.00    +0.150 HD
BRANCH  10  19
ATOM     19  C   UNL     1      -3.848   3.441  26.124  0.00  0.00    +0.164 C 
BRANCH  19  23
ATOM      8  O   UNL     1      -4.624   4.219  23.957  0.00  0.00    -0.274 OA
ATOM     11  N   UNL     1      -6.130   4.107  25.689  0.00  0.00    -0.328 N 
ATOM     23  C   UNL     1      -4.873   3.974  25.136  0.00  0.00    +0.231 C 
ATOM     39  H   UNL     1      -6.322   3.899  26.664  0.00  0.00    +0.145 HD
ATOM     40  H   UNL     1      -6.910   4.440  25.132  0.00  0.00    +0.145 HD
ENDBRANCH  19  23
BRANCH  19  21
ATOM     21  C   UNL     1      -2.686   4.431  26.276  0.00  0.00    +0.074 C 
BRANCH  21  24
ATOM      1  S   UNL     1      -0.596   2.644  26.045  0.00  0.00    -0.102 S 
ATOM     24  C   UNL     1      -1.455   4.008  25.512  0.00  0.00    -0.008 A 
ATOM     27  C   UNL     1      -0.921   4.598  24.411  0.00  0.00    +0.011 A 
ATOM     31  C   UNL     1       0.246   3.908  23.975  0.00  0.00    +0.008 A 
ATOM     32  C   UNL     1       0.538   2.826  24.775  0.00  0.00    +0.045 A 
ENDBRANCH  21  24
ENDBRANCH  19  21
ENDBRANCH  10  19
ENDBRANCH  16  18
BRANCH  13   9
ATOM      6  O   UNL     1       0.150  -0.399  21.489  0.00  0.00    -0.270 OA
ATOM      9  N   UNL     1      -0.272  -0.784  23.736  0.00  0.00    -0.302 N 
ATOM     20  C   UNL     1       0.535  -0.469  22.653  0.00  0.00    +0.248 C 
ATOM     35  H   UNL     1       0.141  -0.900  24.657  0.00  0.00    +0.150 HD
BRANCH  20  22
ATOM     22  C   UNL     1       1.969  -0.231  22.959  0.00  0.00    +0.078 A 
ATOM     25  C   UNL     1       2.693  -1.184  23.646  0.00  0.00    +0.133 A 
ATOM     26  C   UNL     1       2.533   0.957  22.538  0.00  0.00    +0.018 A 
ATOM     28  C   UNL     1       4.038  -0.940  23.924  0.00  0.00    +0.061 A 
ATOM     29  C   UNL     1       3.878   1.200  22.816  0.00  0.00    +0.015 A 
ATOM     30  C   UNL     1       4.630   0.252  23.509  0.00  0.00    +0.011 A 
BRANCH  30   2
ATOM      2  S   UNL     1       6.349   0.564  23.863  0.00  0.00    -0.128 S 
ATOM     34  C   UNL     1       7.171  -0.674  22.819  0.00  0.00    +0.090 C 
ENDBRANCH  30   2
BRANCH  25   7
ATOM      7  O   UNL     1       2.131  -2.356  24.059  0.00  0.00    -0.494 OA
ATOM     33  C   UNL     1       1.436  -2.336  25.303  0.00  0.00    +0.277 C 
ENDBRANCH  25   7
ENDBRANCH  20  22
ENDBRANCH  13   9
BRANCH  12   3
ATOM      3  O   UNL     1      -1.466  -2.517  25.534  0.00  0.00    -0.387 OA
ATOM     36  H   UNL     1      -2.138  -2.298  26.200  0.00  0.00    +0.210 HD
ENDBRANCH  12   3
BRANCH  14   4
ATOM      4  O   UNL     1      -4.173  -2.673  23.078  0.00  0.00    -0.389 OA
ATOM     37  H   UNL     1      -3.908  -3.524  22.692  0.00  0.00    +0.210 HD
ENDBRANCH  14   4
TORSDOF 11
ENDMDL
MODEL 5
REMARK VINA RESULT:       6.3      2.194      4.912
REMARK  Name = 11882522
REMARK  13 active torsions:
REMARK  status: ('A' for Active; 'I' for Inactive)
REMARK    1  A    between atoms: S_2  and  C_30
REMARK    2  A    between atoms: S_2  and  C_34
REMARK    3  A    between atoms: O_3  and  C_12
REMARK    4  A    between atoms: O_4  and  C_14
REMARK    5  A    between atoms: O_7  and  C_25
REMARK    6  A    between atoms: O_7  and  C_33
REMARK    7  A    between atoms: N_9  and  C_13
REMARK    8  A    between atoms: N_10  and  C_19
REMARK    9  A    between atoms: C_16  and  C_18
REMARK   10  A    between atoms: C_19  and  C_21
REMARK   11  A    between atoms: C_19  and  C_23
REMARK   12  A    between atoms: C_20  and  C_22
REMARK   13  A    between atoms: C_21  and  C_24
REMARK                            x       y       z     vdW  Elec       q    Type
REMARK                         _______ _______ _______ _____ _____    ______ ____
ROOT
ATOM     12  C   UNL     1      -0.379   5.164  24.289  0.00  0.00    +0.167 C 
ATOM     13  C   UNL     1      -0.457   3.891  25.153  0.00  0.00    +0.128 C 
ATOM     14  C   UNL     1      -1.649   6.013  24.423  0.00  0.00    +0.149 C 
ATOM     15  C   UNL     1      -2.918   5.214  24.082  0.00  0.00    +0.074 C 
ATOM     16  C   UNL     1      -2.881   3.796  24.577  0.00  0.00    +0.015 C 
ATOM     17  C   UNL     1      -1.787   3.193  25.066  0.00  0.00    +0.006 C 
ENDROOT
BRANCH  16  18
ATOM      5  O   UNL     1      -5.157   3.499  24.075  0.00  0.00    -0.271 OA
ATOM     10  N   UNL     1      -3.985   1.754  25.081  0.00  0.00    -0.300 N 
ATOM     18  C   UNL     1      -4.124   3.020  24.543  0.00  0.00    +0.241 C 
ATOM     38  H   UNL     1      -3.119   1.479  25.532  0.00  0.00    +0.150 HD
BRANCH  10  19
ATOM     19  C   UNL     1      -5.073   0.805  25.161  0.00  0.00    +0.164 C 
BRANCH  19  23
ATOM      8  O   UNL     1      -6.343   1.991  26.859  0.00  0.00    -0.274 OA
ATOM     11  N   UNL     1      -7.274   1.724  24.776  0.00  0.00    -0.328 N 
ATOM     23  C   UNL     1      -6.278   1.550  25.713  0.00  0.00    +0.231 C 
ATOM     39  H   UNL     1      -7.207   1.357  23.832  0.00  0.00    +0.145 HD
ATOM     40  H   UNL     1      -8.128   2.220  25.011  0.00  0.00    +0.145 HD
ENDBRANCH  19  23
BRANCH  19  21
ATOM     21  C   UNL     1      -4.730  -0.394  26.053  0.00  0.00    +0.074 C 
BRANCH  21  24
ATOM      1  S   UNL     1      -4.115  -1.533  23.616  0.00  0.00    -0.102 S 
ATOM     24  C   UNL     1      -4.003  -1.488  25.309  0.00  0.00    -0.008 A 
ATOM     27  C   UNL     1      -3.239  -2.481  25.837  0.00  0.00    +0.011 A 
ATOM     31  C   UNL     1      -2.718  -3.323  24.814  0.00  0.00    +0.008 A 
ATOM     32  C   UNL     1      -3.116  -2.922  23.558  0.00  0.00    +0.045 A 
ENDBRANCH  21  24
ENDBRANCH  19  21
ENDBRANCH  10  19
ENDBRANCH  16  18
BRANCH  13   9
ATOM      6  O   UNL     1      -0.571   1.863  23.123  0.00  0.00    -0.270 OA
ATOM      9  N   UNL     1       0.585   2.952  24.813  0.00  0.00    -0.302 N 
ATOM     20  C   UNL     1       0.436   2.003  23.811  0.00  0.00    +0.248 C 
ATOM     35  H   UNL     1       1.421   2.950  25.390  0.00  0.00    +0.150 HD
BRANCH  20  22
ATOM     22  C   UNL     1       1.592   1.093  23.603  0.00  0.00    +0.078 A 
ATOM     25  C   UNL     1       1.399  -0.273  23.599  0.00  0.00    +0.133 A 
ATOM     26  C   UNL     1       2.838   1.659  23.419  0.00  0.00    +0.018 A 
ATOM     28  C   UNL     1       2.497  -1.110  23.402  0.00  0.00    +0.061 A 
ATOM     29  C   UNL     1       3.936   0.822  23.221  0.00  0.00    +0.015 A 
ATOM     30  C   UNL     1       3.766  -0.562  23.214  0.00  0.00    +0.011 A 
BRANCH  30   2
ATOM      2  S   UNL     1       5.170  -1.631  22.962  0.00  0.00    -0.128 S 
ATOM     34  C   UNL     1       6.530  -0.608  23.596  0.00  0.00    +0.090 C 
ENDBRANCH  30   2
BRANCH  25   7
ATOM      7  O   UNL     1       0.166  -0.827  23.781  0.00  0.00    -0.494 OA
ATOM     33  C   UNL     1      -0.264  -1.020  25.126  0.00  0.00    +0.277 C 
ENDBRANCH  25   7
ENDBRANCH  20  22
ENDBRANCH  13   9
BRANCH  12   3
ATOM      3  O   UNL     1      -0.212   4.802  22.916  0.00  0.00    -0.387 OA
ATOM     36  H   UNL     1      -0.987   5.104  22.415  0.00  0.00    +0.210 HD
ENDBRANCH  12   3
BRANCH  14   4
ATOM      4  O   UNL     1      -1.746   6.546  25.742  0.00  0.00    -0.389 OA
ATOM     37  H   UNL     1      -2.179   7.414  25.678  0.00  0.00    +0.210 HD
ENDBRANCH  14   4
TORSDOF 11
ENDMDL
