MODEL 1
REMARK VINA RESULT:       9.2      0.000      0.000
REMARK  Name = 11911663
REMARK  10 active torsions:
REMARK  status: ('A' for Active; 'I' for Inactive)
REMARK    1  A    between atoms: O_3  and  C_14
REMARK    2  A    between atoms: O_3  and  C_18
REMARK    3  A    between atoms: N_6  and  C_13
REMARK    4  A    between atoms: N_9  and  C_22
REMARK    5  A    between atoms: N_10  and  C_32
REMARK    6  A    between atoms: N_10  and  C_35
REMARK    7  A    between atoms: N_10  and  C_36
REMARK    8  A    between atoms: C_19  and  C_23
REMARK    9  A    between atoms: C_28  and  C_34
REMARK   10  A    between atoms: C_34  and  C_37
REMARK                            x       y       z     vdW  Elec       q    Type
REMARK                         _______ _______ _______ _____ _____    ______ ____
ROOT
ATOM      1  O   UNL     1      -3.320  -1.056  23.597  0.00  0.00    -0.368 OA
ATOM      2  O   UNL     1      -3.943  -0.903  26.597  0.00  0.00    -0.368 OA
ATOM     11  C   UNL     1      -3.820   0.125  25.592  0.00  0.00    +0.173 C 
ATOM     12  C   UNL     1      -2.707  -0.306  24.657  0.00  0.00    +0.192 C 
ATOM     13  C   UNL     1      -5.050   0.137  24.714  0.00  0.00    +0.130 C 
ATOM     14  C   UNL     1      -1.857  -1.184  25.545  0.00  0.00    +0.235 C 
ATOM     15  C   UNL     1      -4.749  -0.970  23.719  0.00  0.00    +0.185 C 
ATOM     16  C   UNL     1      -2.896  -1.864  26.408  0.00  0.00    +0.207 C 
ENDROOT
BRANCH  13   6
ATOM      6  N   UNL     1      -5.165   1.409  24.031  0.00  0.00    -0.306 N 
ATOM      7  N   UNL     1      -3.279   2.256  25.087  0.00  0.00    -0.214 NA
ATOM      8  N   UNL     1      -4.527   3.579  23.506  0.00  0.00    -0.223 NA
ATOM     17  C   UNL     1      -4.285   2.460  24.216  0.00  0.00    +0.216 A 
ATOM     19  C   UNL     1      -2.440   3.300  25.244  0.00  0.00    +0.076 A 
ATOM     20  C   UNL     1      -3.649   4.583  23.711  0.00  0.00    +0.116 A 
ATOM     21  C   UNL     1      -2.577   4.500  24.575  0.00  0.00    +0.048 A 
ATOM     38  H   UNL     1      -5.894   1.537  23.338  0.00  0.00    +0.149 HD
BRANCH  19  23
ATOM     23  C   UNL     1      -1.359   3.085  26.176  0.00  0.00    +0.001 A 
ATOM     26  C   UNL     1      -1.580   3.233  27.545  0.00  0.00    +0.012 A 
ATOM     27  C   UNL     1      -0.095   2.726  25.708  0.00  0.00    +0.012 A 
ATOM     29  C   UNL     1      -0.536   3.023  28.446  0.00  0.00    +0.024 A 
ATOM     30  C   UNL     1       0.948   2.516  26.610  0.00  0.00    +0.024 A 
ATOM     32  C   UNL     1       0.727   2.665  27.978  0.00  0.00    +0.029 A 
BRANCH  32  10
ATOM     10  N   UNL     1       1.784   2.453  28.890  0.00  0.00    -0.336 N 
ATOM     35  C   UNL     1       3.144   2.802  28.531  0.00  0.00    +0.129 C 
ATOM     36  C   UNL     1       1.521   1.896  30.202  0.00  0.00    +0.129 C 
ENDBRANCH  32  10
ENDBRANCH  19  23
ENDBRANCH  13   6
BRANCH  14   3
ATOM      3  O   UNL     1      -1.070  -2.111  24.831  0.00  0.00    -0.442 OA
BRANCH   3  18
ATOM      4  O   UNL     1       1.116  -2.510  25.373  0.00  0.00    -0.226 OA
ATOM      9  N   UNL     1       0.506  -0.784  23.913  0.00  0.00    -0.251 N 
ATOM     18  C   UNL     1       0.284  -1.853  24.758  0.00  0.00    +0.405 C 
ATOM     39  H   UNL     1      -0.319  -0.365  23.492  0.00  0.00    +0.158 HD
BRANCH   9  22
ATOM     22  C   UNL     1       1.742  -0.196  23.561  0.00  0.00    +0.037 A 
ATOM     24  C   UNL     1       2.929  -0.904  23.745  0.00  0.00    +0.034 A 
ATOM     25  C   UNL     1       1.774   1.094  23.030  0.00  0.00    +0.023 A 
ATOM     28  C   UNL     1       4.149  -0.323  23.396  0.00  0.00    +0.019 A 
ATOM     31  C   UNL     1       2.993   1.674  22.681  0.00  0.00    +0.002 A 
ATOM     33  C   UNL     1       4.181   0.966  22.863  0.00  0.00    +0.011 A 
BRANCH  28  34
ATOM      5  O   UNL     1       5.389  -2.239  23.991  0.00  0.00    -0.292 OA
ATOM     34  C   UNL     1       5.388  -1.060  23.586  0.00  0.00    +0.160 C 
ATOM     37  C   UNL     1       6.729  -0.397  23.288  0.00  0.00    +0.091 C 
ENDBRANCH  28  34
ENDBRANCH   9  22
ENDBRANCH   3  18
ENDBRANCH  14   3
TORSDOF 7
ENDMDL
MODEL 2
REMARK VINA RESULT:      10.7      2.645      5.026
REMARK  Name = 11911663
REMARK  10 active torsions:
REMARK  status: ('A' for Active; 'I' for Inactive)
REMARK    1  A    between atoms: O_3  and  C_14
REMARK    2  A    between atoms: O_3  and  C_18
REMARK    3  A    between atoms: N_6  and  C_13
REMARK    4  A    between atoms: N_9  and  C_22
REMARK    5  A    between atoms: N_10  and  C_32
REMARK    6  A    between atoms: N_10  and  C_35
REMARK    7  A    between atoms: N_10  and  C_36
REMARK    8  A    between atoms: C_19  and  C_23
REMARK    9  A    between atoms: C_28  and  C_34
REMARK   10  A    between atoms: C_34  and  C_37
REMARK                            x       y       z     vdW  Elec       q    Type
REMARK                         _______ _______ _______ _____ _____    ______ ____
ROOT
ATOM      1  O   UNL     1      -1.877   2.486  25.308  0.00  0.00    -0.368 OA
ATOM      2  O   UNL     1      -0.357   5.034  24.528  0.00  0.00    -0.368 OA
ATOM     11  C   UNL     1      -1.769   4.748  24.603  0.00  0.00    +0.173 C 
ATOM     12  C   UNL     1      -1.952   3.317  24.138  0.00  0.00    +0.192 C 
ATOM     13  C   UNL     1      -2.216   4.723  26.046  0.00  0.00    +0.130 C 
ATOM     14  C   UNL     1      -0.762   3.113  23.231  0.00  0.00    +0.235 C 
ATOM     15  C   UNL     1      -1.837   3.318  26.479  0.00  0.00    +0.185 C 
ATOM     16  C   UNL     1       0.312   3.915  23.931  0.00  0.00    +0.207 C 
ENDROOT
BRANCH  13   6
ATOM      6  N   UNL     1      -3.650   4.905  26.130  0.00  0.00    -0.306 N 
ATOM      7  N   UNL     1      -4.061   2.691  25.565  0.00  0.00    -0.214 NA
ATOM      8  N   UNL     1      -5.866   4.224  26.012  0.00  0.00    -0.223 NA
ATOM     17  C   UNL     1      -4.565   3.896  25.892  0.00  0.00    +0.216 A 
ATOM     19  C   UNL     1      -4.980   1.730  25.341  0.00  0.00    +0.076 A 
ATOM     20  C   UNL     1      -6.731   3.215  25.774  0.00  0.00    +0.116 A 
ATOM     21  C   UNL     1      -6.342   1.937  25.431  0.00  0.00    +0.048 A 
ATOM     38  H   UNL     1      -4.020   5.801  26.428  0.00  0.00    +0.149 HD
BRANCH  19  23
ATOM     23  C   UNL     1      -4.443   0.437  24.991  0.00  0.00    +0.001 A 
ATOM     26  C   UNL     1      -4.434   0.024  23.659  0.00  0.00    +0.012 A 
ATOM     27  C   UNL     1      -3.931  -0.398  25.984  0.00  0.00    +0.012 A 
ATOM     29  C   UNL     1      -3.914  -1.225  23.320  0.00  0.00    +0.024 A 
ATOM     30  C   UNL     1      -3.411  -1.647  25.645  0.00  0.00    +0.024 A 
ATOM     32  C   UNL     1      -3.402  -2.060  24.313  0.00  0.00    +0.029 A 
BRANCH  32  10
ATOM     10  N   UNL     1      -2.876  -3.324  23.971  0.00  0.00    -0.336 N 
ATOM     35  C   UNL     1      -1.444  -3.517  23.858  0.00  0.00    +0.129 C 
ATOM     36  C   UNL     1      -3.760  -4.449  23.744  0.00  0.00    +0.129 C 
ENDBRANCH  32  10
ENDBRANCH  19  23
ENDBRANCH  13   6
BRANCH  14   3
ATOM      3  O   UNL     1      -0.398   1.760  23.076  0.00  0.00    -0.442 OA
BRANCH   3  18
ATOM      4  O   UNL     1       0.929   1.663  24.936  0.00  0.00    -0.226 OA
ATOM      9  N   UNL     1       1.465   0.493  22.980  0.00  0.00    -0.251 N 
ATOM     18  C   UNL     1       0.707   1.326  23.779  0.00  0.00    +0.405 C 
ATOM     39  H   UNL     1       1.115   0.331  22.040  0.00  0.00    +0.158 HD
BRANCH   9  22
ATOM     22  C   UNL     1       2.673  -0.165  23.308  0.00  0.00    +0.037 A 
ATOM     24  C   UNL     1       3.872   0.547  23.326  0.00  0.00    +0.034 A 
ATOM     25  C   UNL     1       2.664  -1.525  23.614  0.00  0.00    +0.023 A 
ATOM     28  C   UNL     1       5.064  -0.102  23.651  0.00  0.00    +0.019 A 
ATOM     31  C   UNL     1       3.856  -2.174  23.939  0.00  0.00    +0.002 A 
ATOM     33  C   UNL     1       5.055  -1.463  23.958  0.00  0.00    +0.011 A 
BRANCH  28  34
ATOM      5  O   UNL     1       6.378   1.799  24.121  0.00  0.00    -0.292 OA
ATOM     34  C   UNL     1       6.315   0.639  23.671  0.00  0.00    +0.160 C 
ATOM     37  C   UNL     1       7.593   0.001  23.135  0.00  0.00    +0.091 C 
ENDBRANCH  28  34
ENDBRANCH   9  22
ENDBRANCH   3  18
ENDBRANCH  14   3
TORSDOF 7
ENDMDL
MODEL 3
REMARK VINA RESULT:      10.9      2.449      4.605
REMARK  Name = 11911663
REMARK  10 active torsions:
REMARK  status: ('A' for Active; 'I' for Inactive)
REMARK    1  A    between atoms: O_3  and  C_14
REMARK    2  A    between atoms: O_3  and  C_18
REMARK    3  A    between atoms: N_6  and  C_13
REMARK    4  A    between atoms: N_9  and  C_22
REMARK    5  A    between atoms: N_10  and  C_32
REMARK    6  A    between atoms: N_10  and  C_35
REMARK    7  A    between atoms: N_10  and  C_36
REMARK    8  A    between atoms: C_19  and  C_23
REMARK    9  A    between atoms: C_28  and  C_34
REMARK   10  A    between atoms: C_34  and  C_37
REMARK                            x       y       z     vdW  Elec       q    Type
REMARK                         _______ _______ _______ _____ _____    ______ ____
ROOT
ATOM      1  O   UNL     1      -2.305   3.001  26.402  0.00  0.00    -0.368 OA
ATOM      2  O   UNL     1      -1.290   5.324  24.674  0.00  0.00    -0.368 OA
ATOM     11  C   UNL     1      -2.585   4.692  24.763  0.00  0.00    +0.173 C 
ATOM     12  C   UNL     1      -2.337   3.213  24.981  0.00  0.00    +0.192 C 
ATOM     13  C   UNL     1      -3.289   5.134  26.025  0.00  0.00    +0.130 C 
ATOM     14  C   UNL     1      -0.977   3.014  24.356  0.00  0.00    +0.235 C 
ATOM     15  C   UNL     1      -2.689   4.212  27.072  0.00  0.00    +0.185 C 
ATOM     16  C   UNL     1      -0.277   4.309  24.697  0.00  0.00    +0.207 C 
ENDROOT
BRANCH  13   6
ATOM      6  N   UNL     1      -4.714   4.905  25.910  0.00  0.00    -0.306 N 
ATOM      7  N   UNL     1      -4.410   2.650  25.446  0.00  0.00    -0.214 NA
ATOM      8  N   UNL     1      -6.614   3.619  25.552  0.00  0.00    -0.223 NA
ATOM     17  C   UNL     1      -5.270   3.671  25.624  0.00  0.00    +0.216 A 
ATOM     19  C   UNL     1      -4.986   1.462  25.169  0.00  0.00    +0.076 A 
ATOM     20  C   UNL     1      -7.122   2.401  25.272  0.00  0.00    +0.116 A 
ATOM     21  C   UNL     1      -6.350   1.276  25.068  0.00  0.00    +0.048 A 
ATOM     38  H   UNL     1      -5.357   5.666  26.097  0.00  0.00    +0.149 HD
BRANCH  19  23
ATOM     23  C   UNL     1      -4.067   0.365  24.979  0.00  0.00    +0.001 A 
ATOM     26  C   UNL     1      -4.223  -0.493  23.891  0.00  0.00    +0.012 A 
ATOM     27  C   UNL     1      -3.022   0.166  25.881  0.00  0.00    +0.012 A 
ATOM     29  C   UNL     1      -3.335  -1.553  23.706  0.00  0.00    +0.024 A 
ATOM     30  C   UNL     1      -2.134  -0.894  25.696  0.00  0.00    +0.024 A 
ATOM     32  C   UNL     1      -2.290  -1.752  24.608  0.00  0.00    +0.029 A 
BRANCH  32  10
ATOM     10  N   UNL     1      -1.391  -2.824  24.422  0.00  0.00    -0.336 N 
ATOM     35  C   UNL     1      -0.186  -2.919  25.222  0.00  0.00    +0.129 C 
ATOM     36  C   UNL     1      -1.668  -3.851  23.438  0.00  0.00    +0.129 C 
ENDBRANCH  32  10
ENDBRANCH  19  23
ENDBRANCH  13   6
BRANCH  14   3
ATOM      3  O   UNL     1      -0.287   1.889  24.855  0.00  0.00    -0.442 OA
BRANCH   3  18
ATOM      4  O   UNL     1      -0.126   0.343  23.178  0.00  0.00    -0.226 OA
ATOM      9  N   UNL     1       1.764   1.421  24.043  0.00  0.00    -0.251 N 
ATOM     18  C   UNL     1       0.416   1.133  23.941  0.00  0.00    +0.405 C 
ATOM     39  H   UNL     1       2.024   2.112  24.742  0.00  0.00    +0.158 HD
BRANCH   9  22
ATOM     22  C   UNL     1       2.830   0.871  23.295  0.00  0.00    +0.037 A 
ATOM     24  C   UNL     1       4.004   0.481  23.938  0.00  0.00    +0.034 A 
ATOM     25  C   UNL     1       2.707   0.720  21.914  0.00  0.00    +0.023 A 
ATOM     28  C   UNL     1       5.056  -0.063  23.200  0.00  0.00    +0.019 A 
ATOM     31  C   UNL     1       3.758   0.177  21.176  0.00  0.00    +0.002 A 
ATOM     33  C   UNL     1       4.932  -0.215  21.818  0.00  0.00    +0.011 A 
BRANCH  28  34
ATOM      5  O   UNL     1       6.262  -0.995  24.999  0.00  0.00    -0.292 OA
ATOM     34  C   UNL     1       6.280  -0.472  23.868  0.00  0.00    +0.160 C 
ATOM     37  C   UNL     1       7.631  -0.267  23.189  0.00  0.00    +0.091 C 
ENDBRANCH  28  34
ENDBRANCH   9  22
ENDBRANCH   3  18
ENDBRANCH  14   3
TORSDOF 7
ENDMDL
MODEL 4
REMARK VINA RESULT:      11.9      2.624      6.508
REMARK  Name = 11911663
REMARK  10 active torsions:
REMARK  status: ('A' for Active; 'I' for Inactive)
REMARK    1  A    between atoms: O_3  and  C_14
REMARK    2  A    between atoms: O_3  and  C_18
REMARK    3  A    between atoms: N_6  and  C_13
REMARK    4  A    between atoms: N_9  and  C_22
REMARK    5  A    between atoms: N_10  and  C_32
REMARK    6  A    between atoms: N_10  and  C_35
REMARK    7  A    between atoms: N_10  and  C_36
REMARK    8  A    between atoms: C_19  and  C_23
REMARK    9  A    between atoms: C_28  and  C_34
REMARK   10  A    between atoms: C_34  and  C_37
REMARK                            x       y       z     vdW  Elec       q    Type
REMARK                         _______ _______ _______ _____ _____    ______ ____
ROOT
ATOM      1  O   UNL     1      -1.798  -1.202  24.308  0.00  0.00    -0.368 OA
ATOM      2  O   UNL     1      -1.623  -3.870  25.812  0.00  0.00    -0.368 OA
ATOM     11  C   UNL     1      -0.804  -3.306  24.766  0.00  0.00    +0.173 C 
ATOM     12  C   UNL     1      -1.736  -2.557  23.834  0.00  0.00    +0.192 C 
ATOM     13  C   UNL     1       0.088  -2.227  25.335  0.00  0.00    +0.130 C 
ATOM     14  C   UNL     1      -3.047  -3.279  24.034  0.00  0.00    +0.235 C 
ATOM     15  C   UNL     1      -0.835  -1.022  25.359  0.00  0.00    +0.185 C 
ATOM     16  C   UNL     1      -3.002  -3.619  25.506  0.00  0.00    +0.207 C 
ENDROOT
BRANCH  13   6
ATOM      6  N   UNL     1       1.208  -1.985  24.450  0.00  0.00    -0.306 N 
ATOM      7  N   UNL     1       0.767   0.292  24.359  0.00  0.00    -0.214 NA
ATOM      8  N   UNL     1       2.617  -0.672  23.152  0.00  0.00    -0.223 NA
ATOM     17  C   UNL     1       1.545  -0.734  23.966  0.00  0.00    +0.216 A 
ATOM     19  C   UNL     1       1.124   1.498  23.869  0.00  0.00    +0.076 A 
ATOM     20  C   UNL     1       2.917   0.563  22.700  0.00  0.00    +0.116 A 
ATOM     21  C   UNL     1       2.200   1.695  23.028  0.00  0.00    +0.048 A 
ATOM     38  H   UNL     1       1.820  -2.754  24.201  0.00  0.00    +0.149 HD
BRANCH  19  23
ATOM     23  C   UNL     1       0.292   2.601  24.289  0.00  0.00    +0.001 A 
ATOM     26  C   UNL     1       0.309   3.797  23.572  0.00  0.00    +0.012 A 
ATOM     27  C   UNL     1      -0.530   2.469  25.408  0.00  0.00    +0.012 A 
ATOM     29  C   UNL     1      -0.496   4.863  23.976  0.00  0.00    +0.024 A 
ATOM     30  C   UNL     1      -1.334   3.534  25.812  0.00  0.00    +0.024 A 
ATOM     32  C   UNL     1      -1.317   4.731  25.095  0.00  0.00    +0.029 A 
BRANCH  32  10
ATOM     10  N   UNL     1      -2.131   5.808  25.505  0.00  0.00    -0.336 N 
ATOM     35  C   UNL     1      -2.113   7.061  24.777  0.00  0.00    +0.129 C 
ATOM     36  C   UNL     1      -3.007   5.671  26.651  0.00  0.00    +0.129 C 
ENDBRANCH  32  10
ENDBRANCH  19  23
ENDBRANCH  13   6
BRANCH  14   3
ATOM      3  O   UNL     1      -4.175  -2.499  23.703  0.00  0.00    -0.442 OA
BRANCH   3  18
ATOM      4  O   UNL     1      -4.467  -1.074  25.468  0.00  0.00    -0.226 OA
ATOM      9  N   UNL     1      -4.063  -0.283  23.301  0.00  0.00    -0.251 N 
ATOM     18  C   UNL     1      -4.256  -1.246  24.273  0.00  0.00    +0.405 C 
ATOM     39  H   UNL     1      -3.899  -0.624  22.357  0.00  0.00    +0.158 HD
BRANCH   9  22
ATOM     22  C   UNL     1      -4.066   1.122  23.455  0.00  0.00    +0.037 A 
ATOM     24  C   UNL     1      -4.819   1.710  24.471  0.00  0.00    +0.034 A 
ATOM     25  C   UNL     1      -3.317   1.919  22.590  0.00  0.00    +0.023 A 
ATOM     28  C   UNL     1      -4.821   3.097  24.624  0.00  0.00    +0.019 A 
ATOM     31  C   UNL     1      -3.319   3.306  22.743  0.00  0.00    +0.002 A 
ATOM     33  C   UNL     1      -4.070   3.895  23.759  0.00  0.00    +0.011 A 
BRANCH  28  34
ATOM      5  O   UNL     1      -5.838   3.115  26.751  0.00  0.00    -0.292 OA
ATOM     34  C   UNL     1      -5.604   3.713  25.683  0.00  0.00    +0.160 C 
ATOM     37  C   UNL     1      -6.160   5.122  25.507  0.00  0.00    +0.091 C 
ENDBRANCH  28  34
ENDBRANCH   9  22
ENDBRANCH   3  18
ENDBRANCH  14   3
TORSDOF 7
ENDMDL
MODEL 5
REMARK VINA RESULT:      12.2      2.777      5.920
REMARK  Name = 11911663
REMARK  10 active torsions:
REMARK  status: ('A' for Active; 'I' for Inactive)
REMARK    1  A    between atoms: O_3  and  C_14
REMARK    2  A    between atoms: O_3  and  C_18
REMARK    3  A    between atoms: N_6  and  C_13
REMARK    4  A    between atoms: N_9  and  C_22
REMARK    5  A    between atoms: N_10  and  C_32
REMARK    6  A    between atoms: N_10  and  C_35
REMARK    7  A    between atoms: N_10  and  C_36
REMARK    8  A    between atoms: C_19  and  C_23
REMARK    9  A    between atoms: C_28  and  C_34
REMARK   10  A    between atoms: C_34  and  C_37
REMARK                            x       y       z     vdW  Elec       q    Type
REMARK                         _______ _______ _______ _____ _____    ______ ____
ROOT
ATOM      1  O   UNL     1      -4.193   2.264  25.643  0.00  0.00    -0.368 OA
ATOM      2  O   UNL     1      -3.837   2.447  22.601  0.00  0.00    -0.368 OA
ATOM     11  C   UNL     1      -3.734   1.332  23.511  0.00  0.00    +0.173 C 
ATOM     12  C   UNL     1      -3.111   1.862  24.787  0.00  0.00    +0.192 C 
ATOM     13  C   UNL     1      -5.112   0.883  23.936  0.00  0.00    +0.130 C 
ATOM     14  C   UNL     1      -2.319   3.049  24.295  0.00  0.00    +0.235 C 
ATOM     15  C   UNL     1      -5.439   1.856  25.055  0.00  0.00    +0.185 C 
ATOM     16  C   UNL     1      -3.204   3.589  23.194  0.00  0.00    +0.207 C 
ENDROOT
BRANCH  13   6
ATOM      6  N   UNL     1      -5.064  -0.471  24.446  0.00  0.00    -0.306 N 
ATOM      7  N   UNL     1      -2.755  -0.573  24.227  0.00  0.00    -0.214 NA
ATOM      8  N   UNL     1      -4.014  -2.442  25.080  0.00  0.00    -0.223 NA
ATOM     17  C   UNL     1      -3.893  -1.193  24.591  0.00  0.00    +0.216 A 
ATOM     19  C   UNL     1      -1.633  -1.305  24.382  0.00  0.00    +0.076 A 
ATOM     20  C   UNL     1      -2.852  -3.117  25.209  0.00  0.00    +0.116 A 
ATOM     21  C   UNL     1      -1.620  -2.595  24.873  0.00  0.00    +0.048 A 
ATOM     38  H   UNL     1      -5.919  -0.912  24.766  0.00  0.00    +0.149 HD
BRANCH  19  23
ATOM     23  C   UNL     1      -0.410  -0.643  23.993  0.00  0.00    +0.001 A 
ATOM     26  C   UNL     1      -0.081   0.594  24.548  0.00  0.00    +0.012 A 
ATOM     27  C   UNL     1       0.443  -1.241  23.066  0.00  0.00    +0.012 A 
ATOM     29  C   UNL     1       1.101   1.233  24.174  0.00  0.00    +0.024 A 
ATOM     30  C   UNL     1       1.625  -0.602  22.692  0.00  0.00    +0.024 A 
ATOM     32  C   UNL     1       1.954   0.635  23.247  0.00  0.00    +0.029 A 
BRANCH  32  10
ATOM     10  N   UNL     1       3.150   1.281  22.867  0.00  0.00    -0.336 N 
ATOM     35  C   UNL     1       4.406   0.559  22.867  0.00  0.00    +0.129 C 
ATOM     36  C   UNL     1       3.134   2.672  22.459  0.00  0.00    +0.129 C 
ENDBRANCH  32  10
ENDBRANCH  19  23
ENDBRANCH  13   6
BRANCH  14   3
ATOM      3  O   UNL     1      -2.067   4.012  25.294  0.00  0.00    -0.442 OA
BRANCH   3  18
ATOM      4  O   UNL     1       0.094   4.761  25.311  0.00  0.00    -0.226 OA
ATOM      9  N   UNL     1      -0.690   3.233  26.901  0.00  0.00    -0.251 N 
ATOM     18  C   UNL     1      -0.786   4.064  25.802  0.00  0.00    +0.405 C 
ATOM     39  H   UNL     1      -1.536   2.731  27.160  0.00  0.00    +0.158 HD
BRANCH   9  22
ATOM     22  C   UNL     1       0.441   2.991  27.714  0.00  0.00    +0.037 A 
ATOM     24  C   UNL     1       0.276   2.667  29.060  0.00  0.00    +0.034 A 
ATOM     25  C   UNL     1       1.721   3.076  27.168  0.00  0.00    +0.023 A 
ATOM     28  C   UNL     1       1.393   2.427  29.862  0.00  0.00    +0.019 A 
ATOM     31  C   UNL     1       2.838   2.837  27.969  0.00  0.00    +0.002 A 
ATOM     33  C   UNL     1       2.674   2.511  29.316  0.00  0.00    +0.011 A 
BRANCH  28  34
ATOM      5  O   UNL     1       2.033   1.351  31.859  0.00  0.00    -0.292 OA
ATOM     34  C   UNL     1       1.223   2.088  31.265  0.00  0.00    +0.160 C 
ATOM     37  C   UNL     1       0.035   2.635  32.049  0.00  0.00    +0.091 C 
ENDBRANCH  28  34
ENDBRANCH   9  22
ENDBRANCH   3  18
ENDBRANCH  14   3
TORSDOF 7
ENDMDL
