MODEL 1
REMARK VINA RESULT:       7.6      0.000      0.000
REMARK  Name = 7142911
REMARK  7 active torsions:
REMARK  status: ('A' for Active; 'I' for Inactive)
REMARK    1  A    between atoms: O_4  and  C_27
REMARK    2  A    between atoms: O_4  and  C_35
REMARK    3  A    between atoms: O_5  and  C_28
REMARK    4  A    between atoms: O_5  and  C_36
REMARK    5  A    between atoms: N_8  and  C_22
REMARK    6  A    between atoms: N_9  and  C_20
REMARK    7  A    between atoms: C_23  and  C_26
REMARK                            x       y       z     vdW  Elec       q    Type
REMARK                         _______ _______ _______ _____ _____    ______ ____
ROOT
ATOM      1  O   UNL     1      -0.062   2.537  26.273  0.00  0.00    -0.266 OA
ATOM      2  O   UNL     1      -4.647   0.388  26.707  0.00  0.00    -0.252 OA
ATOM      6  N   UNL     1      -4.921   2.214  25.316  0.00  0.00    -0.284 N 
ATOM      7  N   UNL     1      -1.957   3.251  25.108  0.00  0.00    -0.310 N 
ATOM      8  N   UNL     1      -4.669   0.051  24.411  0.00  0.00    -0.269 N 
ATOM     10  C   UNL     1      -3.981   4.306  26.273  0.00  0.00    +0.027 C 
ATOM     11  C   UNL     1      -4.006   3.972  23.831  0.00  0.00    +0.054 C 
ATOM     12  C   UNL     1      -4.199   5.011  24.937  0.00  0.00    +0.018 C 
ATOM     13  C   UNL     1      -4.982   3.145  26.445  0.00  0.00    +0.114 C 
ATOM     14  C   UNL     1      -2.525   3.826  26.337  0.00  0.00    +0.130 C 
ATOM     15  C   UNL     1      -5.056   2.857  23.997  0.00  0.00    +0.119 C 
ATOM     16  C   UNL     1      -2.611   3.379  23.878  0.00  0.00    +0.027 A 
ATOM     17  C   UNL     1      -2.023   2.942  22.751  0.00  0.00    +0.024 A 
ATOM     18  C   UNL     1      -0.684   2.656  25.217  0.00  0.00    +0.273 A 
ATOM     19  C   UNL     1      -4.750   0.835  25.562  0.00  0.00    +0.306 C 
ATOM     20  C   UNL     1      -0.076   2.159  23.943  0.00  0.00    +0.099 A 
ATOM     21  C   UNL     1      -0.731   2.318  22.788  0.00  0.00    +0.030 A 
ATOM     37  H   UNL     1      -5.159   0.363  23.581  0.00  0.00    +0.156 HD
ENDROOT
BRANCH   8  22
ATOM     22  C   UNL     1      -3.956  -1.162  24.247  0.00  0.00    +0.042 A 
ATOM     24  C   UNL     1      -4.567  -2.250  23.624  0.00  0.00    +0.069 A 
ATOM     25  C   UNL     1      -2.644  -1.268  24.707  0.00  0.00    +0.069 A 
ATOM     27  C   UNL     1      -1.942  -2.463  24.545  0.00  0.00    +0.125 A 
ATOM     28  C   UNL     1      -3.866  -3.445  23.461  0.00  0.00    +0.125 A 
ATOM     29  C   UNL     1      -2.553  -3.551  23.922  0.00  0.00    +0.091 A 
BRANCH  27   4
ATOM      4  O   UNL     1      -0.662  -2.567  24.996  0.00  0.00    -0.495 OA
ATOM     35  C   UNL     1      -0.110  -1.428  25.652  0.00  0.00    +0.277 C 
ENDBRANCH  27   4
BRANCH  28   5
ATOM      5  O   UNL     1      -4.461  -4.507  22.853  0.00  0.00    -0.495 OA
ATOM     36  C   UNL     1      -5.775  -4.305  22.335  0.00  0.00    +0.277 C 
ENDBRANCH  28   5
ENDBRANCH   8  22
BRANCH  20   9
ATOM      3  O   UNL     1       0.870   0.067  22.246  0.00  0.00    -0.270 OA
ATOM      9  N   UNL     1       1.148   1.560  24.008  0.00  0.00    -0.277 N 
ATOM     23  C   UNL     1       1.550   0.545  23.151  0.00  0.00    +0.248 C 
ATOM     38  H   UNL     1       1.702   1.793  24.825  0.00  0.00    +0.155 HD
BRANCH  23  26
ATOM     26  C   UNL     1       2.930   0.032  23.362  0.00  0.00    +0.037 A 
ATOM     30  C   UNL     1       4.022   0.887  23.210  0.00  0.00    +0.013 A 
ATOM     31  C   UNL     1       3.132  -1.302  23.714  0.00  0.00    +0.013 A 
ATOM     32  C   UNL     1       5.316   0.405  23.408  0.00  0.00    +0.001 A 
ATOM     33  C   UNL     1       4.426  -1.783  23.913  0.00  0.00    +0.001 A 
ATOM     34  C   UNL     1       5.518  -0.929  23.760  0.00  0.00    +0.000 A 
ENDBRANCH  23  26
ENDBRANCH  20   9
TORSDOF 5
ENDMDL
MODEL 2
REMARK VINA RESULT:       7.6      0.009      2.184
REMARK  Name = 7142911
REMARK  7 active torsions:
REMARK  status: ('A' for Active; 'I' for Inactive)
REMARK    1  A    between atoms: O_4  and  C_27
REMARK    2  A    between atoms: O_4  and  C_35
REMARK    3  A    between atoms: O_5  and  C_28
REMARK    4  A    between atoms: O_5  and  C_36
REMARK    5  A    between atoms: N_8  and  C_22
REMARK    6  A    between atoms: N_9  and  C_20
REMARK    7  A    between atoms: C_23  and  C_26
REMARK                            x       y       z     vdW  Elec       q    Type
REMARK                         _______ _______ _______ _____ _____    ______ ____
ROOT
ATOM      1  O   UNL     1      -0.066   2.542  26.269  0.00  0.00    -0.266 OA
ATOM      2  O   UNL     1      -4.649   0.388  26.704  0.00  0.00    -0.252 OA
ATOM      6  N   UNL     1      -4.925   2.213  25.313  0.00  0.00    -0.284 N 
ATOM      7  N   UNL     1      -1.963   3.254  25.105  0.00  0.00    -0.310 N 
ATOM      8  N   UNL     1      -4.671   0.050  24.408  0.00  0.00    -0.269 N 
ATOM     10  C   UNL     1      -3.988   4.307  26.270  0.00  0.00    +0.027 C 
ATOM     11  C   UNL     1      -4.013   3.973  23.828  0.00  0.00    +0.054 C 
ATOM     12  C   UNL     1      -4.207   5.012  24.934  0.00  0.00    +0.018 C 
ATOM     13  C   UNL     1      -4.988   3.145  26.441  0.00  0.00    +0.114 C 
ATOM     14  C   UNL     1      -2.532   3.828  26.333  0.00  0.00    +0.130 C 
ATOM     15  C   UNL     1      -5.061   2.856  23.994  0.00  0.00    +0.119 C 
ATOM     16  C   UNL     1      -2.617   3.381  23.874  0.00  0.00    +0.027 A 
ATOM     17  C   UNL     1      -2.029   2.945  22.748  0.00  0.00    +0.024 A 
ATOM     18  C   UNL     1      -0.689   2.660  25.213  0.00  0.00    +0.273 A 
ATOM     19  C   UNL     1      -4.753   0.835  25.559  0.00  0.00    +0.306 C 
ATOM     20  C   UNL     1      -0.081   2.164  23.938  0.00  0.00    +0.099 A 
ATOM     21  C   UNL     1      -0.736   2.323  22.784  0.00  0.00    +0.030 A 
ATOM     37  H   UNL     1      -5.161   0.362  23.578  0.00  0.00    +0.156 HD
ENDROOT
BRANCH   8  22
ATOM     22  C   UNL     1      -3.957  -1.161  24.244  0.00  0.00    +0.042 A 
ATOM     24  C   UNL     1      -2.642  -1.262  24.697  0.00  0.00    +0.069 A 
ATOM     25  C   UNL     1      -4.569  -2.254  23.631  0.00  0.00    +0.069 A 
ATOM     27  C   UNL     1      -3.866  -3.449  23.470  0.00  0.00    +0.125 A 
ATOM     28  C   UNL     1      -1.938  -2.456  24.536  0.00  0.00    +0.125 A 
ATOM     29  C   UNL     1      -2.551  -3.549  23.923  0.00  0.00    +0.091 A 
BRANCH  27   4
ATOM      4  O   UNL     1      -4.463  -4.515  22.871  0.00  0.00    -0.495 OA
ATOM     35  C   UNL     1      -5.767  -4.310  22.331  0.00  0.00    +0.277 C 
ENDBRANCH  27   4
BRANCH  28   5
ATOM      5  O   UNL     1      -0.655  -2.555  24.978  0.00  0.00    -0.495 OA
ATOM     36  C   UNL     1      -0.108  -1.417  25.644  0.00  0.00    +0.277 C 
ENDBRANCH  28   5
ENDBRANCH   8  22
BRANCH  20   9
ATOM      3  O   UNL     1       0.863   0.065  22.250  0.00  0.00    -0.270 OA
ATOM      9  N   UNL     1       1.144   1.567  24.004  0.00  0.00    -0.277 N 
ATOM     23  C   UNL     1       1.545   0.548  23.150  0.00  0.00    +0.248 C 
ATOM     38  H   UNL     1       1.699   1.804  24.819  0.00  0.00    +0.155 HD
BRANCH  23  26
ATOM     26  C   UNL     1       2.925   0.037  23.361  0.00  0.00    +0.037 A 
ATOM     30  C   UNL     1       4.016   0.893  23.204  0.00  0.00    +0.013 A 
ATOM     31  C   UNL     1       3.130  -1.296  23.716  0.00  0.00    +0.013 A 
ATOM     32  C   UNL     1       5.311   0.414  23.401  0.00  0.00    +0.001 A 
ATOM     33  C   UNL     1       4.425  -1.774  23.914  0.00  0.00    +0.001 A 
ATOM     34  C   UNL     1       5.515  -0.919  23.757  0.00  0.00    +0.000 A 
ENDBRANCH  23  26
ENDBRANCH  20   9
TORSDOF 5
ENDMDL
