MODEL 1
REMARK VINA RESULT:      -1.9      0.000      0.000
REMARK  Name = 75536239
REMARK  11 active torsions:
REMARK  status: ('A' for Active; 'I' for Inactive)
REMARK    1  A    between atoms: O_3  and  C_9
REMARK    2  A    between atoms: N_6  and  C_13
REMARK    3  A    between atoms: C_8  and  C_13
REMARK    4  A    between atoms: C_10  and  C_14
REMARK    5  A    between atoms: C_14  and  C_17
REMARK    6  A    between atoms: C_15  and  C_16
REMARK    7  A    between atoms: C_15  and  C_19
REMARK    8  A    between atoms: C_15  and  C_20
REMARK    9  A    between atoms: C_15  and  C_21
REMARK   10  A    between atoms: C_16  and  C_18
REMARK   11  A    between atoms: C_23  and  C_24
REMARK                            x       y       z     vdW  Elec       q    Type
REMARK                         _______ _______ _______ _____ _____    ______ ____
ROOT
ATOM      2  O   UNL     1      -3.622  -0.468  23.472  0.00  0.00    -0.369 OA
ATOM      8  C   UNL     1      -4.546  -0.816  24.512  0.00  0.00    +0.164 C 
ATOM      9  C   UNL     1      -3.872  -1.666  25.596  0.00  0.00    +0.145 C 
ATOM     10  C   UNL     1      -2.436   0.198  23.910  0.00  0.00    +0.125 C 
ATOM     11  C   UNL     1      -2.561  -1.053  26.084  0.00  0.00    +0.036 C 
ATOM     12  C   UNL     1      -1.668  -0.668  24.907  0.00  0.00    +0.034 C 
ENDROOT
BRANCH   9   3
ATOM      3  O   UNL     1      -3.574  -2.956  25.053  0.00  0.00    -0.389 OA
ATOM     31  H   UNL     1      -2.896  -2.836  24.368  0.00  0.00    +0.210 HD
ENDBRANCH   9   3
BRANCH   8  13
ATOM     13  C   UNL     1      -5.238   0.425  25.071  0.00  0.00    +0.138 C 
BRANCH  13   6
ATOM      5  O   UNL     1      -5.628   3.066  26.197  0.00  0.00    -0.276 OA
ATOM      6  N   UNL     1      -4.498   1.628  24.761  0.00  0.00    -0.313 N 
ATOM     18  C   UNL     1      -4.758   2.852  25.354  0.00  0.00    +0.214 C 
ATOM     30  H   UNL     1      -3.764   1.559  24.063  0.00  0.00    +0.149 HD
BRANCH  18  16
ATOM     16  C   UNL     1      -3.849   3.961  24.850  0.00  0.00    +0.102 C 
BRANCH  16  15
ATOM     15  C   UNL     1      -2.587   4.204  25.713  0.00  0.00    -0.029 C 
ATOM     19  C   UNL     1      -1.723   5.333  25.125  0.00  0.00    +0.011 C 
ATOM     20  C   UNL     1      -3.046   4.626  27.122  0.00  0.00    +0.011 C 
ATOM     21  C   UNL     1      -1.738   2.929  25.840  0.00  0.00    +0.011 C 
ENDBRANCH  16  15
ENDBRANCH  18  16
ENDBRANCH  13   6
ENDBRANCH   8  13
BRANCH  10  14
ATOM     14  C   UNL     1      -1.589   0.485  22.676  0.00  0.00    +0.090 C 
BRANCH  14  17
ATOM      4  O   UNL     1       1.633   1.580  23.864  0.00  0.00    -0.354 OA
ATOM      7  N   UNL     1       0.260   1.732  23.719  0.00  0.00    -0.083 NA
ATOM     17  C   UNL     1      -0.135   0.660  23.026  0.00  0.00    +0.087 A 
ATOM     22  C   UNL     1       0.935  -0.194  22.707  0.00  0.00    +0.076 A 
ATOM     23  C   UNL     1       2.024   0.430  23.256  0.00  0.00    +0.167 A 
BRANCH  23  24
ATOM      1  F   UNL     1       7.463  -0.709  23.524  0.00  0.00    -0.205 F 
ATOM     24  C   UNL     1       3.426   0.136  23.324  0.00  0.00    +0.020 A 
ATOM     25  C   UNL     1       3.854  -1.132  23.715  0.00  0.00    +0.014 A 
ATOM     26  C   UNL     1       4.362   1.118  22.999  0.00  0.00    +0.014 A 
ATOM     27  C   UNL     1       5.218  -1.418  23.783  0.00  0.00    +0.039 A 
ATOM     28  C   UNL     1       5.724   0.833  23.067  0.00  0.00    +0.039 A 
ATOM     29  C   UNL     1       6.153  -0.435  23.459  0.00  0.00    +0.123 A 
ENDBRANCH  23  24
ENDBRANCH  14  17
ENDBRANCH  10  14
TORSDOF 8
ENDMDL
MODEL 2
REMARK VINA RESULT:      -1.3      1.601      4.154
REMARK  Name = 75536239
REMARK  11 active torsions:
REMARK  status: ('A' for Active; 'I' for Inactive)
REMARK    1  A    between atoms: O_3  and  C_9
REMARK    2  A    between atoms: N_6  and  C_13
REMARK    3  A    between atoms: C_8  and  C_13
REMARK    4  A    between atoms: C_10  and  C_14
REMARK    5  A    between atoms: C_14  and  C_17
REMARK    6  A    between atoms: C_15  and  C_16
REMARK    7  A    between atoms: C_15  and  C_19
REMARK    8  A    between atoms: C_15  and  C_20
REMARK    9  A    between atoms: C_15  and  C_21
REMARK   10  A    between atoms: C_16  and  C_18
REMARK   11  A    between atoms: C_23  and  C_24
REMARK                            x       y       z     vdW  Elec       q    Type
REMARK                         _______ _______ _______ _____ _____    ______ ____
ROOT
ATOM      2  O   UNL     1      -3.605   1.878  25.741  0.00  0.00    -0.369 OA
ATOM      8  C   UNL     1      -4.881   1.227  25.744  0.00  0.00    +0.164 C 
ATOM      9  C   UNL     1      -6.012   2.214  25.428  0.00  0.00    +0.145 C 
ATOM     10  C   UNL     1      -3.282   2.581  24.539  0.00  0.00    +0.125 C 
ATOM     11  C   UNL     1      -5.724   3.049  24.183  0.00  0.00    +0.036 C 
ATOM     12  C   UNL     1      -4.325   3.659  24.248  0.00  0.00    +0.034 C 
ENDROOT
BRANCH   9   3
ATOM      3  O   UNL     1      -6.163   3.111  26.531  0.00  0.00    -0.389 OA
ATOM     31  H   UNL     1      -6.874   2.765  27.096  0.00  0.00    +0.210 HD
ENDBRANCH   9   3
BRANCH   8  13
ATOM     13  C   UNL     1      -4.879   0.008  24.823  0.00  0.00    +0.138 C 
BRANCH  13   6
ATOM      5  O   UNL     1      -4.367  -2.600  23.671  0.00  0.00    -0.276 OA
ATOM      6  N   UNL     1      -3.792  -0.891  25.139  0.00  0.00    -0.313 N 
ATOM     18  C   UNL     1      -3.628  -2.125  24.533  0.00  0.00    +0.214 C 
ATOM     30  H   UNL     1      -3.132  -0.595  25.851  0.00  0.00    +0.149 HD
BRANCH  18  16
ATOM     16  C   UNL     1      -2.415  -2.883  25.046  0.00  0.00    +0.102 C 
BRANCH  16  15
ATOM     15  C   UNL     1      -1.088  -2.088  24.996  0.00  0.00    -0.029 C 
ATOM     19  C   UNL     1       0.087  -2.939  25.506  0.00  0.00    +0.011 C 
ATOM     20  C   UNL     1      -0.813  -1.710  23.527  0.00  0.00    +0.011 C 
ATOM     21  C   UNL     1      -1.175  -0.795  25.822  0.00  0.00    +0.011 C 
ENDBRANCH  16  15
ENDBRANCH  18  16
ENDBRANCH  13   6
ENDBRANCH   8  13
BRANCH  10  14
ATOM     14  C   UNL     1      -1.902   3.199  24.725  0.00  0.00    +0.090 C 
BRANCH  14  17
ATOM      4  O   UNL     1       0.092   0.896  22.797  0.00  0.00    -0.354 OA
ATOM      7  N   UNL     1      -1.109   1.525  23.103  0.00  0.00    -0.083 NA
ATOM     17  C   UNL     1      -0.821   2.342  24.120  0.00  0.00    +0.087 A 
ATOM     22  C   UNL     1       0.532   2.273  24.495  0.00  0.00    +0.076 A 
ATOM     23  C   UNL     1       1.061   1.350  23.633  0.00  0.00    +0.167 A 
BRANCH  23  24
ATOM      1  F   UNL     1       6.124  -0.827  22.869  0.00  0.00    -0.205 F 
ATOM     24  C   UNL     1       2.366   0.789  23.435  0.00  0.00    +0.020 A 
ATOM     25  C   UNL     1       2.592  -0.562  23.700  0.00  0.00    +0.014 A 
ATOM     26  C   UNL     1       3.410   1.593  22.978  0.00  0.00    +0.014 A 
ATOM     27  C   UNL     1       3.861  -1.108  23.509  0.00  0.00    +0.039 A 
ATOM     28  C   UNL     1       4.679   1.048  22.786  0.00  0.00    +0.039 A 
ATOM     29  C   UNL     1       4.905  -0.303  23.052  0.00  0.00    +0.123 A 
ENDBRANCH  23  24
ENDBRANCH  14  17
ENDBRANCH  10  14
TORSDOF 8
ENDMDL
MODEL 3
REMARK VINA RESULT:      -1.1      1.930      4.571
REMARK  Name = 75536239
REMARK  11 active torsions:
REMARK  status: ('A' for Active; 'I' for Inactive)
REMARK    1  A    between atoms: O_3  and  C_9
REMARK    2  A    between atoms: N_6  and  C_13
REMARK    3  A    between atoms: C_8  and  C_13
REMARK    4  A    between atoms: C_10  and  C_14
REMARK    5  A    between atoms: C_14  and  C_17
REMARK    6  A    between atoms: C_15  and  C_16
REMARK    7  A    between atoms: C_15  and  C_19
REMARK    8  A    between atoms: C_15  and  C_20
REMARK    9  A    between atoms: C_15  and  C_21
REMARK   10  A    between atoms: C_16  and  C_18
REMARK   11  A    between atoms: C_23  and  C_24
REMARK                            x       y       z     vdW  Elec       q    Type
REMARK                         _______ _______ _______ _____ _____    ______ ____
ROOT
ATOM      2  O   UNL     1      -3.999   2.164  25.996  0.00  0.00    -0.369 OA
ATOM      8  C   UNL     1      -5.149   1.423  25.567  0.00  0.00    +0.164 C 
ATOM      9  C   UNL     1      -6.435   2.240  25.740  0.00  0.00    +0.145 C 
ATOM     10  C   UNL     1      -3.825   3.437  25.368  0.00  0.00    +0.125 C 
ATOM     11  C   UNL     1      -6.319   3.641  25.145  0.00  0.00    +0.036 C 
ATOM     12  C   UNL     1      -5.040   4.329  25.616  0.00  0.00    +0.034 C 
ENDROOT
BRANCH   9   3
ATOM      3  O   UNL     1      -6.708   2.381  27.137  0.00  0.00    -0.389 OA
ATOM     31  H   UNL     1      -6.549   1.519  27.556  0.00  0.00    +0.210 HD
ENDBRANCH   9   3
BRANCH   8  13
ATOM     13  C   UNL     1      -4.964   0.895  24.146  0.00  0.00    +0.138 C 
BRANCH  13   6
ATOM      5  O   UNL     1      -4.742  -1.965  23.743  0.00  0.00    -0.276 OA
ATOM      6  N   UNL     1      -3.751   0.119  24.023  0.00  0.00    -0.313 N 
ATOM     18  C   UNL     1      -3.743  -1.252  23.831  0.00  0.00    +0.214 C 
ATOM     30  H   UNL     1      -2.869   0.616  24.095  0.00  0.00    +0.149 HD
BRANCH  18  16
ATOM     16  C   UNL     1      -2.342  -1.832  23.743  0.00  0.00    +0.102 C 
BRANCH  16  15
ATOM     15  C   UNL     1      -1.633  -2.020  25.106  0.00  0.00    -0.029 C 
ATOM     19  C   UNL     1      -1.414  -0.668  25.807  0.00  0.00    +0.011 C 
ATOM     20  C   UNL     1      -2.539  -2.889  25.999  0.00  0.00    +0.011 C 
ATOM     21  C   UNL     1      -0.281  -2.732  24.945  0.00  0.00    +0.011 C 
ENDBRANCH  16  15
ENDBRANCH  18  16
ENDBRANCH  13   6
ENDBRANCH   8  13
BRANCH  10  14
ATOM     14  C   UNL     1      -2.564   4.065  25.946  0.00  0.00    +0.090 C 
BRANCH  14  17
ATOM      4  O   UNL     1       0.565   2.277  25.848  0.00  0.00    -0.354 OA
ATOM      7  N   UNL     1      -0.422   2.993  26.514  0.00  0.00    -0.083 NA
ATOM     17  C   UNL     1      -1.331   3.281  25.579  0.00  0.00    +0.087 A 
ATOM     22  C   UNL     1      -0.976   2.778  24.316  0.00  0.00    +0.076 A 
ATOM     23  C   UNL     1       0.223   2.156  24.539  0.00  0.00    +0.167 A 
BRANCH  23  24
ATOM      1  F   UNL     1       3.824  -0.642  21.352  0.00  0.00    -0.205 F 
ATOM     24  C   UNL     1       1.151   1.434  23.718  0.00  0.00    +0.020 A 
ATOM     25  C   UNL     1       2.473   1.868  23.612  0.00  0.00    +0.014 A 
ATOM     26  C   UNL     1       0.734   0.297  23.025  0.00  0.00    +0.014 A 
ATOM     27  C   UNL     1       3.376   1.167  22.813  0.00  0.00    +0.039 A 
ATOM     28  C   UNL     1       1.635  -0.404  22.226  0.00  0.00    +0.039 A 
ATOM     29  C   UNL     1       2.957   0.031  22.120  0.00  0.00    +0.123 A 
ENDBRANCH  23  24
ENDBRANCH  14  17
ENDBRANCH  10  14
TORSDOF 8
ENDMDL
MODEL 4
REMARK VINA RESULT:      -0.8      1.917      2.946
REMARK  Name = 75536239
REMARK  11 active torsions:
REMARK  status: ('A' for Active; 'I' for Inactive)
REMARK    1  A    between atoms: O_3  and  C_9
REMARK    2  A    between atoms: N_6  and  C_13
REMARK    3  A    between atoms: C_8  and  C_13
REMARK    4  A    between atoms: C_10  and  C_14
REMARK    5  A    between atoms: C_14  and  C_17
REMARK    6  A    between atoms: C_15  and  C_16
REMARK    7  A    between atoms: C_15  and  C_19
REMARK    8  A    between atoms: C_15  and  C_20
REMARK    9  A    between atoms: C_15  and  C_21
REMARK   10  A    between atoms: C_16  and  C_18
REMARK   11  A    between atoms: C_23  and  C_24
REMARK                            x       y       z     vdW  Elec       q    Type
REMARK                         _______ _______ _______ _____ _____    ______ ____
ROOT
ATOM      2  O   UNL     1      -4.364   1.588  23.256  0.00  0.00    -0.369 OA
ATOM      8  C   UNL     1      -4.965   2.743  23.856  0.00  0.00    +0.164 C 
ATOM      9  C   UNL     1      -5.784   2.364  25.096  0.00  0.00    +0.145 C 
ATOM     10  C   UNL     1      -3.546   0.804  24.127  0.00  0.00    +0.125 C 
ATOM     11  C   UNL     1      -5.003   1.475  26.060  0.00  0.00    +0.036 C 
ATOM     12  C   UNL     1      -4.357   0.305  25.322  0.00  0.00    +0.034 C 
ENDROOT
BRANCH   9   3
ATOM      3  O   UNL     1      -6.945   1.640  24.679  0.00  0.00    -0.389 OA
ATOM     31  H   UNL     1      -6.830   1.418  23.739  0.00  0.00    +0.210 HD
ENDBRANCH   9   3
BRANCH   8  13
ATOM     13  C   UNL     1      -3.922   3.822  24.138  0.00  0.00    +0.138 C 
BRANCH  13   6
ATOM      5  O   UNL     1      -1.652   5.301  25.164  0.00  0.00    -0.276 OA
ATOM      6  N   UNL     1      -3.043   3.439  25.219  0.00  0.00    -0.313 N 
ATOM     18  C   UNL     1      -1.977   4.216  25.643  0.00  0.00    +0.214 C 
ATOM     30  H   UNL     1      -3.220   2.549  25.674  0.00  0.00    +0.149 HD
BRANCH  18  16
ATOM     16  C   UNL     1      -1.203   3.588  26.789  0.00  0.00    +0.102 C 
BRANCH  16  15
ATOM     15  C   UNL     1      -0.168   2.520  26.361  0.00  0.00    -0.029 C 
ATOM     19  C   UNL     1       0.343   2.784  24.934  0.00  0.00    +0.011 C 
ATOM     20  C   UNL     1       1.029   2.599  27.329  0.00  0.00    +0.011 C 
ATOM     21  C   UNL     1      -0.758   1.102  26.434  0.00  0.00    +0.011 C 
ENDBRANCH  16  15
ENDBRANCH  18  16
ENDBRANCH  13   6
ENDBRANCH   8  13
BRANCH  10  14
ATOM     14  C   UNL     1      -3.000  -0.365  23.317  0.00  0.00    +0.090 C 
BRANCH  14  17
ATOM      4  O   UNL     1       0.256  -1.419  24.447  0.00  0.00    -0.354 OA
ATOM      7  N   UNL     1      -1.132  -1.478  24.470  0.00  0.00    -0.083 NA
ATOM     17  C   UNL     1      -1.531  -0.579  23.566  0.00  0.00    +0.087 A 
ATOM     22  C   UNL     1      -0.450   0.072  22.947  0.00  0.00    +0.076 A 
ATOM     23  C   UNL     1       0.650  -0.492  23.536  0.00  0.00    +0.167 A 
BRANCH  23  24
ATOM      1  F   UNL     1       6.148   0.179  23.005  0.00  0.00    -0.205 F 
ATOM     24  C   UNL     1       2.067  -0.319  23.397  0.00  0.00    +0.020 A 
ATOM     25  C   UNL     1       2.934  -1.345  23.773  0.00  0.00    +0.014 A 
ATOM     26  C   UNL     1       2.579   0.875  22.889  0.00  0.00    +0.014 A 
ATOM     27  C   UNL     1       4.313  -1.177  23.640  0.00  0.00    +0.039 A 
ATOM     28  C   UNL     1       3.956   1.044  22.757  0.00  0.00    +0.039 A 
ATOM     29  C   UNL     1       4.823   0.018  23.132  0.00  0.00    +0.123 A 
ENDBRANCH  23  24
ENDBRANCH  14  17
ENDBRANCH  10  14
TORSDOF 8
ENDMDL
MODEL 5
REMARK VINA RESULT:      -0.6      3.190      5.521
REMARK  Name = 75536239
REMARK  11 active torsions:
REMARK  status: ('A' for Active; 'I' for Inactive)
REMARK    1  A    between atoms: O_3  and  C_9
REMARK    2  A    between atoms: N_6  and  C_13
REMARK    3  A    between atoms: C_8  and  C_13
REMARK    4  A    between atoms: C_10  and  C_14
REMARK    5  A    between atoms: C_14  and  C_17
REMARK    6  A    between atoms: C_15  and  C_16
REMARK    7  A    between atoms: C_15  and  C_19
REMARK    8  A    between atoms: C_15  and  C_20
REMARK    9  A    between atoms: C_15  and  C_21
REMARK   10  A    between atoms: C_16  and  C_18
REMARK   11  A    between atoms: C_23  and  C_24
REMARK                            x       y       z     vdW  Elec       q    Type
REMARK                         _______ _______ _______ _____ _____    ______ ____
ROOT
ATOM      2  O   UNL     1      -3.562   1.891  25.079  0.00  0.00    -0.369 OA
ATOM      8  C   UNL     1      -4.603   0.954  25.385  0.00  0.00    +0.164 C 
ATOM      9  C   UNL     1      -5.938   1.667  25.639  0.00  0.00    +0.145 C 
ATOM     10  C   UNL     1      -3.834   2.767  23.982  0.00  0.00    +0.125 C 
ATOM     11  C   UNL     1      -6.281   2.667  24.538  0.00  0.00    +0.036 C 
ATOM     12  C   UNL     1      -5.096   3.585  24.247  0.00  0.00    +0.034 C 
ENDROOT
BRANCH   9   3
ATOM      3  O   UNL     1      -5.849   2.387  26.871  0.00  0.00    -0.389 OA
ATOM     31  H   UNL     1      -6.731   2.379  27.279  0.00  0.00    +0.210 HD
ENDBRANCH   9   3
BRANCH   8  13
ATOM     13  C   UNL     1      -4.700  -0.130  24.313  0.00  0.00    +0.138 C 
BRANCH  13   6
ATOM      5  O   UNL     1      -3.754  -2.619  25.454  0.00  0.00    -0.276 OA
ATOM      6  N   UNL     1      -3.423  -0.767  24.088  0.00  0.00    -0.313 N 
ATOM     18  C   UNL     1      -3.057  -1.964  24.680  0.00  0.00    +0.214 C 
ATOM     30  H   UNL     1      -2.767  -0.296  23.472  0.00  0.00    +0.149 HD
BRANCH  18  16
ATOM     16  C   UNL     1      -1.660  -2.418  24.289  0.00  0.00    +0.102 C 
BRANCH  16  15
ATOM     15  C   UNL     1      -0.514  -1.562  24.879  0.00  0.00    -0.029 C 
ATOM     19  C   UNL     1      -1.028  -0.647  26.004  0.00  0.00    +0.011 C 
ATOM     20  C   UNL     1       0.539  -2.518  25.472  0.00  0.00    +0.011 C 
ATOM     21  C   UNL     1       0.162  -0.705  23.797  0.00  0.00    +0.011 C 
ENDBRANCH  16  15
ENDBRANCH  18  16
ENDBRANCH  13   6
ENDBRANCH   8  13
BRANCH  10  14
ATOM     14  C   UNL     1      -2.624   3.676  23.810  0.00  0.00    +0.090 C 
BRANCH  14  17
ATOM      4  O   UNL     1       0.432   2.394  25.227  0.00  0.00    -0.354 OA
ATOM      7  N   UNL     1      -0.418   2.640  24.156  0.00  0.00    -0.083 NA
ATOM     17  C   UNL     1      -1.478   3.253  24.691  0.00  0.00    +0.087 A 
ATOM     22  C   UNL     1      -1.354   3.418  26.081  0.00  0.00    +0.076 A 
ATOM     23  C   UNL     1      -0.137   2.861  26.368  0.00  0.00    +0.167 A 
BRANCH  23  24
ATOM      1  F   UNL     1       2.842   2.147  31.012  0.00  0.00    -0.205 F 
ATOM     24  C   UNL     1       0.630   2.679  27.565  0.00  0.00    +0.020 A 
ATOM     25  C   UNL     1       2.014   2.857  27.541  0.00  0.00    +0.014 A 
ATOM     26  C   UNL     1      -0.005   2.320  28.754  0.00  0.00    +0.014 A 
ATOM     27  C   UNL     1       2.761   2.678  28.706  0.00  0.00    +0.039 A 
ATOM     28  C   UNL     1       0.741   2.141  29.918  0.00  0.00    +0.039 A 
ATOM     29  C   UNL     1       2.124   2.320  29.894  0.00  0.00    +0.123 A 
ENDBRANCH  23  24
ENDBRANCH  14  17
ENDBRANCH  10  14
TORSDOF 8
ENDMDL
MODEL 6
REMARK VINA RESULT:       0.8      1.887      4.333
REMARK  Name = 75536239
REMARK  11 active torsions:
REMARK  status: ('A' for Active; 'I' for Inactive)
REMARK    1  A    between atoms: O_3  and  C_9
REMARK    2  A    between atoms: N_6  and  C_13
REMARK    3  A    between atoms: C_8  and  C_13
REMARK    4  A    between atoms: C_10  and  C_14
REMARK    5  A    between atoms: C_14  and  C_17
REMARK    6  A    between atoms: C_15  and  C_16
REMARK    7  A    between atoms: C_15  and  C_19
REMARK    8  A    between atoms: C_15  and  C_20
REMARK    9  A    between atoms: C_15  and  C_21
REMARK   10  A    between atoms: C_16  and  C_18
REMARK   11  A    between atoms: C_23  and  C_24
REMARK                            x       y       z     vdW  Elec       q    Type
REMARK                         _______ _______ _______ _____ _____    ______ ____
ROOT
ATOM      2  O   UNL     1      -0.856   2.533  24.135  0.00  0.00    -0.369 OA
ATOM      8  C   UNL     1      -1.000   3.155  25.417  0.00  0.00    +0.164 C 
ATOM      9  C   UNL     1      -2.246   4.048  25.467  0.00  0.00    +0.145 C 
ATOM     10  C   UNL     1      -1.985   1.774  23.694  0.00  0.00    +0.125 C 
ATOM     11  C   UNL     1      -3.495   3.332  24.959  0.00  0.00    +0.036 C 
ATOM     12  C   UNL     1      -3.229   2.657  23.616  0.00  0.00    +0.034 C 
ENDROOT
BRANCH   9   3
ATOM      3  O   UNL     1      -2.030   5.190  24.634  0.00  0.00    -0.389 OA
ATOM     31  H   UNL     1      -1.849   5.947  25.215  0.00  0.00    +0.210 HD
ENDBRANCH   9   3
BRANCH   8  13
ATOM     13  C   UNL     1      -0.964   2.119  26.539  0.00  0.00    +0.138 C 
BRANCH  13   6
ATOM      5  O   UNL     1      -0.593  -0.703  25.995  0.00  0.00    -0.276 OA
ATOM      6  N   UNL     1      -1.991   1.117  26.367  0.00  0.00    -0.313 N 
ATOM     18  C   UNL     1      -1.717  -0.216  26.109  0.00  0.00    +0.214 C 
ATOM     30  H   UNL     1      -2.958   1.422  26.429  0.00  0.00    +0.149 HD
BRANCH  18  16
ATOM     16  C   UNL     1      -2.970  -1.063  25.961  0.00  0.00    +0.102 C 
BRANCH  16  15
ATOM     15  C   UNL     1      -3.042  -1.886  24.652  0.00  0.00    -0.029 C 
ATOM     19  C   UNL     1      -1.644  -2.071  24.036  0.00  0.00    +0.011 C 
ATOM     20  C   UNL     1      -3.610  -3.277  24.994  0.00  0.00    +0.011 C 
ATOM     21  C   UNL     1      -3.968  -1.224  23.620  0.00  0.00    +0.011 C 
ENDBRANCH  16  15
ENDBRANCH  18  16
ENDBRANCH  13   6
ENDBRANCH   8  13
BRANCH  10  14
ATOM     14  C   UNL     1      -1.644   1.195  22.327  0.00  0.00    +0.090 C 
BRANCH  14  17
ATOM      4  O   UNL     1       1.428  -0.540  21.588  0.00  0.00    -0.354 OA
ATOM      7  N   UNL     1       0.101  -0.222  21.324  0.00  0.00    -0.083 NA
ATOM     17  C   UNL     1      -0.249   0.630  22.292  0.00  0.00    +0.087 A 
ATOM     22  C   UNL     1       0.805   0.884  23.187  0.00  0.00    +0.076 A 
ATOM     23  C   UNL     1       1.836   0.125  22.700  0.00  0.00    +0.167 A 
BRANCH  23  24
ATOM      1  F   UNL     1       7.108  -0.761  24.239  0.00  0.00    -0.205 F 
ATOM     24  C   UNL     1       3.194  -0.103  23.098  0.00  0.00    +0.020 A 
ATOM     25  C   UNL     1       4.133   0.923  22.994  0.00  0.00    +0.014 A 
ATOM     26  C   UNL     1       3.578  -1.352  23.588  0.00  0.00    +0.014 A 
ATOM     27  C   UNL     1       5.456   0.701  23.380  0.00  0.00    +0.039 A 
ATOM     28  C   UNL     1       4.899  -1.574  23.974  0.00  0.00    +0.039 A 
ATOM     29  C   UNL     1       5.838  -0.548  23.869  0.00  0.00    +0.123 A 
ENDBRANCH  23  24
ENDBRANCH  14  17
ENDBRANCH  10  14
TORSDOF 8
ENDMDL
MODEL 7
REMARK VINA RESULT:       1.1      2.847      7.455
REMARK  Name = 75536239
REMARK  11 active torsions:
REMARK  status: ('A' for Active; 'I' for Inactive)
REMARK    1  A    between atoms: O_3  and  C_9
REMARK    2  A    between atoms: N_6  and  C_13
REMARK    3  A    between atoms: C_8  and  C_13
REMARK    4  A    between atoms: C_10  and  C_14
REMARK    5  A    between atoms: C_14  and  C_17
REMARK    6  A    between atoms: C_15  and  C_16
REMARK    7  A    between atoms: C_15  and  C_19
REMARK    8  A    between atoms: C_15  and  C_20
REMARK    9  A    between atoms: C_15  and  C_21
REMARK   10  A    between atoms: C_16  and  C_18
REMARK   11  A    between atoms: C_23  and  C_24
REMARK                            x       y       z     vdW  Elec       q    Type
REMARK                         _______ _______ _______ _____ _____    ______ ____
ROOT
ATOM      2  O   UNL     1      -1.940   3.551  24.447  0.00  0.00    -0.369 OA
ATOM      8  C   UNL     1      -0.513   3.614  24.331  0.00  0.00    +0.164 C 
ATOM      9  C   UNL     1      -0.035   5.053  24.104  0.00  0.00    +0.145 C 
ATOM     10  C   UNL     1      -2.508   4.390  25.456  0.00  0.00    +0.125 C 
ATOM     11  C   UNL     1      -0.639   6.031  25.109  0.00  0.00    +0.036 C 
ATOM     12  C   UNL     1      -2.152   5.853  25.202  0.00  0.00    +0.034 C 
ENDROOT
BRANCH   9   3
ATOM      3  O   UNL     1      -0.432   5.472  22.796  0.00  0.00    -0.389 OA
ATOM     31  H   UNL     1       0.054   4.928  22.154  0.00  0.00    +0.210 HD
ENDBRANCH   9   3
BRANCH   8  13
ATOM     13  C   UNL     1       0.166   2.940  25.521  0.00  0.00    +0.138 C 
BRANCH  13   6
ATOM      5  O   UNL     1      -0.565   1.157  23.358  0.00  0.00    -0.276 OA
ATOM      6  N   UNL     1       0.831   1.719  25.130  0.00  0.00    -0.313 N 
ATOM     18  C   UNL     1       0.407   0.927  24.075  0.00  0.00    +0.214 C 
ATOM     30  H   UNL     1       1.641   1.433  25.671  0.00  0.00    +0.149 HD
BRANCH  18  16
ATOM     16  C   UNL     1       1.270  -0.307  23.874  0.00  0.00    +0.102 C 
BRANCH  16  15
ATOM     15  C   UNL     1       2.466  -0.109  22.911  0.00  0.00    -0.029 C 
ATOM     19  C   UNL     1       3.624  -1.058  23.264  0.00  0.00    +0.011 C 
ATOM     20  C   UNL     1       1.988  -0.434  21.483  0.00  0.00    +0.011 C 
ATOM     21  C   UNL     1       2.974   1.342  22.936  0.00  0.00    +0.011 C 
ENDBRANCH  16  15
ENDBRANCH  18  16
ENDBRANCH  13   6
ENDBRANCH   8  13
BRANCH  10  14
ATOM     14  C   UNL     1      -4.017   4.185  25.428  0.00  0.00    +0.090 C 
BRANCH  14  17
ATOM      4  O   UNL     1      -5.642   0.999  24.983  0.00  0.00    -0.354 OA
ATOM      7  N   UNL     1      -5.665   2.372  25.194  0.00  0.00    -0.083 NA
ATOM     17  C   UNL     1      -4.381   2.740  25.216  0.00  0.00    +0.087 A 
ATOM     22  C   UNL     1      -3.511   1.652  25.026  0.00  0.00    +0.076 A 
ATOM     23  C   UNL     1      -4.353   0.582  24.885  0.00  0.00    +0.167 A 
BRANCH  23  24
ATOM      1  F   UNL     1      -3.634  -4.867  24.023  0.00  0.00    -0.205 F 
ATOM     24  C   UNL     1      -4.169  -0.822  24.663  0.00  0.00    +0.020 A 
ATOM     25  C   UNL     1      -3.454  -1.586  25.586  0.00  0.00    +0.014 A 
ATOM     26  C   UNL     1      -4.704  -1.426  23.525  0.00  0.00    +0.014 A 
ATOM     27  C   UNL     1      -3.273  -2.953  25.370  0.00  0.00    +0.039 A 
ATOM     28  C   UNL     1      -4.523  -2.791  23.308  0.00  0.00    +0.039 A 
ATOM     29  C   UNL     1      -3.808  -3.555  24.231  0.00  0.00    +0.123 A 
ENDBRANCH  23  24
ENDBRANCH  14  17
ENDBRANCH  10  14
TORSDOF 8
ENDMDL
