MODEL 1
REMARK VINA RESULT:       2.5      0.000      0.000
REMARK  Name = 40533565
REMARK  3 active torsions:
REMARK  status: ('A' for Active; 'I' for Inactive)
REMARK    1  A    between atoms: S_1  and  N_5
REMARK    2  A    between atoms: S_1  and  C_19
REMARK    3  A    between atoms: C_17  and  C_20
REMARK                            x       y       z     vdW  Elec       q    Type
REMARK                         _______ _______ _______ _____ _____    ______ ____
ROOT
ATOM      4  O   UNL     1       0.482   2.025  25.857  0.00  0.00    -0.267 OA
ATOM      5  N   UNL     1      -4.454   2.348  25.253  0.00  0.00    -0.176 NA
ATOM      6  N   UNL     1      -1.387   2.982  24.842  0.00  0.00    -0.311 N 
ATOM      8  C   UNL     1      -3.159   4.281  26.158  0.00  0.00    +0.025 C 
ATOM      9  C   UNL     1      -3.401   4.006  23.729  0.00  0.00    +0.052 C 
ATOM     10  C   UNL     1      -3.369   5.038  24.853  0.00  0.00    +0.017 C 
ATOM     11  C   UNL     1      -4.309   3.291  26.400  0.00  0.00    +0.114 C 
ATOM     12  C   UNL     1      -4.589   3.050  23.941  0.00  0.00    +0.119 C 
ATOM     13  C   UNL     1      -1.790   3.590  26.117  0.00  0.00    +0.130 C 
ATOM     14  C   UNL     1      -2.101   3.226  23.666  0.00  0.00    +0.026 A 
ATOM     15  C   UNL     1      -1.649   2.757  22.493  0.00  0.00    +0.022 A 
ATOM     16  C   UNL     1      -0.193   2.233  24.847  0.00  0.00    +0.259 A 
ATOM     17  C   UNL     1       0.270   1.688  23.522  0.00  0.00    +0.048 A 
ATOM     18  C   UNL     1      -0.448   1.972  22.426  0.00  0.00    +0.015 A 
ENDROOT
BRANCH  17  20
ATOM      7  N   UNL     1       2.493  -1.337  23.552  0.00  0.00    -0.263 NA
ATOM     20  C   UNL     1       1.479   0.854  23.420  0.00  0.00    +0.005 A 
ATOM     23  C   UNL     1       2.714   1.415  23.113  0.00  0.00    +0.011 A 
ATOM     26  C   UNL     1       1.422  -0.514  23.629  0.00  0.00    +0.119 A 
ATOM     28  C   UNL     1       3.838   0.601  23.024  0.00  0.00    +0.020 A 
ATOM     29  C   UNL     1       3.676  -0.756  23.251  0.00  0.00    +0.111 A 
ENDBRANCH  17  20
BRANCH   5   1
ATOM      1  S   UNL     1      -5.526   1.037  25.503  0.00  0.00    +0.061 S 
ATOM      2  O   UNL     1      -6.560   1.073  24.490  0.00  0.00    -0.153 OA
ATOM      3  O   UNL     1      -5.863   0.964  26.909  0.00  0.00    -0.153 OA
BRANCH   1  19
ATOM     19  C   UNL     1      -4.453  -0.316  25.131  0.00  0.00    +0.105 A 
ATOM     21  C   UNL     1      -4.826  -1.259  24.174  0.00  0.00    +0.028 A 
ATOM     22  C   UNL     1      -3.232  -0.439  25.793  0.00  0.00    +0.028 A 
ATOM     24  C   UNL     1      -3.979  -2.328  23.882  0.00  0.00    +0.002 A 
ATOM     25  C   UNL     1      -2.384  -1.506  25.500  0.00  0.00    +0.002 A 
ATOM     27  C   UNL     1      -2.759  -2.451  24.544  0.00  0.00    +0.000 A 
ENDBRANCH   1  19
ENDBRANCH   5   1
TORSDOF 3
ENDMDL
MODEL 2
REMARK VINA RESULT:       4.1      1.776      4.392
REMARK  Name = 40533565
REMARK  3 active torsions:
REMARK  status: ('A' for Active; 'I' for Inactive)
REMARK    1  A    between atoms: S_1  and  N_5
REMARK    2  A    between atoms: S_1  and  C_19
REMARK    3  A    between atoms: C_17  and  C_20
REMARK                            x       y       z     vdW  Elec       q    Type
REMARK                         _______ _______ _______ _____ _____    ______ ____
ROOT
ATOM      4  O   UNL     1      -0.290  -0.615  22.038  0.00  0.00    -0.267 OA
ATOM      5  N   UNL     1      -4.130   0.682  24.937  0.00  0.00    -0.176 NA
ATOM      6  N   UNL     1      -1.705  -1.023  23.846  0.00  0.00    -0.311 N 
ATOM      8  C   UNL     1      -4.223  -1.405  23.571  0.00  0.00    +0.025 C 
ATOM      9  C   UNL     1      -3.219  -1.459  25.812  0.00  0.00    +0.052 C 
ATOM     10  C   UNL     1      -4.090  -2.244  24.835  0.00  0.00    +0.017 C 
ATOM     11  C   UNL     1      -4.887  -0.055  23.884  0.00  0.00    +0.114 C 
ATOM     12  C   UNL     1      -3.913  -0.132  26.170  0.00  0.00    +0.119 C 
ATOM     13  C   UNL     1      -2.836  -1.241  22.935  0.00  0.00    +0.130 C 
ATOM     14  C   UNL     1      -1.845  -1.194  25.226  0.00  0.00    +0.026 A 
ATOM     15  C   UNL     1      -0.772  -1.104  26.027  0.00  0.00    +0.022 A 
ATOM     16  C   UNL     1      -0.459  -0.739  23.252  0.00  0.00    +0.259 A 
ATOM     17  C   UNL     1       0.719  -0.607  24.181  0.00  0.00    +0.048 A 
ATOM     18  C   UNL     1       0.525  -0.800  25.493  0.00  0.00    +0.015 A 
ENDROOT
BRANCH  17  20
ATOM      7  N   UNL     1       4.347  -0.936  23.272  0.00  0.00    -0.263 NA
ATOM     20  C   UNL     1       2.058  -0.267  23.671  0.00  0.00    +0.005 A 
ATOM     23  C   UNL     1       2.321   0.985  23.125  0.00  0.00    +0.011 A 
ATOM     26  C   UNL     1       3.095  -1.184  23.721  0.00  0.00    +0.119 A 
ATOM     28  C   UNL     1       3.596   1.277  22.652  0.00  0.00    +0.020 A 
ATOM     29  C   UNL     1       4.565   0.291  22.748  0.00  0.00    +0.111 A 
ENDBRANCH  17  20
BRANCH   5   1
ATOM      1  S   UNL     1      -4.613   2.304  25.198  0.00  0.00    +0.061 S 
ATOM      2  O   UNL     1      -5.078   2.444  26.562  0.00  0.00    -0.153 OA
ATOM      3  O   UNL     1      -5.430   2.738  24.085  0.00  0.00    -0.153 OA
BRANCH   1  19
ATOM     19  C   UNL     1      -3.050   3.116  25.074  0.00  0.00    +0.105 A 
ATOM     21  C   UNL     1      -2.937   4.466  25.410  0.00  0.00    +0.028 A 
ATOM     22  C   UNL     1      -1.929   2.409  24.642  0.00  0.00    +0.028 A 
ATOM     24  C   UNL     1      -1.703   5.107  25.311  0.00  0.00    +0.002 A 
ATOM     25  C   UNL     1      -0.695   3.050  24.544  0.00  0.00    +0.002 A 
ATOM     27  C   UNL     1      -0.582   4.400  24.879  0.00  0.00    +0.000 A 
ENDBRANCH   1  19
ENDBRANCH   5   1
TORSDOF 3
ENDMDL
