MODEL 1
REMARK VINA RESULT:      -6.6      0.000      0.000
REMARK  Name = 75536681
REMARK  8 active torsions:
REMARK  status: ('A' for Active; 'I' for Inactive)
REMARK    1  A    between atoms: S_1  and  N_7
REMARK    2  A    between atoms: S_1  and  C_16
REMARK    3  A    between atoms: O_3  and  C_10
REMARK    4  A    between atoms: N_6  and  C_9
REMARK    5  A    between atoms: N_6  and  C_14
REMARK    6  A    between atoms: N_7  and  C_13
REMARK    7  A    between atoms: C_11  and  C_13
REMARK    8  A    between atoms: C_14  and  C_15
REMARK                            x       y       z     vdW  Elec       q    Type
REMARK                         _______ _______ _______ _____ _____    ______ ____
ROOT
ATOM      2  O   UNL     1      -0.346   3.295  25.641  0.00  0.00    -0.371 OA
ATOM      9  C   UNL     1       0.145   1.632  24.017  0.00  0.00    +0.111 C 
ATOM     10  C   UNL     1      -1.331   1.981  23.938  0.00  0.00    +0.164 C 
ATOM     11  C   UNL     1      -1.346   3.348  24.609  0.00  0.00    +0.164 C 
ATOM     12  C   UNL     1       0.505   2.162  25.395  0.00  0.00    +0.181 C 
ENDROOT
BRANCH  10   3
ATOM      3  O   UNL     1      -1.809   2.040  22.609  0.00  0.00    -0.388 OA
ATOM     28  H   UNL     1      -2.498   1.363  22.501  0.00  0.00    +0.210 HD
ENDBRANCH  10   3
BRANCH   9   6
ATOM      6  N   UNL     1       0.416   0.212  23.867  0.00  0.00    -0.303 NA
ATOM     26  H   UNL     1      -0.467  -0.290  23.777  0.00  0.00    +0.123 HD
BRANCH   6  14
ATOM     14  C   UNL     1       1.227  -0.044  22.682  0.00  0.00    +0.137 C 
BRANCH  14  15
ATOM      8  N   UNL     1       3.145  -1.273  23.537  0.00  0.00    -0.259 NA
ATOM     15  C   UNL     1       2.695  -0.112  23.012  0.00  0.00    +0.055 A 
ATOM     17  C   UNL     1       3.497   0.991  22.767  0.00  0.00    +0.024 A 
ATOM     20  C   UNL     1       4.848   0.896  23.081  0.00  0.00    +0.003 A 
ATOM     23  C   UNL     1       4.464  -1.329  23.830  0.00  0.00    +0.111 A 
ATOM     24  C   UNL     1       5.348  -0.283  23.623  0.00  0.00    +0.020 A 
ENDBRANCH  14  15
ENDBRANCH   6  14
ENDBRANCH   9   6
BRANCH  11  13
ATOM     13  C   UNL     1      -2.691   3.705  25.214  0.00  0.00    +0.140 C 
BRANCH  13   7
ATOM      7  N   UNL     1      -3.316   2.493  25.781  0.00  0.00    -0.187 NA
ATOM     27  H   UNL     1      -2.705   1.907  26.364  0.00  0.00    +0.148 HD
BRANCH   7   1
ATOM      1  S   UNL     1      -4.622   1.754  24.980  0.00  0.00    +0.058 S 
ATOM      4  O   UNL     1      -4.710   2.269  23.626  0.00  0.00    -0.153 OA
ATOM      5  O   UNL     1      -5.784   1.781  25.847  0.00  0.00    -0.153 OA
BRANCH   1  16
ATOM     16  C   UNL     1      -4.085   0.072  24.887  0.00  0.00    +0.105 A 
ATOM     18  C   UNL     1      -4.618  -0.777  23.918  0.00  0.00    +0.028 A 
ATOM     19  C   UNL     1      -3.131  -0.406  25.785  0.00  0.00    +0.028 A 
ATOM     21  C   UNL     1      -4.197  -2.106  23.846  0.00  0.00    +0.002 A 
ATOM     22  C   UNL     1      -2.710  -1.734  25.714  0.00  0.00    +0.002 A 
ATOM     25  C   UNL     1      -3.244  -2.583  24.745  0.00  0.00    +0.000 A 
ENDBRANCH   1  16
ENDBRANCH   7   1
ENDBRANCH  13   7
ENDBRANCH  11  13
TORSDOF 8
ENDMDL
MODEL 2
REMARK VINA RESULT:      -5.6      1.685      3.745
REMARK  Name = 75536681
REMARK  8 active torsions:
REMARK  status: ('A' for Active; 'I' for Inactive)
REMARK    1  A    between atoms: S_1  and  N_7
REMARK    2  A    between atoms: S_1  and  C_16
REMARK    3  A    between atoms: O_3  and  C_10
REMARK    4  A    between atoms: N_6  and  C_9
REMARK    5  A    between atoms: N_6  and  C_14
REMARK    6  A    between atoms: N_7  and  C_13
REMARK    7  A    between atoms: C_11  and  C_13
REMARK    8  A    between atoms: C_14  and  C_15
REMARK                            x       y       z     vdW  Elec       q    Type
REMARK                         _______ _______ _______ _____ _____    ______ ____
ROOT
ATOM      2  O   UNL     1      -1.925  -2.312  24.042  0.00  0.00    -0.371 OA
ATOM      9  C   UNL     1      -0.077  -0.867  24.414  0.00  0.00    +0.111 C 
ATOM     10  C   UNL     1      -1.257  -0.385  25.238  0.00  0.00    +0.164 C 
ATOM     11  C   UNL     1      -2.106  -1.647  25.303  0.00  0.00    +0.164 C 
ATOM     12  C   UNL     1      -0.768  -1.756  23.393  0.00  0.00    +0.181 C 
ENDROOT
BRANCH  10   3
ATOM      3  O   UNL     1      -0.877   0.063  26.525  0.00  0.00    -0.388 OA
ATOM     28  H   UNL     1       0.094   0.051  26.580  0.00  0.00    +0.210 HD
ENDBRANCH  10   3
BRANCH   9   6
ATOM      6  N   UNL     1       0.686   0.209  23.803  0.00  0.00    -0.303 NA
ATOM     26  H   UNL     1       1.287   0.635  24.509  0.00  0.00    +0.123 HD
BRANCH   6  14
ATOM     14  C   UNL     1       1.517  -0.290  22.714  0.00  0.00    +0.137 C 
BRANCH  14  15
ATOM      8  N   UNL     1       3.503  -1.372  23.613  0.00  0.00    -0.259 NA
ATOM     15  C   UNL     1       2.981  -0.252  23.063  0.00  0.00    +0.055 A 
ATOM     17  C   UNL     1       3.709   0.899  22.811  0.00  0.00    +0.024 A 
ATOM     20  C   UNL     1       5.059   0.903  23.144  0.00  0.00    +0.003 A 
ATOM     23  C   UNL     1       4.818  -1.331  23.923  0.00  0.00    +0.111 A 
ATOM     24  C   UNL     1       5.631  -0.230  23.712  0.00  0.00    +0.020 A 
ENDBRANCH  14  15
ENDBRANCH   6  14
ENDBRANCH   9   6
BRANCH  11  13
ATOM     13  C   UNL     1      -3.580  -1.368  25.531  0.00  0.00    +0.140 C 
BRANCH  13   7
ATOM      7  N   UNL     1      -3.775   0.071  25.802  0.00  0.00    -0.187 NA
ATOM     27  H   UNL     1      -4.051   0.310  26.763  0.00  0.00    +0.148 HD
BRANCH   7   1
ATOM      1  S   UNL     1      -4.229   1.121  24.544  0.00  0.00    +0.058 S 
ATOM      4  O   UNL     1      -5.598   1.554  24.750  0.00  0.00    -0.153 OA
ATOM      5  O   UNL     1      -3.831   0.539  23.276  0.00  0.00    -0.153 OA
BRANCH   1  16
ATOM     16  C   UNL     1      -3.171   2.508  24.831  0.00  0.00    +0.105 A 
ATOM     18  C   UNL     1      -3.558   3.507  25.724  0.00  0.00    +0.028 A 
ATOM     19  C   UNL     1      -1.951   2.605  24.162  0.00  0.00    +0.028 A 
ATOM     21  C   UNL     1      -2.725   4.603  25.949  0.00  0.00    +0.002 A 
ATOM     22  C   UNL     1      -1.118   3.702  24.386  0.00  0.00    +0.002 A 
ATOM     25  C   UNL     1      -1.506   4.700  25.279  0.00  0.00    +0.000 A 
ENDBRANCH   1  16
ENDBRANCH   7   1
ENDBRANCH  13   7
ENDBRANCH  11  13
TORSDOF 8
ENDMDL
MODEL 3
REMARK VINA RESULT:      -5.1      2.666      5.665
REMARK  Name = 75536681
REMARK  8 active torsions:
REMARK  status: ('A' for Active; 'I' for Inactive)
REMARK    1  A    between atoms: S_1  and  N_7
REMARK    2  A    between atoms: S_1  and  C_16
REMARK    3  A    between atoms: O_3  and  C_10
REMARK    4  A    between atoms: N_6  and  C_9
REMARK    5  A    between atoms: N_6  and  C_14
REMARK    6  A    between atoms: N_7  and  C_13
REMARK    7  A    between atoms: C_11  and  C_13
REMARK    8  A    between atoms: C_14  and  C_15
REMARK                            x       y       z     vdW  Elec       q    Type
REMARK                         _______ _______ _______ _____ _____    ______ ____
ROOT
ATOM      2  O   UNL     1      -2.342   3.355  23.414  0.00  0.00    -0.371 OA
ATOM      9  C   UNL     1      -4.522   2.637  24.027  0.00  0.00    +0.111 C 
ATOM     10  C   UNL     1      -3.970   3.533  25.121  0.00  0.00    +0.164 C 
ATOM     11  C   UNL     1      -2.885   4.288  24.363  0.00  0.00    +0.164 C 
ATOM     12  C   UNL     1      -3.252   2.248  23.288  0.00  0.00    +0.181 C 
ENDROOT
BRANCH  10   3
ATOM      3  O   UNL     1      -4.945   4.407  25.656  0.00  0.00    -0.388 OA
ATOM     28  H   UNL     1      -5.142   5.089  24.991  0.00  0.00    +0.210 HD
ENDBRANCH  10   3
BRANCH   9   6
ATOM      6  N   UNL     1      -5.259   1.490  24.529  0.00  0.00    -0.303 NA
ATOM     26  H   UNL     1      -5.412   0.831  23.766  0.00  0.00    +0.123 HD
BRANCH   6  14
ATOM     14  C   UNL     1      -4.520   0.817  25.591  0.00  0.00    +0.137 C 
BRANCH  14  15
ATOM      8  N   UNL     1      -3.511  -1.326  26.149  0.00  0.00    -0.259 NA
ATOM     15  C   UNL     1      -4.140  -0.589  25.206  0.00  0.00    +0.055 A 
ATOM     17  C   UNL     1      -4.446  -1.051  23.937  0.00  0.00    +0.024 A 
ATOM     20  C   UNL     1      -4.083  -2.353  23.612  0.00  0.00    +0.003 A 
ATOM     23  C   UNL     1      -3.173  -2.587  25.798  0.00  0.00    +0.111 A 
ATOM     24  C   UNL     1      -3.434  -3.143  24.556  0.00  0.00    +0.020 A 
ENDBRANCH  14  15
ENDBRANCH   6  14
ENDBRANCH   9   6
BRANCH  11  13
ATOM     13  C   UNL     1      -1.779   4.811  25.262  0.00  0.00    +0.140 C 
BRANCH  13   7
ATOM      7  N   UNL     1      -0.564   3.992  25.078  0.00  0.00    -0.187 NA
ATOM     27  H   UNL     1      -0.179   3.972  24.125  0.00  0.00    +0.148 HD
BRANCH   7   1
ATOM      1  S   UNL     1      -0.270   2.662  26.097  0.00  0.00    +0.058 S 
ATOM      4  O   UNL     1      -1.478   2.348  26.837  0.00  0.00    -0.153 OA
ATOM      5  O   UNL     1       0.981   2.873  26.800  0.00  0.00    -0.153 OA
BRANCH   1  16
ATOM     16  C   UNL     1       0.004   1.364  24.929  0.00  0.00    +0.105 A 
ATOM     18  C   UNL     1      -0.687   0.159  25.052  0.00  0.00    +0.028 A 
ATOM     19  C   UNL     1       0.913   1.544  23.887  0.00  0.00    +0.028 A 
ATOM     21  C   UNL     1      -0.468  -0.868  24.132  0.00  0.00    +0.002 A 
ATOM     22  C   UNL     1       1.133   0.518  22.968  0.00  0.00    +0.002 A 
ATOM     25  C   UNL     1       0.442  -0.687  23.091  0.00  0.00    +0.000 A 
ENDBRANCH   1  16
ENDBRANCH   7   1
ENDBRANCH  13   7
ENDBRANCH  11  13
TORSDOF 8
ENDMDL
MODEL 4
REMARK VINA RESULT:      -5.0      0.859      1.759
REMARK  Name = 75536681
REMARK  8 active torsions:
REMARK  status: ('A' for Active; 'I' for Inactive)
REMARK    1  A    between atoms: S_1  and  N_7
REMARK    2  A    between atoms: S_1  and  C_16
REMARK    3  A    between atoms: O_3  and  C_10
REMARK    4  A    between atoms: N_6  and  C_9
REMARK    5  A    between atoms: N_6  and  C_14
REMARK    6  A    between atoms: N_7  and  C_13
REMARK    7  A    between atoms: C_11  and  C_13
REMARK    8  A    between atoms: C_14  and  C_15
REMARK                            x       y       z     vdW  Elec       q    Type
REMARK                         _______ _______ _______ _____ _____    ______ ____
ROOT
ATOM      2  O   UNL     1      -1.844   1.365  23.794  0.00  0.00    -0.371 OA
ATOM      9  C   UNL     1       0.506   1.192  24.093  0.00  0.00    +0.111 C 
ATOM     10  C   UNL     1      -0.027   2.295  24.989  0.00  0.00    +0.164 C 
ATOM     11  C   UNL     1      -1.499   1.917  25.076  0.00  0.00    +0.164 C 
ATOM     12  C   UNL     1      -0.630   1.041  23.094  0.00  0.00    +0.181 C 
ENDROOT
BRANCH  10   3
ATOM      3  O   UNL     1       0.590   2.311  26.262  0.00  0.00    -0.388 OA
ATOM     28  H   UNL     1      -0.084   2.099  26.931  0.00  0.00    +0.210 HD
ENDBRANCH  10   3
BRANCH   9   6
ATOM      6  N   UNL     1       1.776   1.516  23.462  0.00  0.00    -0.303 NA
ATOM     26  H   UNL     1       2.460   1.738  24.184  0.00  0.00    +0.123 HD
BRANCH   6  14
ATOM     14  C   UNL     1       2.270   0.393  22.673  0.00  0.00    +0.137 C 
BRANCH  14  15
ATOM      8  N   UNL     1       3.703  -1.346  23.592  0.00  0.00    -0.259 NA
ATOM     15  C   UNL     1       3.622  -0.072  23.147  0.00  0.00    +0.055 A 
ATOM     17  C   UNL     1       4.694   0.804  23.106  0.00  0.00    +0.024 A 
ATOM     20  C   UNL     1       5.929   0.345  23.549  0.00  0.00    +0.003 A 
ATOM     23  C   UNL     1       4.919  -1.758  24.014  0.00  0.00    +0.111 A 
ATOM     24  C   UNL     1       6.052  -0.960  24.014  0.00  0.00    +0.020 A 
ENDBRANCH  14  15
ENDBRANCH   6  14
ENDBRANCH   9   6
BRANCH  11  13
ATOM     13  C   UNL     1      -2.404   3.095  25.389  0.00  0.00    +0.140 C 
BRANCH  13   7
ATOM      7  N   UNL     1      -3.642   2.612  26.033  0.00  0.00    -0.187 NA
ATOM     27  H   UNL     1      -3.552   2.331  27.017  0.00  0.00    +0.148 HD
BRANCH   7   1
ATOM      1  S   UNL     1      -4.866   1.894  25.095  0.00  0.00    +0.058 S 
ATOM      4  O   UNL     1      -4.815   2.430  23.747  0.00  0.00    -0.153 OA
ATOM      5  O   UNL     1      -6.109   1.918  25.842  0.00  0.00    -0.153 OA
BRANCH   1  16
ATOM     16  C   UNL     1      -4.333   0.210  25.031  0.00  0.00    +0.105 A 
ATOM     18  C   UNL     1      -3.671  -0.353  26.122  0.00  0.00    +0.028 A 
ATOM     19  C   UNL     1      -4.570  -0.554  23.889  0.00  0.00    +0.028 A 
ATOM     21  C   UNL     1      -3.247  -1.681  26.072  0.00  0.00    +0.002 A 
ATOM     22  C   UNL     1      -4.146  -1.882  23.838  0.00  0.00    +0.002 A 
ATOM     25  C   UNL     1      -3.485  -2.445  24.929  0.00  0.00    +0.000 A 
ENDBRANCH   1  16
ENDBRANCH   7   1
ENDBRANCH  13   7
ENDBRANCH  11  13
TORSDOF 8
ENDMDL
MODEL 5
REMARK VINA RESULT:      -4.9      2.037      6.744
REMARK  Name = 75536681
REMARK  8 active torsions:
REMARK  status: ('A' for Active; 'I' for Inactive)
REMARK    1  A    between atoms: S_1  and  N_7
REMARK    2  A    between atoms: S_1  and  C_16
REMARK    3  A    between atoms: O_3  and  C_10
REMARK    4  A    between atoms: N_6  and  C_9
REMARK    5  A    between atoms: N_6  and  C_14
REMARK    6  A    between atoms: N_7  and  C_13
REMARK    7  A    between atoms: C_11  and  C_13
REMARK    8  A    between atoms: C_14  and  C_15
REMARK                            x       y       z     vdW  Elec       q    Type
REMARK                         _______ _______ _______ _____ _____    ______ ____
ROOT
ATOM      2  O   UNL     1      -1.576   2.358  22.995  0.00  0.00    -0.371 OA
ATOM      9  C   UNL     1      -3.162   2.822  24.702  0.00  0.00    +0.111 C 
ATOM     10  C   UNL     1      -1.824   2.499  25.343  0.00  0.00    +0.164 C 
ATOM     11  C   UNL     1      -0.872   2.758  24.183  0.00  0.00    +0.164 C 
ATOM     12  C   UNL     1      -2.975   2.242  23.309  0.00  0.00    +0.181 C 
ENDROOT
BRANCH  10   3
ATOM      3  O   UNL     1      -1.537   3.324  26.455  0.00  0.00    -0.388 OA
ATOM     28  H   UNL     1      -1.250   4.193  26.125  0.00  0.00    +0.210 HD
ENDBRANCH  10   3
BRANCH   9   6
ATOM      6  N   UNL     1      -4.298   2.250  25.405  0.00  0.00    -0.303 NA
ATOM     26  H   UNL     1      -4.964   2.992  25.622  0.00  0.00    +0.123 HD
BRANCH   6  14
ATOM     14  C   UNL     1      -4.965   1.241  24.591  0.00  0.00    +0.137 C 
BRANCH  14  15
ATOM      8  N   UNL     1      -3.769  -0.358  25.983  0.00  0.00    -0.259 NA
ATOM     15  C   UNL     1      -4.366  -0.127  24.792  0.00  0.00    +0.055 A 
ATOM     17  C   UNL     1      -4.452  -1.062  23.774  0.00  0.00    +0.024 A 
ATOM     20  C   UNL     1      -3.891  -2.315  23.991  0.00  0.00    +0.003 A 
ATOM     23  C   UNL     1      -3.234  -1.586  26.158  0.00  0.00    +0.111 A 
ATOM     24  C   UNL     1      -3.268  -2.590  25.204  0.00  0.00    +0.020 A 
ENDBRANCH  14  15
ENDBRANCH   6  14
ENDBRANCH   9   6
BRANCH  11  13
ATOM     13  C   UNL     1       0.431   1.987  24.293  0.00  0.00    +0.140 C 
BRANCH  13   7
ATOM      7  N   UNL     1       0.827   1.493  22.959  0.00  0.00    -0.187 NA
ATOM     27  H   UNL     1       0.464   2.027  22.159  0.00  0.00    +0.148 HD
BRANCH   7   1
ATOM      1  S   UNL     1       1.193  -0.152  22.733  0.00  0.00    +0.058 S 
ATOM      4  O   UNL     1       1.043  -0.491  21.330  0.00  0.00    -0.153 OA
ATOM      5  O   UNL     1       0.510  -0.931  23.748  0.00  0.00    -0.153 OA
BRANCH   1  16
ATOM     16  C   UNL     1       2.917  -0.196  23.122  0.00  0.00    +0.105 A 
ATOM     18  C   UNL     1       3.484  -1.358  23.646  0.00  0.00    +0.028 A 
ATOM     19  C   UNL     1       3.710   0.930  22.907  0.00  0.00    +0.028 A 
ATOM     21  C   UNL     1       4.844  -1.393  23.956  0.00  0.00    +0.002 A 
ATOM     22  C   UNL     1       5.069   0.897  23.218  0.00  0.00    +0.002 A 
ATOM     25  C   UNL     1       5.636  -0.265  23.742  0.00  0.00    +0.000 A 
ENDBRANCH   1  16
ENDBRANCH   7   1
ENDBRANCH  13   7
ENDBRANCH  11  13
TORSDOF 8
ENDMDL
MODEL 6
REMARK VINA RESULT:      -4.4      2.747      6.080
REMARK  Name = 75536681
REMARK  8 active torsions:
REMARK  status: ('A' for Active; 'I' for Inactive)
REMARK    1  A    between atoms: S_1  and  N_7
REMARK    2  A    between atoms: S_1  and  C_16
REMARK    3  A    between atoms: O_3  and  C_10
REMARK    4  A    between atoms: N_6  and  C_9
REMARK    5  A    between atoms: N_6  and  C_14
REMARK    6  A    between atoms: N_7  and  C_13
REMARK    7  A    between atoms: C_11  and  C_13
REMARK    8  A    between atoms: C_14  and  C_15
REMARK                            x       y       z     vdW  Elec       q    Type
REMARK                         _______ _______ _______ _____ _____    ______ ____
ROOT
ATOM      2  O   UNL     1      -0.212   3.168  23.508  0.00  0.00    -0.371 OA
ATOM      9  C   UNL     1      -0.956   3.843  25.660  0.00  0.00    +0.111 C 
ATOM     10  C   UNL     1      -0.282   2.488  25.773  0.00  0.00    +0.164 C 
ATOM     11  C   UNL     1       0.558   2.472  24.503  0.00  0.00    +0.164 C 
ATOM     12  C   UNL     1      -1.251   3.910  24.171  0.00  0.00    +0.181 C 
ENDROOT
BRANCH  10   3
ATOM      3  O   UNL     1       0.515   2.369  26.935  0.00  0.00    -0.388 OA
ATOM     28  H   UNL     1       0.001   1.896  27.612  0.00  0.00    +0.210 HD
ENDBRANCH  10   3
BRANCH   9   6
ATOM      6  N   UNL     1      -2.150   3.970  26.480  0.00  0.00    -0.303 NA
ATOM     26  H   UNL     1      -1.955   4.597  27.260  0.00  0.00    +0.123 HD
BRANCH   6  14
ATOM     14  C   UNL     1      -3.262   4.510  25.707  0.00  0.00    +0.137 C 
BRANCH  14  15
ATOM      8  N   UNL     1      -5.218   3.304  26.508  0.00  0.00    -0.259 NA
ATOM     15  C   UNL     1      -4.345   3.486  25.492  0.00  0.00    +0.055 A 
ATOM     17  C   UNL     1      -4.398   2.795  24.292  0.00  0.00    +0.024 A 
ATOM     20  C   UNL     1      -5.410   1.857  24.124  0.00  0.00    +0.003 A 
ATOM     23  C   UNL     1      -6.188   2.385  26.309  0.00  0.00    +0.111 A 
ATOM     24  C   UNL     1      -6.327   1.642  25.148  0.00  0.00    +0.020 A 
ENDBRANCH  14  15
ENDBRANCH   6  14
ENDBRANCH   9   6
BRANCH  11  13
ATOM     13  C   UNL     1       0.882   1.071  24.015  0.00  0.00    +0.140 C 
BRANCH  13   7
ATOM      7  N   UNL     1      -0.355   0.266  23.967  0.00  0.00    -0.187 NA
ATOM     27  H   UNL     1      -1.156   0.706  23.499  0.00  0.00    +0.148 HD
BRANCH   7   1
ATOM      1  S   UNL     1      -0.660  -0.899  25.169  0.00  0.00    +0.058 S 
ATOM      4  O   UNL     1      -0.884  -0.233  26.438  0.00  0.00    -0.153 OA
ATOM      5  O   UNL     1       0.328  -1.956  25.064  0.00  0.00    -0.153 OA
BRANCH   1  16
ATOM     16  C   UNL     1      -2.201  -1.578  24.631  0.00  0.00    +0.105 A 
ATOM     18  C   UNL     1      -2.378  -2.961  24.593  0.00  0.00    +0.028 A 
ATOM     19  C   UNL     1      -3.239  -0.731  24.243  0.00  0.00    +0.028 A 
ATOM     21  C   UNL     1      -3.593  -3.497  24.166  0.00  0.00    +0.002 A 
ATOM     22  C   UNL     1      -4.454  -1.267  23.816  0.00  0.00    +0.002 A 
ATOM     25  C   UNL     1      -4.630  -2.650  23.777  0.00  0.00    +0.000 A 
ENDBRANCH   1  16
ENDBRANCH   7   1
ENDBRANCH  13   7
ENDBRANCH  11  13
TORSDOF 8
ENDMDL
MODEL 7
REMARK VINA RESULT:      -4.2      1.672      3.527
REMARK  Name = 75536681
REMARK  8 active torsions:
REMARK  status: ('A' for Active; 'I' for Inactive)
REMARK    1  A    between atoms: S_1  and  N_7
REMARK    2  A    between atoms: S_1  and  C_16
REMARK    3  A    between atoms: O_3  and  C_10
REMARK    4  A    between atoms: N_6  and  C_9
REMARK    5  A    between atoms: N_6  and  C_14
REMARK    6  A    between atoms: N_7  and  C_13
REMARK    7  A    between atoms: C_11  and  C_13
REMARK    8  A    between atoms: C_14  and  C_15
REMARK                            x       y       z     vdW  Elec       q    Type
REMARK                         _______ _______ _______ _____ _____    ______ ____
ROOT
ATOM      2  O   UNL     1      -2.950   1.395  23.050  0.00  0.00    -0.371 OA
ATOM      9  C   UNL     1      -0.934   0.160  23.279  0.00  0.00    +0.111 C 
ATOM     10  C   UNL     1      -1.841  -0.150  24.456  0.00  0.00    +0.164 C 
ATOM     11  C   UNL     1      -3.197   0.261  23.898  0.00  0.00    +0.164 C 
ATOM     12  C   UNL     1      -1.541   1.455  22.764  0.00  0.00    +0.181 C 
ENDROOT
BRANCH  10   3
ATOM      3  O   UNL     1      -1.814  -1.516  24.823  0.00  0.00    -0.388 OA
ATOM     28  H   UNL     1      -0.887  -1.809  24.843  0.00  0.00    +0.210 HD
ENDBRANCH  10   3
BRANCH   9   6
ATOM      6  N   UNL     1       0.467   0.296  23.643  0.00  0.00    -0.303 NA
ATOM     26  H   UNL     1       0.645  -0.239  24.493  0.00  0.00    +0.123 HD
BRANCH   6  14
ATOM     14  C   UNL     1       1.335  -0.202  22.583  0.00  0.00    +0.137 C 
BRANCH  14  15
ATOM      8  N   UNL     1       3.286  -1.318  23.516  0.00  0.00    -0.259 NA
ATOM     15  C   UNL     1       2.785  -0.178  22.988  0.00  0.00    +0.055 A 
ATOM     17  C   UNL     1       3.522   0.981  22.805  0.00  0.00    +0.024 A 
ATOM     20  C   UNL     1       4.858   0.970  23.189  0.00  0.00    +0.003 A 
ATOM     23  C   UNL     1       4.588  -1.291  23.876  0.00  0.00    +0.111 A 
ATOM     24  C   UNL     1       5.409  -0.184  23.736  0.00  0.00    +0.020 A 
ENDBRANCH  14  15
ENDBRANCH   6  14
ENDBRANCH   9   6
BRANCH  11  13
ATOM     13  C   UNL     1      -4.201   0.634  24.974  0.00  0.00    +0.140 C 
BRANCH  13   7
ATOM      7  N   UNL     1      -4.873   1.897  24.608  0.00  0.00    -0.187 NA
ATOM     27  H   UNL     1      -5.022   2.047  23.603  0.00  0.00    +0.148 HD
BRANCH   7   1
ATOM      1  S   UNL     1      -4.739   3.258  25.619  0.00  0.00    +0.058 S 
ATOM      4  O   UNL     1      -5.019   2.868  26.989  0.00  0.00    -0.153 OA
ATOM      5  O   UNL     1      -5.454   4.367  25.016  0.00  0.00    -0.153 OA
BRANCH   1  16
ATOM     16  C   UNL     1      -3.015   3.628  25.501  0.00  0.00    +0.105 A 
ATOM     18  C   UNL     1      -2.591   4.753  24.794  0.00  0.00    +0.028 A 
ATOM     19  C   UNL     1      -2.079   2.795  26.111  0.00  0.00    +0.028 A 
ATOM     21  C   UNL     1      -1.230   5.045  24.696  0.00  0.00    +0.002 A 
ATOM     22  C   UNL     1      -0.718   3.085  26.014  0.00  0.00    +0.002 A 
ATOM     25  C   UNL     1      -0.294   4.210  25.307  0.00  0.00    +0.000 A 
ENDBRANCH   1  16
ENDBRANCH   7   1
ENDBRANCH  13   7
ENDBRANCH  11  13
TORSDOF 8
ENDMDL
MODEL 8
REMARK VINA RESULT:      -4.2      3.146      6.755
REMARK  Name = 75536681
REMARK  8 active torsions:
REMARK  status: ('A' for Active; 'I' for Inactive)
REMARK    1  A    between atoms: S_1  and  N_7
REMARK    2  A    between atoms: S_1  and  C_16
REMARK    3  A    between atoms: O_3  and  C_10
REMARK    4  A    between atoms: N_6  and  C_9
REMARK    5  A    between atoms: N_6  and  C_14
REMARK    6  A    between atoms: N_7  and  C_13
REMARK    7  A    between atoms: C_11  and  C_13
REMARK    8  A    between atoms: C_14  and  C_15
REMARK                            x       y       z     vdW  Elec       q    Type
REMARK                         _______ _______ _______ _____ _____    ______ ____
ROOT
ATOM      2  O   UNL     1      -1.529  -1.098  26.464  0.00  0.00    -0.371 OA
ATOM      9  C   UNL     1      -3.486  -1.684  25.253  0.00  0.00    +0.111 C 
ATOM     10  C   UNL     1      -2.278  -1.840  24.347  0.00  0.00    +0.164 C 
ATOM     11  C   UNL     1      -1.156  -1.953  25.370  0.00  0.00    +0.164 C 
ATOM     12  C   UNL     1      -2.928  -0.788  26.346  0.00  0.00    +0.181 C 
ENDROOT
BRANCH  10   3
ATOM      3  O   UNL     1      -2.358  -2.986  23.522  0.00  0.00    -0.388 OA
ATOM     28  H   UNL     1      -2.176  -2.716  22.605  0.00  0.00    +0.210 HD
ENDBRANCH  10   3
BRANCH   9   6
ATOM      6  N   UNL     1      -4.644  -1.111  24.587  0.00  0.00    -0.303 NA
ATOM     26  H   UNL     1      -5.293  -0.757  25.290  0.00  0.00    +0.123 HD
BRANCH   6  14
ATOM     14  C   UNL     1      -4.255  -0.014  23.709  0.00  0.00    +0.137 C 
BRANCH  14  15
ATOM      8  N   UNL     1      -5.383   1.321  25.402  0.00  0.00    -0.259 NA
ATOM     15  C   UNL     1      -4.592   1.328  24.306  0.00  0.00    +0.055 A 
ATOM     17  C   UNL     1      -4.089   2.477  23.719  0.00  0.00    +0.024 A 
ATOM     20  C   UNL     1      -4.418   3.699  24.294  0.00  0.00    +0.003 A 
ATOM     23  C   UNL     1      -5.682   2.528  25.934  0.00  0.00    +0.111 A 
ATOM     24  C   UNL     1      -5.230   3.733  25.423  0.00  0.00    +0.020 A 
ENDBRANCH  14  15
ENDBRANCH   6  14
ENDBRANCH   9   6
BRANCH  11  13
ATOM     13  C   UNL     1       0.197  -1.532  24.826  0.00  0.00    +0.140 C 
BRANCH  13   7
ATOM      7  N   UNL     1       0.415  -0.097  25.099  0.00  0.00    -0.187 NA
ATOM     27  H   UNL     1       0.098   0.235  26.018  0.00  0.00    +0.148 HD
BRANCH   7   1
ATOM      1  S   UNL     1       0.478   1.015  23.813  0.00  0.00    +0.058 S 
ATOM      4  O   UNL     1      -0.360   0.541  22.727  0.00  0.00    -0.153 OA
ATOM      5  O   UNL     1       1.862   1.371  23.564  0.00  0.00    -0.153 OA
BRANCH   1  16
ATOM     16  C   UNL     1      -0.302   2.433  24.523  0.00  0.00    +0.105 A 
ATOM     18  C   UNL     1      -1.008   2.314  25.720  0.00  0.00    +0.028 A 
ATOM     19  C   UNL     1      -0.213   3.670  23.886  0.00  0.00    +0.028 A 
ATOM     21  C   UNL     1      -1.627   3.432  26.280  0.00  0.00    +0.002 A 
ATOM     22  C   UNL     1      -0.832   4.789  24.445  0.00  0.00    +0.002 A 
ATOM     25  C   UNL     1      -1.539   4.670  25.641  0.00  0.00    +0.000 A 
ENDBRANCH   1  16
ENDBRANCH   7   1
ENDBRANCH  13   7
ENDBRANCH  11  13
TORSDOF 8
ENDMDL
MODEL 9
REMARK VINA RESULT:      -3.9      1.952      2.781
REMARK  Name = 75536681
REMARK  8 active torsions:
REMARK  status: ('A' for Active; 'I' for Inactive)
REMARK    1  A    between atoms: S_1  and  N_7
REMARK    2  A    between atoms: S_1  and  C_16
REMARK    3  A    between atoms: O_3  and  C_10
REMARK    4  A    between atoms: N_6  and  C_9
REMARK    5  A    between atoms: N_6  and  C_14
REMARK    6  A    between atoms: N_7  and  C_13
REMARK    7  A    between atoms: C_11  and  C_13
REMARK    8  A    between atoms: C_14  and  C_15
REMARK                            x       y       z     vdW  Elec       q    Type
REMARK                         _______ _______ _______ _____ _____    ______ ____
ROOT
ATOM      2  O   UNL     1      -1.328   0.740  25.802  0.00  0.00    -0.371 OA
ATOM      9  C   UNL     1       0.459   0.154  24.350  0.00  0.00    +0.111 C 
ATOM     10  C   UNL     1       0.080   1.604  24.109  0.00  0.00    +0.164 C 
ATOM     11  C   UNL     1      -0.641   1.940  25.408  0.00  0.00    +0.164 C 
ATOM     12  C   UNL     1      -0.779  -0.365  25.063  0.00  0.00    +0.181 C 
ENDROOT
BRANCH  10   3
ATOM      3  O   UNL     1       1.204   2.436  23.899  0.00  0.00    -0.388 OA
ATOM     28  H   UNL     1       1.556   2.700  24.767  0.00  0.00    +0.210 HD
ENDBRANCH  10   3
BRANCH   9   6
ATOM      6  N   UNL     1       0.762  -0.580  23.132  0.00  0.00    -0.303 NA
ATOM     26  H   UNL     1      -0.084  -0.650  22.566  0.00  0.00    +0.123 HD
BRANCH   6  14
ATOM     14  C   UNL     1       1.794   0.097  22.356  0.00  0.00    +0.137 C 
BRANCH  14  15
ATOM      8  N   UNL     1       3.418  -1.339  23.463  0.00  0.00    -0.259 NA
ATOM     15  C   UNL     1       3.165  -0.117  22.941  0.00  0.00    +0.055 A 
ATOM     17  C   UNL     1       4.082   0.920  22.918  0.00  0.00    +0.024 A 
ATOM     20  C   UNL     1       5.340   0.691  23.465  0.00  0.00    +0.003 A 
ATOM     23  C   UNL     1       4.650  -1.525  23.985  0.00  0.00    +0.111 A 
ATOM     24  C   UNL     1       5.637  -0.553  24.011  0.00  0.00    +0.020 A 
ENDBRANCH  14  15
ENDBRANCH   6  14
ENDBRANCH   9   6
BRANCH  11  13
ATOM     13  C   UNL     1      -1.635   3.078  25.266  0.00  0.00    +0.140 C 
BRANCH  13   7
ATOM      7  N   UNL     1      -1.868   3.356  23.834  0.00  0.00    -0.187 NA
ATOM     27  H   UNL     1      -1.571   4.283  23.505  0.00  0.00    +0.148 HD
BRANCH   7   1
ATOM      1  S   UNL     1      -3.130   2.571  23.008  0.00  0.00    +0.058 S 
ATOM      4  O   UNL     1      -2.691   1.248  22.605  0.00  0.00    -0.153 OA
ATOM      5  O   UNL     1      -3.693   3.482  22.029  0.00  0.00    -0.153 OA
BRANCH   1  16
ATOM     16  C   UNL     1      -4.335   2.378  24.287  0.00  0.00    +0.105 A 
ATOM     18  C   UNL     1      -4.715   1.101  24.700  0.00  0.00    +0.028 A 
ATOM     19  C   UNL     1      -4.907   3.502  24.882  0.00  0.00    +0.028 A 
ATOM     21  C   UNL     1      -5.668   0.948  25.707  0.00  0.00    +0.002 A 
ATOM     22  C   UNL     1      -5.860   3.350  25.889  0.00  0.00    +0.002 A 
ATOM     25  C   UNL     1      -6.240   2.073  26.301  0.00  0.00    +0.000 A 
ENDBRANCH   1  16
ENDBRANCH   7   1
ENDBRANCH  13   7
ENDBRANCH  11  13
TORSDOF 8
ENDMDL
MODEL 10
REMARK VINA RESULT:      -3.8      2.438      6.882
REMARK  Name = 75536681
REMARK  8 active torsions:
REMARK  status: ('A' for Active; 'I' for Inactive)
REMARK    1  A    between atoms: S_1  and  N_7
REMARK    2  A    between atoms: S_1  and  C_16
REMARK    3  A    between atoms: O_3  and  C_10
REMARK    4  A    between atoms: N_6  and  C_9
REMARK    5  A    between atoms: N_6  and  C_14
REMARK    6  A    between atoms: N_7  and  C_13
REMARK    7  A    between atoms: C_11  and  C_13
REMARK    8  A    between atoms: C_14  and  C_15
REMARK                            x       y       z     vdW  Elec       q    Type
REMARK                         _______ _______ _______ _____ _____    ______ ____
ROOT
ATOM      2  O   UNL     1      -1.200  -1.045  25.782  0.00  0.00    -0.371 OA
ATOM      9  C   UNL     1      -3.536  -0.671  25.573  0.00  0.00    +0.111 C 
ATOM     10  C   UNL     1      -3.003  -1.218  24.261  0.00  0.00    +0.164 C 
ATOM     11  C   UNL     1      -1.707  -1.872  24.721  0.00  0.00    +0.164 C 
ATOM     12  C   UNL     1      -2.258  -0.184  26.237  0.00  0.00    +0.181 C 
ENDROOT
BRANCH  10   3
ATOM      3  O   UNL     1      -3.880  -2.150  23.661  0.00  0.00    -0.388 OA
ATOM     28  H   UNL     1      -4.775  -1.997  24.010  0.00  0.00    +0.210 HD
ENDBRANCH  10   3
BRANCH   9   6
ATOM      6  N   UNL     1      -4.524   0.383  25.407  0.00  0.00    -0.303 NA
ATOM     26  H   UNL     1      -4.555   0.949  26.254  0.00  0.00    +0.123 HD
BRANCH   6  14
ATOM     14  C   UNL     1      -4.189   1.242  24.277  0.00  0.00    +0.137 C 
BRANCH  14  15
ATOM      8  N   UNL     1      -2.171   2.593  24.118  0.00  0.00    -0.259 NA
ATOM     15  C   UNL     1      -3.380   2.438  24.704  0.00  0.00    +0.055 A 
ATOM     17  C   UNL     1      -3.898   3.305  25.652  0.00  0.00    +0.024 A 
ATOM     20  C   UNL     1      -3.127   4.400  26.024  0.00  0.00    +0.003 A 
ATOM     23  C   UNL     1      -1.450   3.668  24.505  0.00  0.00    +0.111 A 
ATOM     24  C   UNL     1      -1.878   4.592  25.444  0.00  0.00    +0.020 A 
ENDBRANCH  14  15
ENDBRANCH   6  14
ENDBRANCH   9   6
BRANCH  11  13
ATOM     13  C   UNL     1      -0.669  -1.987  23.619  0.00  0.00    +0.140 C 
BRANCH  13   7
ATOM      7  N   UNL     1       0.526  -1.199  23.980  0.00  0.00    -0.187 NA
ATOM     27  H   UNL     1       0.684  -1.064  24.987  0.00  0.00    +0.148 HD
BRANCH   7   1
ATOM      1  S   UNL     1       1.137  -0.034  22.902  0.00  0.00    +0.058 S 
ATOM      4  O   UNL     1       0.696   1.284  23.318  0.00  0.00    -0.153 OA
ATOM      5  O   UNL     1       0.908  -0.484  21.542  0.00  0.00    -0.153 OA
BRANCH   1  16
ATOM     16  C   UNL     1       2.876  -0.144  23.197  0.00  0.00    +0.105 A 
ATOM     18  C   UNL     1       3.429  -1.333  23.672  0.00  0.00    +0.028 A 
ATOM     19  C   UNL     1       3.695   0.959  22.959  0.00  0.00    +0.028 A 
ATOM     21  C   UNL     1       4.801  -1.420  23.909  0.00  0.00    +0.002 A 
ATOM     22  C   UNL     1       5.067   0.874  23.196  0.00  0.00    +0.002 A 
ATOM     25  C   UNL     1       5.620  -0.316  23.671  0.00  0.00    +0.000 A 
ENDBRANCH   1  16
ENDBRANCH   7   1
ENDBRANCH  13   7
ENDBRANCH  11  13
TORSDOF 8
ENDMDL
