MODEL 1
REMARK VINA RESULT:      -4.6      0.000      0.000
REMARK  Name = 51137085
REMARK  3 active torsions:
REMARK  status: ('A' for Active; 'I' for Inactive)
REMARK    1  A    between atoms: N_2  and  C_10
REMARK    2  A    between atoms: C_5  and  C_9
REMARK    3  A    between atoms: C_10  and  C_11
REMARK                            x       y       z     vdW  Elec       q    Type
REMARK                         _______ _______ _______ _____ _____    ______ ____
ROOT
ATOM      2  N   UNL     1       0.697  -0.597  23.706  0.00  0.00    -0.296 NA
ATOM      5  C   UNL     1      -1.120  -0.083  25.097  0.00  0.00    +0.060 C 
ATOM      6  C   UNL     1      -1.311  -1.486  24.498  0.00  0.00    +0.027 C 
ATOM      7  C   UNL     1      -0.028   0.562  24.233  0.00  0.00    +0.095 C 
ATOM      8  C   UNL     1      -0.345  -1.549  23.323  0.00  0.00    +0.085 C 
ENDROOT
BRANCH   5   9
ATOM      1  S   UNL     1      -3.899  -0.024  25.073  0.00  0.00    -0.072 S 
ATOM      3  N   UNL     1      -2.394   2.058  25.312  0.00  0.00    -0.244 NA
ATOM      9  C   UNL     1      -2.378   0.752  25.173  0.00  0.00    +0.084 A 
ATOM     12  C   UNL     1      -4.679   1.507  25.227  0.00  0.00    +0.039 A 
ATOM     13  C   UNL     1      -3.707   2.505  25.345  0.00  0.00    +0.078 A 
ATOM     15  C   UNL     1      -6.051   1.802  25.243  0.00  0.00    +0.017 A 
ATOM     16  C   UNL     1      -4.126   3.845  25.483  0.00  0.00    +0.029 A 
ATOM     17  C   UNL     1      -6.439   3.137  25.381  0.00  0.00    +0.001 A 
ATOM     18  C   UNL     1      -5.491   4.147  25.499  0.00  0.00    +0.002 A 
ENDBRANCH   5   9
BRANCH   2  10
ATOM     10  C   UNL     1       1.566  -0.248  22.592  0.00  0.00    +0.139 C 
BRANCH  10  11
ATOM      4  N   UNL     1       3.513  -1.352  23.547  0.00  0.00    -0.259 NA
ATOM     11  C   UNL     1       3.015  -0.220  22.999  0.00  0.00    +0.055 A 
ATOM     14  C   UNL     1       3.754   0.935  22.798  0.00  0.00    +0.024 A 
ATOM     19  C   UNL     1       5.090   0.928  23.184  0.00  0.00    +0.003 A 
ATOM     20  C   UNL     1       4.815  -1.321  23.910  0.00  0.00    +0.111 A 
ATOM     21  C   UNL     1       5.638  -0.217  23.751  0.00  0.00    +0.020 A 
ENDBRANCH  10  11
ENDBRANCH   2  10
TORSDOF 3
ENDMDL
MODEL 2
REMARK VINA RESULT:      -3.9     15.426     18.290
REMARK  Name = 51137085
REMARK  3 active torsions:
REMARK  status: ('A' for Active; 'I' for Inactive)
REMARK    1  A    between atoms: N_2  and  C_10
REMARK    2  A    between atoms: C_5  and  C_9
REMARK    3  A    between atoms: C_10  and  C_11
REMARK                            x       y       z     vdW  Elec       q    Type
REMARK                         _______ _______ _______ _____ _____    ______ ____
ROOT
ATOM      2  N   UNL     1      -9.462  -9.876  12.700  0.00  0.00    -0.296 NA
ATOM      5  C   UNL     1      -7.510  -9.149  11.622  0.00  0.00    +0.060 C 
ATOM      6  C   UNL     1      -8.326 -10.036  10.666  0.00  0.00    +0.027 C 
ATOM      7  C   UNL     1      -8.103  -9.427  13.010  0.00  0.00    +0.095 C 
ATOM      8  C   UNL     1      -9.308 -10.781  11.560  0.00  0.00    +0.085 C 
ENDROOT
BRANCH   5   9
ATOM      1  S   UNL     1      -5.109  -8.599  10.334  0.00  0.00    -0.072 S 
ATOM      3  N   UNL     1      -5.342 -10.111  12.411  0.00  0.00    -0.244 NA
ATOM      9  C   UNL     1      -6.015  -9.364  11.567  0.00  0.00    +0.084 A 
ATOM     12  C   UNL     1      -3.671  -9.316  10.960  0.00  0.00    +0.039 A 
ATOM     13  C   UNL     1      -3.996 -10.093  12.076  0.00  0.00    +0.078 A 
ATOM     15  C   UNL     1      -2.351  -9.198  10.498  0.00  0.00    +0.017 A 
ATOM     16  C   UNL     1      -2.962 -10.776  12.750  0.00  0.00    +0.029 A 
ATOM     17  C   UNL     1      -1.345  -9.884  11.184  0.00  0.00    +0.001 A 
ATOM     18  C   UNL     1      -1.644 -10.663  12.295  0.00  0.00    +0.002 A 
ENDBRANCH   5   9
BRANCH   2  10
ATOM     10  C   UNL     1     -10.107 -10.520  13.836  0.00  0.00    +0.139 C 
BRANCH  10  11
ATOM      4  N   UNL     1     -10.554  -8.306  14.741  0.00  0.00    -0.259 NA
ATOM     11  C   UNL     1     -10.225  -9.590  15.013  0.00  0.00    +0.055 A 
ATOM     14  C   UNL     1      -9.999 -10.079  16.289  0.00  0.00    +0.024 A 
ATOM     19  C   UNL     1     -10.118  -9.194  17.356  0.00  0.00    +0.003 A 
ATOM     20  C   UNL     1     -10.660  -7.476  15.803  0.00  0.00    +0.111 A 
ATOM     21  C   UNL     1     -10.455  -7.867  17.117  0.00  0.00    +0.020 A 
ENDBRANCH  10  11
ENDBRANCH   2  10
TORSDOF 3
ENDMDL
MODEL 3
REMARK VINA RESULT:      -3.4     17.762     18.456
REMARK  Name = 51137085
REMARK  3 active torsions:
REMARK  status: ('A' for Active; 'I' for Inactive)
REMARK    1  A    between atoms: N_2  and  C_10
REMARK    2  A    between atoms: C_5  and  C_9
REMARK    3  A    between atoms: C_10  and  C_11
REMARK                            x       y       z     vdW  Elec       q    Type
REMARK                         _______ _______ _______ _____ _____    ______ ____
ROOT
ATOM      2  N   UNL     1      17.405  -5.641  24.763  0.00  0.00    -0.296 NA
ATOM      5  C   UNL     1      17.207  -6.182  27.036  0.00  0.00    +0.060 C 
ATOM      6  C   UNL     1      17.403  -7.468  26.216  0.00  0.00    +0.027 C 
ATOM      7  C   UNL     1      16.823  -5.117  26.001  0.00  0.00    +0.095 C 
ATOM      8  C   UNL     1      17.096  -7.071  24.778  0.00  0.00    +0.085 C 
ENDROOT
BRANCH   5   9
ATOM      1  S   UNL     1      15.154  -7.642  28.212  0.00  0.00    -0.072 S 
ATOM      3  N   UNL     1      16.077  -5.415  29.130  0.00  0.00    -0.244 NA
ATOM      9  C   UNL     1      16.206  -6.294  28.163  0.00  0.00    +0.084 A 
ATOM     12  C   UNL     1      14.443  -7.022  29.655  0.00  0.00    +0.039 A 
ATOM     13  C   UNL     1      15.070  -5.820  29.994  0.00  0.00    +0.078 A 
ATOM     15  C   UNL     1      13.405  -7.561  30.432  0.00  0.00    +0.017 A 
ATOM     16  C   UNL     1      14.641  -5.134  31.150  0.00  0.00    +0.029 A 
ATOM     17  C   UNL     1      13.000  -6.863  31.572  0.00  0.00    +0.001 A 
ATOM     18  C   UNL     1      13.608  -5.665  31.928  0.00  0.00    +0.002 A 
ENDBRANCH   5   9
BRANCH   2  10
ATOM     10  C   UNL     1      16.883  -4.974  23.578  0.00  0.00    +0.139 C 
BRANCH  10  11
ATOM      4  N   UNL     1      17.107  -2.934  24.886  0.00  0.00    -0.259 NA
ATOM     11  C   UNL     1      17.068  -3.482  23.649  0.00  0.00    +0.055 A 
ATOM     14  C   UNL     1      17.190  -2.757  22.475  0.00  0.00    +0.024 A 
ATOM     19  C   UNL     1      17.361  -1.380  22.576  0.00  0.00    +0.003 A 
ATOM     20  C   UNL     1      17.274  -1.593  24.943  0.00  0.00    +0.111 A 
ATOM     21  C   UNL     1      17.405  -0.780  23.829  0.00  0.00    +0.020 A 
ENDBRANCH  10  11
ENDBRANCH   2  10
TORSDOF 3
ENDMDL
MODEL 4
REMARK VINA RESULT:      -2.5     18.185     18.686
REMARK  Name = 51137085
REMARK  3 active torsions:
REMARK  status: ('A' for Active; 'I' for Inactive)
REMARK    1  A    between atoms: N_2  and  C_10
REMARK    2  A    between atoms: C_5  and  C_9
REMARK    3  A    between atoms: C_10  and  C_11
REMARK                            x       y       z     vdW  Elec       q    Type
REMARK                         _______ _______ _______ _____ _____    ______ ____
ROOT
ATOM      2  N   UNL     1      17.182  -5.647  24.809  0.00  0.00    -0.296 NA
ATOM      5  C   UNL     1      17.389  -5.823  27.139  0.00  0.00    +0.060 C 
ATOM      6  C   UNL     1      16.575  -7.013  26.603  0.00  0.00    +0.027 C 
ATOM      7  C   UNL     1      17.390  -4.806  25.990  0.00  0.00    +0.095 C 
ATOM      8  C   UNL     1      16.141  -6.597  25.204  0.00  0.00    +0.085 C 
ENDROOT
BRANCH   5   9
ATOM      1  S   UNL     1      15.887  -6.199  29.448  0.00  0.00    -0.072 S 
ATOM      3  N   UNL     1      17.152  -4.029  28.863  0.00  0.00    -0.244 NA
ATOM      9  C   UNL     1      16.882  -5.242  28.439  0.00  0.00    +0.084 A 
ATOM     12  C   UNL     1      15.788  -4.895  30.572  0.00  0.00    +0.039 A 
ATOM     13  C   UNL     1      16.532  -3.816  30.086  0.00  0.00    +0.078 A 
ATOM     15  C   UNL     1      15.103  -4.832  31.796  0.00  0.00    +0.017 A 
ATOM     16  C   UNL     1      16.589  -2.633  30.853  0.00  0.00    +0.029 A 
ATOM     17  C   UNL     1      15.177  -3.650  32.536  0.00  0.00    +0.001 A 
ATOM     18  C   UNL     1      15.910  -2.563  32.073  0.00  0.00    +0.002 A 
ENDBRANCH   5   9
BRANCH   2  10
ATOM     10  C   UNL     1      16.808  -4.872  23.635  0.00  0.00    +0.139 C 
BRANCH  10  11
ATOM      4  N   UNL     1      16.710  -2.980  25.161  0.00  0.00    -0.259 NA
ATOM     11  C   UNL     1      16.903  -3.392  23.887  0.00  0.00    +0.055 A 
ATOM     14  C   UNL     1      17.179  -2.540  22.831  0.00  0.00    +0.024 A 
ATOM     19  C   UNL     1      17.262  -1.177  23.098  0.00  0.00    +0.003 A 
ATOM     20  C   UNL     1      16.798  -1.650  25.382  0.00  0.00    +0.111 A 
ATOM     21  C   UNL     1      17.069  -0.716  24.395  0.00  0.00    +0.020 A 
ENDBRANCH  10  11
ENDBRANCH   2  10
TORSDOF 3
ENDMDL
MODEL 5
REMARK VINA RESULT:      -2.4     18.087     18.916
REMARK  Name = 51137085
REMARK  3 active torsions:
REMARK  status: ('A' for Active; 'I' for Inactive)
REMARK    1  A    between atoms: N_2  and  C_10
REMARK    2  A    between atoms: C_5  and  C_9
REMARK    3  A    between atoms: C_10  and  C_11
REMARK                            x       y       z     vdW  Elec       q    Type
REMARK                         _______ _______ _______ _____ _____    ______ ____
ROOT
ATOM      2  N   UNL     1      17.019  -8.137  25.623  0.00  0.00    -0.296 NA
ATOM      5  C   UNL     1      16.581  -7.813  27.904  0.00  0.00    +0.060 C 
ATOM      6  C   UNL     1      15.384  -8.520  27.245  0.00  0.00    +0.027 C 
ATOM      7  C   UNL     1      17.396  -7.255  26.730  0.00  0.00    +0.095 C 
ATOM      8  C   UNL     1      15.571  -8.302  25.750  0.00  0.00    +0.085 C 
ENDROOT
BRANCH   5   9
ATOM      1  S   UNL     1      14.748  -6.910  29.789  0.00  0.00    -0.072 S 
ATOM      3  N   UNL     1      16.948  -5.702  29.191  0.00  0.00    -0.244 NA
ATOM      9  C   UNL     1      16.213  -6.756  28.920  0.00  0.00    +0.084 A 
ATOM     12  C   UNL     1      15.099  -5.440  30.620  0.00  0.00    +0.039 A 
ATOM     13  C   UNL     1      16.322  -4.938  30.166  0.00  0.00    +0.078 A 
ATOM     15  C   UNL     1      14.346  -4.780  31.604  0.00  0.00    +0.017 A 
ATOM     16  C   UNL     1      16.805  -3.732  30.716  0.00  0.00    +0.029 A 
ATOM     17  C   UNL     1      14.848  -3.588  32.133  0.00  0.00    +0.001 A 
ATOM     18  C   UNL     1      16.061  -3.069  31.696  0.00  0.00    +0.002 A 
ENDBRANCH   5   9
BRANCH   2  10
ATOM     10  C   UNL     1      17.404  -7.598  24.327  0.00  0.00    +0.139 C 
BRANCH  10  11
ATOM      4  N   UNL     1      17.188  -5.457  25.462  0.00  0.00    -0.259 NA
ATOM     11  C   UNL     1      17.248  -6.102  24.274  0.00  0.00    +0.055 A 
ATOM     14  C   UNL     1      17.179  -5.469  23.044  0.00  0.00    +0.024 A 
ATOM     19  C   UNL     1      17.036  -4.086  23.030  0.00  0.00    +0.003 A 
ATOM     20  C   UNL     1      17.050  -4.113  25.408  0.00  0.00    +0.111 A 
ATOM     21  C   UNL     1      16.970  -3.388  24.230  0.00  0.00    +0.020 A 
ENDBRANCH  10  11
ENDBRANCH   2  10
TORSDOF 3
ENDMDL
MODEL 6
REMARK VINA RESULT:      -2.1      1.572      2.152
REMARK  Name = 51137085
REMARK  3 active torsions:
REMARK  status: ('A' for Active; 'I' for Inactive)
REMARK    1  A    between atoms: N_2  and  C_10
REMARK    2  A    between atoms: C_5  and  C_9
REMARK    3  A    between atoms: C_10  and  C_11
REMARK                            x       y       z     vdW  Elec       q    Type
REMARK                         _______ _______ _______ _____ _____    ______ ____
ROOT
ATOM      2  N   UNL     1       0.952   0.987  23.048  0.00  0.00    -0.296 NA
ATOM      5  C   UNL     1      -0.911   2.347  23.474  0.00  0.00    +0.060 C 
ATOM      6  C   UNL     1       0.235   2.730  24.427  0.00  0.00    +0.027 C 
ATOM      7  C   UNL     1      -0.506   0.978  22.912  0.00  0.00    +0.095 C 
ATOM      8  C   UNL     1       1.202   1.555  24.373  0.00  0.00    +0.085 C 
ENDROOT
BRANCH   5   9
ATOM      1  S   UNL     1      -2.962   3.820  24.636  0.00  0.00    -0.072 S 
ATOM      3  N   UNL     1      -3.016   1.266  24.279  0.00  0.00    -0.244 NA
ATOM      9  C   UNL     1      -2.285   2.342  24.104  0.00  0.00    +0.084 A 
ATOM     12  C   UNL     1      -4.372   2.974  25.158  0.00  0.00    +0.039 A 
ATOM     13  C   UNL     1      -4.216   1.613  24.882  0.00  0.00    +0.078 A 
ATOM     15  C   UNL     1      -5.532   3.480  25.767  0.00  0.00    +0.017 A 
ATOM     16  C   UNL     1      -5.259   0.728  25.230  0.00  0.00    +0.029 A 
ATOM     17  C   UNL     1      -6.549   2.582  26.100  0.00  0.00    +0.001 A 
ATOM     18  C   UNL     1      -6.416   1.224  25.837  0.00  0.00    +0.002 A 
ENDBRANCH   5   9
BRANCH   2  10
ATOM     10  C   UNL     1       1.533  -0.339  22.895  0.00  0.00    +0.139 C 
BRANCH  10  11
ATOM      4  N   UNL     1       3.530  -1.461  23.715  0.00  0.00    -0.259 NA
ATOM     11  C   UNL     1       3.013  -0.336  23.169  0.00  0.00    +0.055 A 
ATOM     14  C   UNL     1       3.759   0.787  22.854  0.00  0.00    +0.024 A 
ATOM     19  C   UNL     1       5.124   0.756  23.118  0.00  0.00    +0.003 A 
ATOM     20  C   UNL     1       4.860  -1.453  23.957  0.00  0.00    +0.111 A 
ATOM     21  C   UNL     1       5.693  -0.381  23.680  0.00  0.00    +0.020 A 
ENDBRANCH  10  11
ENDBRANCH   2  10
TORSDOF 3
ENDMDL
MODEL 7
REMARK VINA RESULT:      -2.0      2.219      7.246
REMARK  Name = 51137085
REMARK  3 active torsions:
REMARK  status: ('A' for Active; 'I' for Inactive)
REMARK    1  A    between atoms: N_2  and  C_10
REMARK    2  A    between atoms: C_5  and  C_9
REMARK    3  A    between atoms: C_10  and  C_11
REMARK                            x       y       z     vdW  Elec       q    Type
REMARK                         _______ _______ _______ _____ _____    ______ ____
ROOT
ATOM      2  N   UNL     1      -3.574   1.931  24.959  0.00  0.00    -0.296 NA
ATOM      5  C   UNL     1      -1.295   2.315  24.563  0.00  0.00    +0.060 C 
ATOM      6  C   UNL     1      -2.129   2.975  23.452  0.00  0.00    +0.027 C 
ATOM      7  C   UNL     1      -2.264   1.345  25.250  0.00  0.00    +0.095 C 
ATOM      8  C   UNL     1      -3.504   2.329  23.552  0.00  0.00    +0.085 C 
ENDROOT
BRANCH   5   9
ATOM      1  S   UNL     1      -0.021  -0.051  23.850  0.00  0.00    -0.072 S 
ATOM      3  N   UNL     1       1.100   2.273  23.847  0.00  0.00    -0.244 NA
ATOM      9  C   UNL     1      -0.026   1.643  24.090  0.00  0.00    +0.084 A 
ATOM     12  C   UNL     1       1.634   0.032  23.372  0.00  0.00    +0.039 A 
ATOM     13  C   UNL     1       2.061   1.362  23.433  0.00  0.00    +0.078 A 
ATOM     15  C   UNL     1       2.492  -1.004  22.972  0.00  0.00    +0.017 A 
ATOM     16  C   UNL     1       3.395   1.662  23.082  0.00  0.00    +0.029 A 
ATOM     17  C   UNL     1       3.807  -0.681  22.628  0.00  0.00    +0.001 A 
ATOM     18  C   UNL     1       4.254   0.634  22.682  0.00  0.00    +0.002 A 
ENDBRANCH   5   9
BRANCH   2  10
ATOM     10  C   UNL     1      -4.668   1.006  25.219  0.00  0.00    +0.139 C 
BRANCH  10  11
ATOM      4  N   UNL     1      -4.592  -0.973  23.806  0.00  0.00    -0.259 NA
ATOM     11  C   UNL     1      -4.255  -0.424  24.996  0.00  0.00    +0.055 A 
ATOM     14  C   UNL     1      -3.565  -1.095  25.992  0.00  0.00    +0.024 A 
ATOM     19  C   UNL     1      -3.197  -2.415  25.754  0.00  0.00    +0.003 A 
ATOM     20  C   UNL     1      -4.217  -2.258  23.611  0.00  0.00    +0.111 A 
ATOM     21  C   UNL     1      -3.525  -3.014  24.543  0.00  0.00    +0.020 A 
ENDBRANCH  10  11
ENDBRANCH   2  10
TORSDOF 3
ENDMDL
MODEL 8
REMARK VINA RESULT:      -1.8      3.171      6.695
REMARK  Name = 51137085
REMARK  3 active torsions:
REMARK  status: ('A' for Active; 'I' for Inactive)
REMARK    1  A    between atoms: N_2  and  C_10
REMARK    2  A    between atoms: C_5  and  C_9
REMARK    3  A    between atoms: C_10  and  C_11
REMARK                            x       y       z     vdW  Elec       q    Type
REMARK                         _______ _______ _______ _____ _____    ______ ____
ROOT
ATOM      2  N   UNL     1      -0.314   3.586  25.227  0.00  0.00    -0.296 NA
ATOM      5  C   UNL     1      -0.270   1.242  25.175  0.00  0.00    +0.060 C 
ATOM      6  C   UNL     1       0.499   1.798  23.964  0.00  0.00    +0.027 C 
ATOM      7  C   UNL     1      -1.084   2.433  25.697  0.00  0.00    +0.095 C 
ATOM      8  C   UNL     1       0.061   3.252  23.852  0.00  0.00    +0.085 C 
ENDROOT
BRANCH   5   9
ATOM      1  S   UNL     1      -0.431  -1.529  25.018  0.00  0.00    -0.072 S 
ATOM      3  N   UNL     1      -2.385   0.080  24.522  0.00  0.00    -0.244 NA
ATOM      9  C   UNL     1      -1.124   0.029  24.882  0.00  0.00    +0.084 A 
ATOM     12  C   UNL     1      -1.938  -2.229  24.556  0.00  0.00    +0.039 A 
ATOM     13  C   UNL     1      -2.866  -1.208  24.332  0.00  0.00    +0.078 A 
ATOM     15  C   UNL     1      -2.275  -3.583  24.405  0.00  0.00    +0.017 A 
ATOM     16  C   UNL     1      -4.176  -1.557  23.941  0.00  0.00    +0.029 A 
ATOM     17  C   UNL     1      -3.579  -3.902  24.018  0.00  0.00    +0.001 A 
ATOM     18  C   UNL     1      -4.519  -2.904  23.789  0.00  0.00    +0.002 A 
ENDBRANCH   5   9
BRANCH   2  10
ATOM     10  C   UNL     1      -1.067   4.829  25.309  0.00  0.00    +0.139 C 
BRANCH  10  11
ATOM      4  N   UNL     1      -3.148   4.507  24.090  0.00  0.00    -0.259 NA
ATOM     11  C   UNL     1      -2.552   4.584  25.302  0.00  0.00    +0.055 A 
ATOM     14  C   UNL     1      -3.223   4.448  26.507  0.00  0.00    +0.024 A 
ATOM     19  C   UNL     1      -4.595   4.221  26.465  0.00  0.00    +0.003 A 
ATOM     20  C   UNL     1      -4.482   4.286  24.090  0.00  0.00    +0.111 A 
ATOM     21  C   UNL     1      -5.243   4.137  25.239  0.00  0.00    +0.020 A 
ENDBRANCH  10  11
ENDBRANCH   2  10
TORSDOF 3
ENDMDL
MODEL 9
REMARK VINA RESULT:      -0.9      2.274      7.790
REMARK  Name = 51137085
REMARK  3 active torsions:
REMARK  status: ('A' for Active; 'I' for Inactive)
REMARK    1  A    between atoms: N_2  and  C_10
REMARK    2  A    between atoms: C_5  and  C_9
REMARK    3  A    between atoms: C_10  and  C_11
REMARK                            x       y       z     vdW  Elec       q    Type
REMARK                         _______ _______ _______ _____ _____    ______ ____
ROOT
ATOM      2  N   UNL     1      -2.754   4.547  26.040  0.00  0.00    -0.296 NA
ATOM      5  C   UNL     1      -0.724   3.450  25.616  0.00  0.00    +0.060 C 
ATOM      6  C   UNL     1      -0.633   4.907  25.132  0.00  0.00    +0.027 C 
ATOM      7  C   UNL     1      -2.226   3.200  25.811  0.00  0.00    +0.095 C 
ATOM      8  C   UNL     1      -2.075   5.389  25.054  0.00  0.00    +0.085 C 
ENDROOT
BRANCH   5   9
ATOM      1  S   UNL     1      -1.031   1.197  24.017  0.00  0.00    -0.072 S 
ATOM      3  N   UNL     1       1.203   2.430  24.394  0.00  0.00    -0.244 NA
ATOM      9  C   UNL     1      -0.073   2.436  24.705  0.00  0.00    +0.084 A 
ATOM     12  C   UNL     1       0.365   0.574  23.219  0.00  0.00    +0.039 A 
ATOM     13  C   UNL     1       1.469   1.368  23.542  0.00  0.00    +0.078 A 
ATOM     15  C   UNL     1       0.475  -0.537  22.368  0.00  0.00    +0.017 A 
ATOM     16  C   UNL     1       2.726   1.036  22.994  0.00  0.00    +0.029 A 
ATOM     17  C   UNL     1       1.731  -0.844  21.838  0.00  0.00    +0.001 A 
ATOM     18  C   UNL     1       2.843  -0.069  22.145  0.00  0.00    +0.002 A 
ENDBRANCH   5   9
BRANCH   2  10
ATOM     10  C   UNL     1      -4.203   4.604  25.914  0.00  0.00    +0.139 C 
BRANCH  10  11
ATOM      4  N   UNL     1      -5.721   2.774  26.429  0.00  0.00    -0.259 NA
ATOM     11  C   UNL     1      -4.789   3.260  25.577  0.00  0.00    +0.055 A 
ATOM     14  C   UNL     1      -4.360   2.599  24.437  0.00  0.00    +0.024 A 
ATOM     19  C   UNL     1      -4.923   1.359  24.153  0.00  0.00    +0.003 A 
ATOM     20  C   UNL     1      -6.245   1.566  26.120  0.00  0.00    +0.111 A 
ATOM     21  C   UNL     1      -5.884   0.826  25.005  0.00  0.00    +0.020 A 
ENDBRANCH  10  11
ENDBRANCH   2  10
TORSDOF 3
ENDMDL
MODEL 10
REMARK VINA RESULT:      -0.9      1.847      7.251
REMARK  Name = 51137085
REMARK  3 active torsions:
REMARK  status: ('A' for Active; 'I' for Inactive)
REMARK    1  A    between atoms: N_2  and  C_10
REMARK    2  A    between atoms: C_5  and  C_9
REMARK    3  A    between atoms: C_10  and  C_11
REMARK                            x       y       z     vdW  Elec       q    Type
REMARK                         _______ _______ _______ _____ _____    ______ ____
ROOT
ATOM      2  N   UNL     1      -2.917  -0.006  24.587  0.00  0.00    -0.296 NA
ATOM      5  C   UNL     1      -0.911  -0.855  23.718  0.00  0.00    +0.060 C 
ATOM      6  C   UNL     1      -1.297  -1.640  24.983  0.00  0.00    +0.027 C 
ATOM      7  C   UNL     1      -1.776   0.411  23.768  0.00  0.00    +0.095 C 
ATOM      8  C   UNL     1      -2.330  -0.771  25.687  0.00  0.00    +0.085 C 
ENDROOT
BRANCH   5   9
ATOM      1  S   UNL     1       1.052   0.984  23.016  0.00  0.00    -0.072 S 
ATOM      3  N   UNL     1       1.523  -1.403  23.871  0.00  0.00    -0.244 NA
ATOM      9  C   UNL     1       0.564  -0.554  23.583  0.00  0.00    +0.084 A 
ATOM     12  C   UNL     1       2.702   0.503  23.159  0.00  0.00    +0.039 A 
ATOM     13  C   UNL     1       2.755  -0.811  23.634  0.00  0.00    +0.078 A 
ATOM     15  C   UNL     1       3.864   1.235  22.872  0.00  0.00    +0.017 A 
ATOM     16  C   UNL     1       4.018  -1.411  23.826  0.00  0.00    +0.029 A 
ATOM     17  C   UNL     1       5.102   0.618  23.071  0.00  0.00    +0.001 A 
ATOM     18  C   UNL     1       5.180  -0.687  23.542  0.00  0.00    +0.002 A 
ENDBRANCH   5   9
BRANCH   2  10
ATOM     10  C   UNL     1      -3.706   1.123  25.057  0.00  0.00    +0.139 C 
BRANCH  10  11
ATOM      4  N   UNL     1      -1.656   2.304  25.625  0.00  0.00    -0.259 NA
ATOM     11  C   UNL     1      -2.898   2.393  25.097  0.00  0.00    +0.055 A 
ATOM     14  C   UNL     1      -3.448   3.563  24.600  0.00  0.00    +0.024 A 
ATOM     19  C   UNL     1      -2.675   4.718  24.650  0.00  0.00    +0.003 A 
ATOM     20  C   UNL     1      -0.935   3.447  25.657  0.00  0.00    +0.111 A 
ATOM     21  C   UNL     1      -1.394   4.667  25.187  0.00  0.00    +0.020 A 
ENDBRANCH  10  11
ENDBRANCH   2  10
TORSDOF 3
ENDMDL
