MODEL 1
REMARK VINA RESULT:      21.4      0.000      0.000
REMARK  Name = 26743430
REMARK  10 active torsions:
REMARK  status: ('A' for Active; 'I' for Inactive)
REMARK    1  A    between atoms: N_2  and  C_15
REMARK    2  A    between atoms: N_3  and  C_8
REMARK    3  A    between atoms: N_5  and  C_27
REMARK    4  A    between atoms: C_6  and  C_9
REMARK    5  A    between atoms: C_12  and  C_16
REMARK    6  A    between atoms: C_13  and  C_18
REMARK    7  A    between atoms: C_14  and  C_17
REMARK    8  A    between atoms: C_14  and  C_24
REMARK    9  A    between atoms: C_14  and  C_25
REMARK   10  A    between atoms: C_14  and  C_26
REMARK                            x       y       z     vdW  Elec       q    Type
REMARK                         _______ _______ _______ _____ _____    ______ ____
ROOT
ATOM      6  C   UNL     1       6.712   0.382  22.706  0.00  0.00    +0.047 C 
ATOM      7  C   UNL     1       7.409   1.317  23.717  0.00  0.00    +0.039 C 
ATOM      8  C   UNL     1       8.889   0.920  23.703  0.00  0.00    +0.098 C 
ATOM     10  C   UNL     1       7.670  -0.771  22.621  0.00  0.00    -0.021 C 
ATOM     11  C   UNL     1       8.855  -0.471  23.162  0.00  0.00    -0.009 C 
ENDROOT
BRANCH   6   9
ATOM      2  N   UNL     1       3.151  -0.007  23.471  0.00  0.00    -0.236 N 
ATOM      4  N   UNL     1       3.554  -1.195  23.951  0.00  0.00    -0.171 NA
ATOM      9  C   UNL     1       5.305   0.007  23.110  0.00  0.00    +0.003 A 
ATOM     12  C   UNL     1       4.161   0.751  22.955  0.00  0.00    +0.046 A 
ATOM     13  C   UNL     1       4.871  -1.181  23.727  0.00  0.00    +0.064 A 
ATOM     16  C   UNL     1       3.952   2.092  22.373  0.00  0.00    +0.066 C 
ATOM     18  C   UNL     1       5.686  -2.343  24.126  0.00  0.00    +0.068 C 
BRANCH   2  15
ATOM     15  C   UNL     1       1.801   0.342  23.533  0.00  0.00    +0.066 A 
ATOM     17  C   UNL     1      -0.899   1.034  23.661  0.00  0.00    -0.042 A 
ATOM     19  C   UNL     1       1.422   1.575  24.062  0.00  0.00    +0.028 A 
ATOM     20  C   UNL     1       0.830  -0.545  23.066  0.00  0.00    +0.028 A 
ATOM     22  C   UNL     1       0.072   1.921  24.127  0.00  0.00    +0.006 A 
ATOM     23  C   UNL     1      -0.519  -0.200  23.131  0.00  0.00    +0.006 A 
BRANCH  17  14
ATOM     14  C   UNL     1      -2.341   1.404  23.730  0.00  0.00    -0.013 C 
ATOM     24  C   UNL     1      -2.810   2.103  22.417  0.00  0.00    +0.015 C 
ATOM     25  C   UNL     1      -2.617   2.387  24.911  0.00  0.00    +0.015 C 
ATOM     26  C   UNL     1      -3.331   0.211  23.943  0.00  0.00    +0.015 C 
ENDBRANCH  17  14
ENDBRANCH   2  15
ENDBRANCH   6   9
BRANCH   8   3
ATOM      1  O   UNL     1       9.010   3.783  23.701  0.00  0.00    -0.252 OA
ATOM      3  N   UNL     1       9.679   1.748  22.830  0.00  0.00    -0.293 N 
ATOM      5  N   UNL     1      10.542   3.679  21.925  0.00  0.00    -0.269 N 
ATOM     21  C   UNL     1       9.683   3.149  22.891  0.00  0.00    +0.304 C 
ATOM     33  H   UNL     1      10.226   1.303  22.099  0.00  0.00    +0.151 HD
ATOM     34  H   UNL     1      11.028   3.012  21.331  0.00  0.00    +0.156 HD
BRANCH   5  27
ATOM     27  C   UNL     1      10.822   5.041  21.666  0.00  0.00    +0.035 A 
ATOM     28  C   UNL     1      11.884   5.388  20.830  0.00  0.00    +0.023 A 
ATOM     29  C   UNL     1      10.036   6.038  22.245  0.00  0.00    +0.023 A 
ATOM     30  C   UNL     1      12.160   6.732  20.575  0.00  0.00    +0.002 A 
ATOM     31  C   UNL     1      10.313   7.381  21.990  0.00  0.00    +0.002 A 
ATOM     32  C   UNL     1      11.375   7.727  21.155  0.00  0.00    +0.000 A 
ENDBRANCH   5  27
ENDBRANCH   8   3
TORSDOF 5
ENDMDL
MODEL 2
REMARK VINA RESULT:      21.5      0.087      1.159
REMARK  Name = 26743430
REMARK  10 active torsions:
REMARK  status: ('A' for Active; 'I' for Inactive)
REMARK    1  A    between atoms: N_2  and  C_15
REMARK    2  A    between atoms: N_3  and  C_8
REMARK    3  A    between atoms: N_5  and  C_27
REMARK    4  A    between atoms: C_6  and  C_9
REMARK    5  A    between atoms: C_12  and  C_16
REMARK    6  A    between atoms: C_13  and  C_18
REMARK    7  A    between atoms: C_14  and  C_17
REMARK    8  A    between atoms: C_14  and  C_24
REMARK    9  A    between atoms: C_14  and  C_25
REMARK   10  A    between atoms: C_14  and  C_26
REMARK                            x       y       z     vdW  Elec       q    Type
REMARK                         _______ _______ _______ _____ _____    ______ ____
ROOT
ATOM      6  C   UNL     1       6.685   0.394  22.701  0.00  0.00    +0.047 C 
ATOM      7  C   UNL     1       7.403   1.289  23.733  0.00  0.00    +0.039 C 
ATOM      8  C   UNL     1       8.878   0.870  23.696  0.00  0.00    +0.098 C 
ATOM     10  C   UNL     1       7.624  -0.770  22.574  0.00  0.00    -0.021 C 
ATOM     11  C   UNL     1       8.818  -0.504  23.115  0.00  0.00    -0.009 C 
ENDROOT
BRANCH   6   9
ATOM      2  N   UNL     1       3.121   0.027  23.463  0.00  0.00    -0.236 N 
ATOM      4  N   UNL     1       3.518  -1.161  23.950  0.00  0.00    -0.171 NA
ATOM      9  C   UNL     1       5.275   0.028  23.105  0.00  0.00    +0.003 A 
ATOM     12  C   UNL     1       4.135   0.777  22.945  0.00  0.00    +0.046 A 
ATOM     13  C   UNL     1       4.835  -1.154  23.728  0.00  0.00    +0.064 A 
ATOM     16  C   UNL     1       3.934   2.115  22.354  0.00  0.00    +0.066 C 
ATOM     18  C   UNL     1       5.644  -2.318  24.134  0.00  0.00    +0.068 C 
BRANCH   2  15
ATOM     15  C   UNL     1       1.773   0.383  23.521  0.00  0.00    +0.066 A 
ATOM     17  C   UNL     1      -0.924   1.088  23.641  0.00  0.00    -0.042 A 
ATOM     19  C   UNL     1       1.388   1.557  24.167  0.00  0.00    +0.028 A 
ATOM     20  C   UNL     1       0.810  -0.439  22.934  0.00  0.00    +0.028 A 
ATOM     22  C   UNL     1       0.039   1.909  24.228  0.00  0.00    +0.006 A 
ATOM     23  C   UNL     1      -0.538  -0.087  22.994  0.00  0.00    +0.006 A 
BRANCH  17  14
ATOM     14  C   UNL     1      -2.365   1.465  23.706  0.00  0.00    -0.013 C 
ATOM     24  C   UNL     1      -3.260   0.227  24.022  0.00  0.00    +0.015 C 
ATOM     25  C   UNL     1      -2.854   2.065  22.350  0.00  0.00    +0.015 C 
ATOM     26  C   UNL     1      -2.732   2.533  24.789  0.00  0.00    +0.015 C 
ENDBRANCH  17  14
ENDBRANCH   2  15
ENDBRANCH   6   9
BRANCH   8   3
ATOM      1  O   UNL     1       8.963   3.735  23.707  0.00  0.00    -0.252 OA
ATOM      3  N   UNL     1       9.673   1.711  22.841  0.00  0.00    -0.293 N 
ATOM      5  N   UNL     1      10.528   3.657  21.960  0.00  0.00    -0.269 N 
ATOM     21  C   UNL     1       9.659   3.113  22.908  0.00  0.00    +0.304 C 
ATOM     33  H   UNL     1      10.240   1.276  22.118  0.00  0.00    +0.151 HD
ATOM     34  H   UNL     1      11.034   2.999  21.373  0.00  0.00    +0.156 HD
BRANCH   5  27
ATOM     27  C   UNL     1      10.796   5.024  21.712  0.00  0.00    +0.035 A 
ATOM     28  C   UNL     1       9.970   6.006  22.259  0.00  0.00    +0.023 A 
ATOM     29  C   UNL     1      11.884   5.390  20.920  0.00  0.00    +0.023 A 
ATOM     30  C   UNL     1      10.233   7.354  22.014  0.00  0.00    +0.002 A 
ATOM     31  C   UNL     1      12.147   6.738  20.676  0.00  0.00    +0.002 A 
ATOM     32  C   UNL     1      11.321   7.720  21.222  0.00  0.00    +0.000 A 
ENDBRANCH   5  27
ENDBRANCH   8   3
TORSDOF 5
ENDMDL
MODEL 3
REMARK VINA RESULT:      21.5      0.041      1.208
REMARK  Name = 26743430
REMARK  10 active torsions:
REMARK  status: ('A' for Active; 'I' for Inactive)
REMARK    1  A    between atoms: N_2  and  C_15
REMARK    2  A    between atoms: N_3  and  C_8
REMARK    3  A    between atoms: N_5  and  C_27
REMARK    4  A    between atoms: C_6  and  C_9
REMARK    5  A    between atoms: C_12  and  C_16
REMARK    6  A    between atoms: C_13  and  C_18
REMARK    7  A    between atoms: C_14  and  C_17
REMARK    8  A    between atoms: C_14  and  C_24
REMARK    9  A    between atoms: C_14  and  C_25
REMARK   10  A    between atoms: C_14  and  C_26
REMARK                            x       y       z     vdW  Elec       q    Type
REMARK                         _______ _______ _______ _____ _____    ______ ____
ROOT
ATOM      6  C   UNL     1       6.701   0.379  22.709  0.00  0.00    +0.047 C 
ATOM      7  C   UNL     1       7.397   1.316  23.719  0.00  0.00    +0.039 C 
ATOM      8  C   UNL     1       8.879   0.924  23.703  0.00  0.00    +0.098 C 
ATOM     10  C   UNL     1       7.662  -0.771  22.622  0.00  0.00    -0.021 C 
ATOM     11  C   UNL     1       8.848  -0.468  23.161  0.00  0.00    -0.009 C 
ENDROOT
BRANCH   6   9
ATOM      2  N   UNL     1       3.143  -0.021  23.480  0.00  0.00    -0.236 N 
ATOM      4  N   UNL     1       3.551  -1.208  23.961  0.00  0.00    -0.171 NA
ATOM      9  C   UNL     1       5.296  -0.001  23.116  0.00  0.00    +0.003 A 
ATOM     12  C   UNL     1       4.149   0.740  22.963  0.00  0.00    +0.046 A 
ATOM     13  C   UNL     1       4.867  -1.189  23.735  0.00  0.00    +0.064 A 
ATOM     16  C   UNL     1       3.935   2.079  22.379  0.00  0.00    +0.066 C 
ATOM     18  C   UNL     1       5.687  -2.348  24.134  0.00  0.00    +0.068 C 
BRANCH   2  15
ATOM     15  C   UNL     1       1.792   0.323  23.544  0.00  0.00    +0.066 A 
ATOM     17  C   UNL     1      -0.908   1.016  23.666  0.00  0.00    -0.042 A 
ATOM     19  C   UNL     1       0.818  -0.597  23.155  0.00  0.00    +0.028 A 
ATOM     20  C   UNL     1       1.416   1.589  23.995  0.00  0.00    +0.028 A 
ATOM     22  C   UNL     1      -0.532  -0.250  23.216  0.00  0.00    +0.006 A 
ATOM     23  C   UNL     1       0.067   1.935  24.056  0.00  0.00    +0.006 A 
BRANCH  17  14
ATOM     14  C   UNL     1      -2.351   1.386  23.731  0.00  0.00    -0.013 C 
ATOM     24  C   UNL     1      -2.805   2.123  22.433  0.00  0.00    +0.015 C 
ATOM     25  C   UNL     1      -2.637   2.337  24.936  0.00  0.00    +0.015 C 
ATOM     26  C   UNL     1      -3.345   0.189  23.901  0.00  0.00    +0.015 C 
ENDBRANCH  17  14
ENDBRANCH   2  15
ENDBRANCH   6   9
BRANCH   8   3
ATOM      1  O   UNL     1       9.020   3.786  23.724  0.00  0.00    -0.252 OA
ATOM      3  N   UNL     1       9.664   1.753  22.827  0.00  0.00    -0.293 N 
ATOM      5  N   UNL     1      10.530   3.687  21.930  0.00  0.00    -0.269 N 
ATOM     21  C   UNL     1       9.679   3.154  22.901  0.00  0.00    +0.304 C 
ATOM     33  H   UNL     1      10.200   1.311  22.086  0.00  0.00    +0.151 HD
ATOM     34  H   UNL     1      11.005   3.022  21.324  0.00  0.00    +0.156 HD
BRANCH   5  27
ATOM     27  C   UNL     1      10.816   5.049  21.680  0.00  0.00    +0.035 A 
ATOM     28  C   UNL     1      10.007   6.044  22.229  0.00  0.00    +0.023 A 
ATOM     29  C   UNL     1      11.908   5.399  20.885  0.00  0.00    +0.023 A 
ATOM     30  C   UNL     1      10.289   7.388  21.982  0.00  0.00    +0.002 A 
ATOM     31  C   UNL     1      12.189   6.743  20.638  0.00  0.00    +0.002 A 
ATOM     32  C   UNL     1      11.379   7.737  21.187  0.00  0.00    +0.000 A 
ENDBRANCH   5  27
ENDBRANCH   8   3
TORSDOF 5
ENDMDL
