MODEL 1
REMARK VINA RESULT:      -2.2      0.000      0.000
REMARK  Name = 11912763
REMARK  12 active torsions:
REMARK  status: ('A' for Active; 'I' for Inactive)
REMARK    1  A    between atoms: S_1  and  N_7
REMARK    2  A    between atoms: S_1  and  C_18
REMARK    3  A    between atoms: O_5  and  C_24
REMARK    4  A    between atoms: O_5  and  C_26
REMARK    5  A    between atoms: O_6  and  C_25
REMARK    6  A    between atoms: O_6  and  C_27
REMARK    7  A    between atoms: N_8  and  C_21
REMARK    8  A    between atoms: C_9  and  C_14
REMARK    9  A    between atoms: C_10  and  C_15
REMARK   10  A    between atoms: C_14  and  C_16
REMARK   11  A    between atoms: C_15  and  C_17
REMARK   12  A    between atoms: C_21  and  C_25
REMARK                            x       y       z     vdW  Elec       q    Type
REMARK                         _______ _______ _______ _____ _____    ______ ____
ROOT
ATOM      7  N   UNL     1      -1.950   0.056  24.423  0.00  0.00    -0.176 NA
ATOM      9  C   UNL     1      -0.159   1.715  24.889  0.00  0.00    +0.008 C 
ATOM     10  C   UNL     1       0.829   0.844  24.075  0.00  0.00    +0.003 C 
ATOM     11  C   UNL     1       0.093  -0.023  23.042  0.00  0.00    +0.021 C 
ATOM     12  C   UNL     1      -1.258   0.829  25.497  0.00  0.00    +0.113 C 
ATOM     13  C   UNL     1      -1.014  -0.846  23.693  0.00  0.00    +0.110 C 
ENDROOT
BRANCH   7   1
ATOM      1  S   UNL     1      -3.444  -0.650  24.876  0.00  0.00    +0.061 S 
ATOM      2  O   UNL     1      -3.280  -1.328  26.144  0.00  0.00    -0.153 OA
ATOM      3  O   UNL     1      -4.006  -1.334  23.732  0.00  0.00    -0.153 OA
BRANCH   1  18
ATOM     18  C   UNL     1      -4.398   0.808  25.161  0.00  0.00    +0.106 A 
ATOM     19  C   UNL     1      -5.475   0.774  26.047  0.00  0.00    +0.032 A 
ATOM     20  C   UNL     1      -4.074   1.993  24.502  0.00  0.00    +0.032 A 
ATOM     22  C   UNL     1      -6.228   1.926  26.273  0.00  0.00    +0.047 A 
ATOM     23  C   UNL     1      -4.827   3.145  24.727  0.00  0.00    +0.047 A 
ATOM     24  C   UNL     1      -5.904   3.112  25.614  0.00  0.00    +0.120 A 
BRANCH  24   5
ATOM      5  O   UNL     1      -6.640   4.236  25.833  0.00  0.00    -0.495 OA
ATOM     26  C   UNL     1      -6.084   5.473  25.392  0.00  0.00    +0.277 C 
ENDBRANCH  24   5
ENDBRANCH   1  18
ENDBRANCH   7   1
BRANCH   9  14
ATOM     14  C   UNL     1      -0.779   2.870  24.091  0.00  0.00    +0.002 C 
ATOM     16  C   UNL     1      -0.972   4.093  24.961  0.00  0.00    +0.004 C 
ENDBRANCH   9  14
BRANCH  10  15
ATOM     15  C   UNL     1       1.936   1.657  23.405  0.00  0.00    +0.099 C 
BRANCH  15  17
ATOM      4  O   UNL     1       2.646   0.013  21.778  0.00  0.00    -0.276 OA
ATOM      8  N   UNL     1       4.217   0.956  23.209  0.00  0.00    -0.313 N 
ATOM     17  C   UNL     1       2.941   0.779  22.692  0.00  0.00    +0.213 C 
ATOM     28  H   UNL     1       4.356   1.608  23.975  0.00  0.00    +0.149 HD
BRANCH   8  21
ATOM     21  C   UNL     1       5.373   0.242  22.718  0.00  0.00    +0.132 C 
BRANCH  21  25
ATOM     25  C   UNL     1       6.207  -0.317  23.857  0.00  0.00    +0.178 C 
BRANCH  25   6
ATOM      6  O   UNL     1       5.383  -1.109  24.700  0.00  0.00    -0.381 OA
ATOM     27  C   UNL     1       4.589  -2.018  23.950  0.00  0.00    +0.194 C 
ENDBRANCH  25   6
ENDBRANCH  21  25
ENDBRANCH   8  21
ENDBRANCH  15  17
ENDBRANCH  10  15
TORSDOF 9
ENDMDL
MODEL 2
REMARK VINA RESULT:      -1.8      2.318      7.270
REMARK  Name = 11912763
REMARK  12 active torsions:
REMARK  status: ('A' for Active; 'I' for Inactive)
REMARK    1  A    between atoms: S_1  and  N_7
REMARK    2  A    between atoms: S_1  and  C_18
REMARK    3  A    between atoms: O_5  and  C_24
REMARK    4  A    between atoms: O_5  and  C_26
REMARK    5  A    between atoms: O_6  and  C_25
REMARK    6  A    between atoms: O_6  and  C_27
REMARK    7  A    between atoms: N_8  and  C_21
REMARK    8  A    between atoms: C_9  and  C_14
REMARK    9  A    between atoms: C_10  and  C_15
REMARK   10  A    between atoms: C_14  and  C_16
REMARK   11  A    between atoms: C_15  and  C_17
REMARK   12  A    between atoms: C_21  and  C_25
REMARK                            x       y       z     vdW  Elec       q    Type
REMARK                         _______ _______ _______ _____ _____    ______ ____
ROOT
ATOM      7  N   UNL     1      -2.590  -0.789  24.643  0.00  0.00    -0.176 NA
ATOM      9  C   UNL     1      -4.160   0.688  23.404  0.00  0.00    +0.008 C 
ATOM     10  C   UNL     1      -5.162   0.572  24.578  0.00  0.00    +0.003 C 
ATOM     11  C   UNL     1      -4.444   0.249  25.898  0.00  0.00    +0.021 C 
ATOM     12  C   UNL     1      -3.284  -0.573  23.338  0.00  0.00    +0.113 C 
ATOM     13  C   UNL     1      -3.556  -0.984  25.762  0.00  0.00    +0.110 C 
ENDROOT
BRANCH   7   1
ATOM      1  S   UNL     1      -1.281  -1.893  24.603  0.00  0.00    +0.061 S 
ATOM      2  O   UNL     1      -1.511  -2.859  23.551  0.00  0.00    -0.153 OA
ATOM      3  O   UNL     1      -0.985  -2.317  25.955  0.00  0.00    -0.153 OA
BRANCH   1  18
ATOM     18  C   UNL     1       0.014  -0.815  24.075  0.00  0.00    +0.106 A 
ATOM     19  C   UNL     1       1.014  -1.290  23.228  0.00  0.00    +0.032 A 
ATOM     20  C   UNL     1       0.035   0.512  24.505  0.00  0.00    +0.032 A 
ATOM     22  C   UNL     1       2.036  -0.438  22.810  0.00  0.00    +0.047 A 
ATOM     23  C   UNL     1       1.057   1.363  24.087  0.00  0.00    +0.047 A 
ATOM     24  C   UNL     1       2.058   0.889  23.239  0.00  0.00    +0.120 A 
BRANCH  24   5
ATOM      5  O   UNL     1       3.057   1.720  22.832  0.00  0.00    -0.495 OA
ATOM     26  C   UNL     1       4.355   1.149  22.684  0.00  0.00    +0.277 C 
ENDBRANCH  24   5
ENDBRANCH   1  18
ENDBRANCH   7   1
BRANCH   9  14
ATOM     14  C   UNL     1      -3.287   1.948  23.449  0.00  0.00    +0.002 C 
ATOM     16  C   UNL     1      -2.521   2.129  22.155  0.00  0.00    +0.004 C 
ENDBRANCH   9  14
BRANCH  10  15
ATOM     15  C   UNL     1      -6.049   1.806  24.736  0.00  0.00    +0.099 C 
BRANCH  15  17
ATOM      4  O   UNL     1      -6.058   2.763  26.958  0.00  0.00    -0.276 OA
ATOM      8  N   UNL     1      -4.500   3.506  25.401  0.00  0.00    -0.313 N 
ATOM     17  C   UNL     1      -5.562   2.726  25.834  0.00  0.00    +0.213 C 
ATOM     28  H   UNL     1      -4.169   3.407  24.446  0.00  0.00    +0.149 HD
BRANCH   8  21
ATOM     21  C   UNL     1      -3.838   4.476  26.243  0.00  0.00    +0.132 C 
BRANCH  21  25
ATOM     25  C   UNL     1      -2.334   4.265  26.259  0.00  0.00    +0.178 C 
BRANCH  25   6
ATOM      6  O   UNL     1      -1.719   5.184  25.367  0.00  0.00    -0.381 OA
ATOM     27  C   UNL     1      -0.626   4.591  24.679  0.00  0.00    +0.194 C 
ENDBRANCH  25   6
ENDBRANCH  21  25
ENDBRANCH   8  21
ENDBRANCH  15  17
ENDBRANCH  10  15
TORSDOF 9
ENDMDL
MODEL 3
REMARK VINA RESULT:      -0.6      3.068      5.405
REMARK  Name = 11912763
REMARK  12 active torsions:
REMARK  status: ('A' for Active; 'I' for Inactive)
REMARK    1  A    between atoms: S_1  and  N_7
REMARK    2  A    between atoms: S_1  and  C_18
REMARK    3  A    between atoms: O_5  and  C_24
REMARK    4  A    between atoms: O_5  and  C_26
REMARK    5  A    between atoms: O_6  and  C_25
REMARK    6  A    between atoms: O_6  and  C_27
REMARK    7  A    between atoms: N_8  and  C_21
REMARK    8  A    between atoms: C_9  and  C_14
REMARK    9  A    between atoms: C_10  and  C_15
REMARK   10  A    between atoms: C_14  and  C_16
REMARK   11  A    between atoms: C_15  and  C_17
REMARK   12  A    between atoms: C_21  and  C_25
REMARK                            x       y       z     vdW  Elec       q    Type
REMARK                         _______ _______ _______ _____ _____    ______ ____
ROOT
ATOM      7  N   UNL     1      -4.608   2.609  25.280  0.00  0.00    -0.176 NA
ATOM      9  C   UNL     1      -3.362   4.163  23.792  0.00  0.00    +0.008 C 
ATOM     10  C   UNL     1      -3.009   5.027  25.027  0.00  0.00    +0.003 C 
ATOM     11  C   UNL     1      -3.028   4.195  26.319  0.00  0.00    +0.021 C 
ATOM     12  C   UNL     1      -4.689   3.426  24.033  0.00  0.00    +0.113 C 
ATOM     13  C   UNL     1      -4.350   3.452  26.483  0.00  0.00    +0.110 C 
ENDROOT
BRANCH   7   1
ATOM      1  S   UNL     1      -5.834   1.427  25.463  0.00  0.00    +0.061 S 
ATOM      2  O   UNL     1      -6.795   1.575  24.393  0.00  0.00    -0.153 OA
ATOM      3  O   UNL     1      -6.255   1.398  26.847  0.00  0.00    -0.153 OA
BRANCH   1  18
ATOM     18  C   UNL     1      -4.897  -0.037  25.150  0.00  0.00    +0.106 A 
ATOM     19  C   UNL     1      -5.096  -0.753  23.969  0.00  0.00    +0.032 A 
ATOM     20  C   UNL     1      -3.957  -0.476  26.082  0.00  0.00    +0.032 A 
ATOM     22  C   UNL     1      -4.355  -1.908  23.721  0.00  0.00    +0.047 A 
ATOM     23  C   UNL     1      -3.217  -1.632  25.835  0.00  0.00    +0.047 A 
ATOM     24  C   UNL     1      -3.415  -2.348  24.654  0.00  0.00    +0.120 A 
BRANCH  24   5
ATOM      5  O   UNL     1      -2.693  -3.476  24.412  0.00  0.00    -0.495 OA
ATOM     26  C   UNL     1      -1.347  -3.304  23.972  0.00  0.00    +0.277 C 
ENDBRANCH  24   5
ENDBRANCH   1  18
ENDBRANCH   7   1
BRANCH   9  14
ATOM     14  C   UNL     1      -2.263   3.173  23.387  0.00  0.00    +0.002 C 
ATOM     16  C   UNL     1      -2.844   1.982  22.654  0.00  0.00    +0.004 C 
ENDBRANCH   9  14
BRANCH  10  15
ATOM     15  C   UNL     1      -1.679   5.767  24.883  0.00  0.00    +0.099 C 
BRANCH  15  17
ATOM      4  O   UNL     1       0.364   4.928  23.897  0.00  0.00    -0.276 OA
ATOM      8  N   UNL     1      -0.556   3.828  25.726  0.00  0.00    -0.313 N 
ATOM     17  C   UNL     1      -0.507   4.819  24.756  0.00  0.00    +0.213 C 
ATOM     28  H   UNL     1      -1.327   3.819  26.387  0.00  0.00    +0.149 HD
BRANCH   8  21
ATOM     21  C   UNL     1       0.438   2.785  25.840  0.00  0.00    +0.132 C 
BRANCH  21  25
ATOM     25  C   UNL     1      -0.036   1.493  25.200  0.00  0.00    +0.178 C 
BRANCH  25   6
ATOM      6  O   UNL     1       0.634   1.306  23.961  0.00  0.00    -0.381 OA
ATOM     27  C   UNL     1       0.354   0.029  23.404  0.00  0.00    +0.194 C 
ENDBRANCH  25   6
ENDBRANCH  21  25
ENDBRANCH   8  21
ENDBRANCH  15  17
ENDBRANCH  10  15
TORSDOF 9
ENDMDL
MODEL 4
REMARK VINA RESULT:       0.4      2.199      8.318
REMARK  Name = 11912763
REMARK  12 active torsions:
REMARK  status: ('A' for Active; 'I' for Inactive)
REMARK    1  A    between atoms: S_1  and  N_7
REMARK    2  A    between atoms: S_1  and  C_18
REMARK    3  A    between atoms: O_5  and  C_24
REMARK    4  A    between atoms: O_5  and  C_26
REMARK    5  A    between atoms: O_6  and  C_25
REMARK    6  A    between atoms: O_6  and  C_27
REMARK    7  A    between atoms: N_8  and  C_21
REMARK    8  A    between atoms: C_9  and  C_14
REMARK    9  A    between atoms: C_10  and  C_15
REMARK   10  A    between atoms: C_14  and  C_16
REMARK   11  A    between atoms: C_15  and  C_17
REMARK   12  A    between atoms: C_21  and  C_25
REMARK                            x       y       z     vdW  Elec       q    Type
REMARK                         _______ _______ _______ _____ _____    ______ ____
ROOT
ATOM      7  N   UNL     1       0.007   0.791  23.486  0.00  0.00    -0.176 NA
ATOM      9  C   UNL     1      -2.028   2.067  24.127  0.00  0.00    +0.008 C 
ATOM     10  C   UNL     1      -1.200   2.802  25.208  0.00  0.00    +0.003 C 
ATOM     11  C   UNL     1       0.294   2.826  24.851  0.00  0.00    +0.021 C 
ATOM     12  C   UNL     1      -1.432   0.674  23.870  0.00  0.00    +0.113 C 
ATOM     13  C   UNL     1       0.822   1.424  24.563  0.00  0.00    +0.110 C 
ENDROOT
BRANCH   7   1
ATOM      1  S   UNL     1       0.693  -0.610  22.777  0.00  0.00    +0.061 S 
ATOM      2  O   UNL     1       0.447  -0.585  21.352  0.00  0.00    -0.153 OA
ATOM      3  O   UNL     1       0.336  -1.762  23.576  0.00  0.00    -0.153 OA
BRANCH   1  18
ATOM     18  C   UNL     1       2.408  -0.278  23.037  0.00  0.00    +0.106 A 
ATOM     19  C   UNL     1       3.220  -1.238  23.639  0.00  0.00    +0.032 A 
ATOM     20  C   UNL     1       2.949   0.944  22.637  0.00  0.00    +0.032 A 
ATOM     22  C   UNL     1       4.575  -0.976  23.843  0.00  0.00    +0.047 A 
ATOM     23  C   UNL     1       4.303   1.206  22.842  0.00  0.00    +0.047 A 
ATOM     24  C   UNL     1       5.117   0.246  23.444  0.00  0.00    +0.120 A 
BRANCH  24   5
ATOM      5  O   UNL     1       6.439   0.502  23.645  0.00  0.00    -0.495 OA
ATOM     26  C   UNL     1       7.370  -0.431  23.102  0.00  0.00    +0.277 C 
ENDBRANCH  24   5
ENDBRANCH   1  18
ENDBRANCH   7   1
BRANCH   9  14
ATOM     14  C   UNL     1      -2.168   2.843  22.811  0.00  0.00    +0.002 C 
ATOM     16  C   UNL     1      -2.814   1.990  21.740  0.00  0.00    +0.004 C 
ENDBRANCH   9  14
BRANCH  10  15
ATOM     15  C   UNL     1      -1.707   4.214  25.497  0.00  0.00    +0.099 C 
BRANCH  15  17
ATOM      4  O   UNL     1      -3.273   4.488  27.321  0.00  0.00    -0.276 OA
ATOM      8  N   UNL     1      -4.059   3.855  25.227  0.00  0.00    -0.313 N 
ATOM     17  C   UNL     1      -3.077   4.211  26.141  0.00  0.00    +0.213 C 
ATOM     28  H   UNL     1      -3.792   3.633  24.273  0.00  0.00    +0.149 HD
BRANCH   8  21
ATOM     21  C   UNL     1      -5.461   3.769  25.568  0.00  0.00    +0.132 C 
BRANCH  21  25
ATOM     25  C   UNL     1      -5.882   2.334  25.832  0.00  0.00    +0.178 C 
BRANCH  25   6
ATOM      6  O   UNL     1      -5.559   1.532  24.704  0.00  0.00    -0.381 OA
ATOM     27  C   UNL     1      -4.813   0.382  25.077  0.00  0.00    +0.194 C 
ENDBRANCH  25   6
ENDBRANCH  21  25
ENDBRANCH   8  21
ENDBRANCH  15  17
ENDBRANCH  10  15
TORSDOF 9
ENDMDL
MODEL 5
REMARK VINA RESULT:       0.8     14.490     17.364
REMARK  Name = 11912763
REMARK  12 active torsions:
REMARK  status: ('A' for Active; 'I' for Inactive)
REMARK    1  A    between atoms: S_1  and  N_7
REMARK    2  A    between atoms: S_1  and  C_18
REMARK    3  A    between atoms: O_5  and  C_24
REMARK    4  A    between atoms: O_5  and  C_26
REMARK    5  A    between atoms: O_6  and  C_25
REMARK    6  A    between atoms: O_6  and  C_27
REMARK    7  A    between atoms: N_8  and  C_21
REMARK    8  A    between atoms: C_9  and  C_14
REMARK    9  A    between atoms: C_10  and  C_15
REMARK   10  A    between atoms: C_14  and  C_16
REMARK   11  A    between atoms: C_15  and  C_17
REMARK   12  A    between atoms: C_21  and  C_25
REMARK                            x       y       z     vdW  Elec       q    Type
REMARK                         _______ _______ _______ _____ _____    ______ ____
ROOT
ATOM      7  N   UNL     1      -2.737  -9.945  13.530  0.00  0.00    -0.176 NA
ATOM      9  C   UNL     1      -2.818  -9.583  15.988  0.00  0.00    +0.008 C 
ATOM     10  C   UNL     1      -4.334  -9.894  15.961  0.00  0.00    +0.003 C 
ATOM     11  C   UNL     1      -4.704 -10.781  14.762  0.00  0.00    +0.021 C 
ATOM     12  C   UNL     1      -2.380  -9.004  14.633  0.00  0.00    +0.113 C 
ATOM     13  C   UNL     1      -4.207 -10.181  13.451  0.00  0.00    +0.110 C 
ENDROOT
BRANCH   7   1
ATOM      1  S   UNL     1      -1.962  -9.646  12.032  0.00  0.00    +0.061 S 
ATOM      2  O   UNL     1      -1.131 -10.781  11.695  0.00  0.00    -0.153 OA
ATOM      3  O   UNL     1      -1.422  -8.303  12.043  0.00  0.00    -0.153 OA
BRANCH   1  18
ATOM     18  C   UNL     1      -3.360  -9.661  10.954  0.00  0.00    +0.106 A 
ATOM     19  C   UNL     1      -3.495 -10.670  10.001  0.00  0.00    +0.032 A 
ATOM     20  C   UNL     1      -4.331  -8.664  11.057  0.00  0.00    +0.032 A 
ATOM     22  C   UNL     1      -4.601 -10.683   9.151  0.00  0.00    +0.047 A 
ATOM     23  C   UNL     1      -5.436  -8.677  10.206  0.00  0.00    +0.047 A 
ATOM     24  C   UNL     1      -5.572  -9.686   9.253  0.00  0.00    +0.120 A 
BRANCH  24   5
ATOM      5  O   UNL     1      -6.650  -9.698   8.422  0.00  0.00    -0.495 OA
ATOM     26  C   UNL     1      -7.923  -9.949   9.013  0.00  0.00    +0.277 C 
ENDBRANCH  24   5
ENDBRANCH   1  18
ENDBRANCH   7   1
BRANCH   9  14
ATOM     14  C   UNL     1      -1.940 -10.781  16.370  0.00  0.00    +0.002 C 
ATOM     16  C   UNL     1      -0.478 -10.498  16.092  0.00  0.00    +0.004 C 
ENDBRANCH   9  14
BRANCH  10  15
ATOM     15  C   UNL     1      -4.844 -10.510  17.264  0.00  0.00    +0.099 C 
BRANCH  15  17
ATOM      4  O   UNL     1      -6.657 -10.030  18.792  0.00  0.00    -0.276 OA
ATOM      8  N   UNL     1      -6.875  -9.464  16.549  0.00  0.00    -0.313 N 
ATOM     17  C   UNL     1      -6.211  -9.987  17.649  0.00  0.00    +0.213 C 
ATOM     28  H   UNL     1      -6.423  -9.485  15.639  0.00  0.00    +0.149 HD
BRANCH   8  21
ATOM     21  C   UNL     1      -8.202  -8.896  16.624  0.00  0.00    +0.132 C 
BRANCH  21  25
ATOM     25  C   UNL     1      -9.261  -9.896  16.198  0.00  0.00    +0.178 C 
BRANCH  25   6
ATOM      6  O   UNL     1     -10.058  -9.330  15.167  0.00  0.00    -0.381 OA
ATOM     27  C   UNL     1     -10.233  -7.932  15.352  0.00  0.00    +0.194 C 
ENDBRANCH  25   6
ENDBRANCH  21  25
ENDBRANCH   8  21
ENDBRANCH  15  17
ENDBRANCH  10  15
TORSDOF 9
ENDMDL
MODEL 6
REMARK VINA RESULT:       0.9     15.119     17.723
REMARK  Name = 11912763
REMARK  12 active torsions:
REMARK  status: ('A' for Active; 'I' for Inactive)
REMARK    1  A    between atoms: S_1  and  N_7
REMARK    2  A    between atoms: S_1  and  C_18
REMARK    3  A    between atoms: O_5  and  C_24
REMARK    4  A    between atoms: O_5  and  C_26
REMARK    5  A    between atoms: O_6  and  C_25
REMARK    6  A    between atoms: O_6  and  C_27
REMARK    7  A    between atoms: N_8  and  C_21
REMARK    8  A    between atoms: C_9  and  C_14
REMARK    9  A    between atoms: C_10  and  C_15
REMARK   10  A    between atoms: C_14  and  C_16
REMARK   11  A    between atoms: C_15  and  C_17
REMARK   12  A    between atoms: C_21  and  C_25
REMARK                            x       y       z     vdW  Elec       q    Type
REMARK                         _______ _______ _______ _____ _____    ______ ____
ROOT
ATOM      7  N   UNL     1      -3.369  -9.796  12.369  0.00  0.00    -0.176 NA
ATOM      9  C   UNL     1      -5.040 -10.620  14.014  0.00  0.00    +0.008 C 
ATOM     10  C   UNL     1      -3.905 -10.779  15.055  0.00  0.00    +0.003 C 
ATOM     11  C   UNL     1      -2.731  -9.835  14.752  0.00  0.00    +0.021 C 
ATOM     12  C   UNL     1      -4.473 -10.777  12.595  0.00  0.00    +0.113 C 
ATOM     13  C   UNL     1      -2.238 -10.002  13.318  0.00  0.00    +0.110 C 
ENDROOT
BRANCH   7   1
ATOM      1  S   UNL     1      -2.919  -9.563  10.732  0.00  0.00    +0.061 S 
ATOM      2  O   UNL     1      -2.318 -10.779  10.230  0.00  0.00    -0.153 OA
ATOM      3  O   UNL     1      -2.243  -8.290  10.609  0.00  0.00    -0.153 OA
BRANCH   1  18
ATOM     18  C   UNL     1      -4.516  -9.405   9.995  0.00  0.00    +0.106 A 
ATOM     19  C   UNL     1      -5.307 -10.536   9.795  0.00  0.00    +0.032 A 
ATOM     20  C   UNL     1      -4.987  -8.148   9.614  0.00  0.00    +0.032 A 
ATOM     22  C   UNL     1      -6.569 -10.411   9.215  0.00  0.00    +0.047 A 
ATOM     23  C   UNL     1      -6.248  -8.023   9.033  0.00  0.00    +0.047 A 
ATOM     24  C   UNL     1      -7.040  -9.154   8.833  0.00  0.00    +0.120 A 
BRANCH  24   5
ATOM      5  O   UNL     1      -8.271  -9.032   8.265  0.00  0.00    -0.495 OA
ATOM     26  C   UNL     1      -8.837  -7.725   8.216  0.00  0.00    +0.277 C 
ENDBRANCH  24   5
ENDBRANCH   1  18
ENDBRANCH   7   1
BRANCH   9  14
ATOM     14  C   UNL     1      -5.825  -9.308  14.139  0.00  0.00    +0.002 C 
ATOM     16  C   UNL     1      -6.762  -9.118  12.965  0.00  0.00    +0.004 C 
ENDBRANCH   9  14
BRANCH  10  15
ATOM     15  C   UNL     1      -4.382 -10.600  16.496  0.00  0.00    +0.099 C 
BRANCH  15  17
ATOM      4  O   UNL     1      -6.640 -10.774  15.648  0.00  0.00    -0.276 OA
ATOM      8  N   UNL     1      -6.295 -10.535  17.934  0.00  0.00    -0.313 N 
ATOM     17  C   UNL     1      -5.890 -10.649  16.612  0.00  0.00    +0.213 C 
ATOM     28  H   UNL     1      -5.594 -10.424  18.660  0.00  0.00    +0.149 HD
BRANCH   8  21
ATOM     21  C   UNL     1      -7.682 -10.549  18.338  0.00  0.00    +0.132 C 
BRANCH  21  25
ATOM     25  C   UNL     1      -8.361  -9.222  18.046  0.00  0.00    +0.178 C 
BRANCH  25   6
ATOM      6  O   UNL     1      -9.764  -9.362  18.220  0.00  0.00    -0.381 OA
ATOM     27  C   UNL     1     -10.474  -9.001  17.043  0.00  0.00    +0.194 C 
ENDBRANCH  25   6
ENDBRANCH  21  25
ENDBRANCH   8  21
ENDBRANCH  15  17
ENDBRANCH  10  15
TORSDOF 9
ENDMDL
MODEL 7
REMARK VINA RESULT:       1.0      2.089      3.228
REMARK  Name = 11912763
REMARK  12 active torsions:
REMARK  status: ('A' for Active; 'I' for Inactive)
REMARK    1  A    between atoms: S_1  and  N_7
REMARK    2  A    between atoms: S_1  and  C_18
REMARK    3  A    between atoms: O_5  and  C_24
REMARK    4  A    between atoms: O_5  and  C_26
REMARK    5  A    between atoms: O_6  and  C_25
REMARK    6  A    between atoms: O_6  and  C_27
REMARK    7  A    between atoms: N_8  and  C_21
REMARK    8  A    between atoms: C_9  and  C_14
REMARK    9  A    between atoms: C_10  and  C_15
REMARK   10  A    between atoms: C_14  and  C_16
REMARK   11  A    between atoms: C_15  and  C_17
REMARK   12  A    between atoms: C_21  and  C_25
REMARK                            x       y       z     vdW  Elec       q    Type
REMARK                         _______ _______ _______ _____ _____    ______ ____
ROOT
ATOM      7  N   UNL     1      -1.749   2.900  24.273  0.00  0.00    -0.176 NA
ATOM      9  C   UNL     1      -1.360   0.605  23.402  0.00  0.00    +0.008 C 
ATOM     10  C   UNL     1       0.122   0.974  23.153  0.00  0.00    +0.003 C 
ATOM     11  C   UNL     1       0.581   2.111  24.079  0.00  0.00    +0.021 C 
ATOM     12  C   UNL     1      -2.235   1.865  23.312  0.00  0.00    +0.113 C 
ATOM     13  C   UNL     1      -0.348   3.318  23.983  0.00  0.00    +0.110 C 
ENDROOT
BRANCH   7   1
ATOM      1  S   UNL     1      -2.844   4.179  24.588  0.00  0.00    +0.061 S 
ATOM      2  O   UNL     1      -3.282   4.746  23.331  0.00  0.00    -0.153 OA
ATOM      3  O   UNL     1      -2.299   5.016  25.635  0.00  0.00    -0.153 OA
BRANCH   1  18
ATOM     18  C   UNL     1      -4.194   3.267  25.269  0.00  0.00    +0.106 A 
ATOM     19  C   UNL     1      -4.296   1.895  25.038  0.00  0.00    +0.032 A 
ATOM     20  C   UNL     1      -5.157   3.918  26.040  0.00  0.00    +0.032 A 
ATOM     22  C   UNL     1      -5.361   1.175  25.577  0.00  0.00    +0.047 A 
ATOM     23  C   UNL     1      -6.223   3.198  26.578  0.00  0.00    +0.047 A 
ATOM     24  C   UNL     1      -6.325   1.825  26.348  0.00  0.00    +0.120 A 
BRANCH  24   5
ATOM      5  O   UNL     1      -7.365   1.122  26.872  0.00  0.00    -0.495 OA
ATOM     26  C   UNL     1      -7.246   0.701  28.230  0.00  0.00    +0.277 C 
ENDBRANCH  24   5
ENDBRANCH   1  18
ENDBRANCH   7   1
BRANCH   9  14
ATOM     14  C   UNL     1      -1.608  -0.129  24.726  0.00  0.00    +0.002 C 
ATOM     16  C   UNL     1      -2.502  -1.335  24.523  0.00  0.00    +0.004 C 
ENDBRANCH   9  14
BRANCH  10  15
ATOM     15  C   UNL     1       1.066  -0.223  23.261  0.00  0.00    +0.099 C 
BRANCH  15  17
ATOM      4  O   UNL     1       2.404  -0.245  21.245  0.00  0.00    -0.276 OA
ATOM      8  N   UNL     1       3.375   0.413  23.252  0.00  0.00    -0.313 N 
ATOM     17  C   UNL     1       2.331  -0.030  22.452  0.00  0.00    +0.213 C 
ATOM     28  H   UNL     1       3.215   0.550  24.246  0.00  0.00    +0.149 HD
BRANCH   8  21
ATOM     21  C   UNL     1       4.701   0.679  22.743  0.00  0.00    +0.132 C 
BRANCH  21  25
ATOM     25  C   UNL     1       5.757   0.497  23.819  0.00  0.00    +0.178 C 
BRANCH  25   6
ATOM      6  O   UNL     1       5.409  -0.609  24.641  0.00  0.00    -0.381 OA
ATOM     27  C   UNL     1       5.100  -1.758  23.864  0.00  0.00    +0.194 C 
ENDBRANCH  25   6
ENDBRANCH  21  25
ENDBRANCH   8  21
ENDBRANCH  15  17
ENDBRANCH  10  15
TORSDOF 9
ENDMDL
MODEL 8
REMARK VINA RESULT:       1.0      2.540      4.245
REMARK  Name = 11912763
REMARK  12 active torsions:
REMARK  status: ('A' for Active; 'I' for Inactive)
REMARK    1  A    between atoms: S_1  and  N_7
REMARK    2  A    between atoms: S_1  and  C_18
REMARK    3  A    between atoms: O_5  and  C_24
REMARK    4  A    between atoms: O_5  and  C_26
REMARK    5  A    between atoms: O_6  and  C_25
REMARK    6  A    between atoms: O_6  and  C_27
REMARK    7  A    between atoms: N_8  and  C_21
REMARK    8  A    between atoms: C_9  and  C_14
REMARK    9  A    between atoms: C_10  and  C_15
REMARK   10  A    between atoms: C_14  and  C_16
REMARK   11  A    between atoms: C_15  and  C_17
REMARK   12  A    between atoms: C_21  and  C_25
REMARK                            x       y       z     vdW  Elec       q    Type
REMARK                         _______ _______ _______ _____ _____    ______ ____
ROOT
ATOM      7  N   UNL     1      -4.630   0.326  25.034  0.00  0.00    -0.176 NA
ATOM      9  C   UNL     1      -2.718  -1.081  25.772  0.00  0.00    +0.008 C 
ATOM     10  C   UNL     1      -3.259  -2.237  24.896  0.00  0.00    +0.003 C 
ATOM     11  C   UNL     1      -4.115  -1.707  23.735  0.00  0.00    +0.021 C 
ATOM     12  C   UNL     1      -3.878  -0.180  26.222  0.00  0.00    +0.113 C 
ATOM     13  C   UNL     1      -5.222  -0.784  24.235  0.00  0.00    +0.110 C 
ENDROOT
BRANCH   7   1
ATOM      1  S   UNL     1      -5.675   1.649  25.337  0.00  0.00    +0.061 S 
ATOM      2  O   UNL     1      -6.170   1.558  26.694  0.00  0.00    -0.153 OA
ATOM      3  O   UNL     1      -6.582   1.796  24.220  0.00  0.00    -0.153 OA
BRANCH   1  18
ATOM     18  C   UNL     1      -4.513   2.978  25.273  0.00  0.00    +0.106 A 
ATOM     19  C   UNL     1      -4.116   3.614  26.449  0.00  0.00    +0.032 A 
ATOM     20  C   UNL     1      -3.993   3.390  24.047  0.00  0.00    +0.032 A 
ATOM     22  C   UNL     1      -3.198   4.662  26.399  0.00  0.00    +0.047 A 
ATOM     23  C   UNL     1      -3.075   4.439  23.996  0.00  0.00    +0.047 A 
ATOM     24  C   UNL     1      -2.677   5.075  25.172  0.00  0.00    +0.120 A 
BRANCH  24   5
ATOM      5  O   UNL     1      -1.782   6.100  25.123  0.00  0.00    -0.495 OA
ATOM     26  C   UNL     1      -0.469   5.794  24.657  0.00  0.00    +0.277 C 
ENDBRANCH  24   5
ENDBRANCH   1  18
ENDBRANCH   7   1
BRANCH   9  14
ATOM     14  C   UNL     1      -1.618  -0.248  25.100  0.00  0.00    +0.002 C 
ATOM     16  C   UNL     1      -1.411   1.066  25.823  0.00  0.00    +0.004 C 
ENDBRANCH   9  14
BRANCH  10  15
ATOM     15  C   UNL     1      -2.159  -3.162  24.375  0.00  0.00    +0.099 C 
BRANCH  15  17
ATOM      4  O   UNL     1      -0.083  -2.959  25.600  0.00  0.00    -0.276 OA
ATOM      8  N   UNL     1      -0.406  -1.688  23.681  0.00  0.00    -0.313 N 
ATOM     17  C   UNL     1      -0.774  -2.615  24.645  0.00  0.00    +0.213 C 
ATOM     28  H   UNL     1      -1.056  -1.463  22.934  0.00  0.00    +0.149 HD
BRANCH   8  21
ATOM     21  C   UNL     1       0.867  -1.003  23.690  0.00  0.00    +0.132 C 
BRANCH  21  25
ATOM     25  C   UNL     1       0.937   0.057  22.605  0.00  0.00    +0.178 C 
BRANCH  25   6
ATOM      6  O   UNL     1       2.181  -0.045  21.925  0.00  0.00    -0.381 OA
ATOM     27  C   UNL     1       3.240   0.512  22.690  0.00  0.00    +0.194 C 
ENDBRANCH  25   6
ENDBRANCH  21  25
ENDBRANCH   8  21
ENDBRANCH  15  17
ENDBRANCH  10  15
TORSDOF 9
ENDMDL
MODEL 9
REMARK VINA RESULT:       1.0      0.777      2.059
REMARK  Name = 11912763
REMARK  12 active torsions:
REMARK  status: ('A' for Active; 'I' for Inactive)
REMARK    1  A    between atoms: S_1  and  N_7
REMARK    2  A    between atoms: S_1  and  C_18
REMARK    3  A    between atoms: O_5  and  C_24
REMARK    4  A    between atoms: O_5  and  C_26
REMARK    5  A    between atoms: O_6  and  C_25
REMARK    6  A    between atoms: O_6  and  C_27
REMARK    7  A    between atoms: N_8  and  C_21
REMARK    8  A    between atoms: C_9  and  C_14
REMARK    9  A    between atoms: C_10  and  C_15
REMARK   10  A    between atoms: C_14  and  C_16
REMARK   11  A    between atoms: C_15  and  C_17
REMARK   12  A    between atoms: C_21  and  C_25
REMARK                            x       y       z     vdW  Elec       q    Type
REMARK                         _______ _______ _______ _____ _____    ______ ____
ROOT
ATOM      7  N   UNL     1      -2.271  -0.091  24.539  0.00  0.00    -0.176 NA
ATOM      9  C   UNL     1       0.016  -0.503  23.658  0.00  0.00    +0.008 C 
ATOM     10  C   UNL     1       0.256   1.026  23.628  0.00  0.00    +0.003 C 
ATOM     11  C   UNL     1      -0.636   1.754  24.645  0.00  0.00    +0.021 C 
ATOM     12  C   UNL     1      -1.482  -0.800  23.488  0.00  0.00    +0.113 C 
ATOM     13  C   UNL     1      -2.106   1.388  24.459  0.00  0.00    +0.110 C 
ENDROOT
BRANCH   7   1
ATOM      1  S   UNL     1      -3.882  -0.638  24.740  0.00  0.00    +0.061 S 
ATOM      2  O   UNL     1      -3.954  -1.469  25.922  0.00  0.00    -0.153 OA
ATOM      3  O   UNL     1      -4.379  -1.109  23.465  0.00  0.00    -0.153 OA
BRANCH   1  18
ATOM     18  C   UNL     1      -4.683   0.892  25.105  0.00  0.00    +0.106 A 
ATOM     19  C   UNL     1      -4.294   2.057  24.444  0.00  0.00    +0.032 A 
ATOM     20  C   UNL     1      -5.706   0.935  26.052  0.00  0.00    +0.032 A 
ATOM     22  C   UNL     1      -4.928   3.266  24.731  0.00  0.00    +0.047 A 
ATOM     23  C   UNL     1      -6.339   2.144  26.340  0.00  0.00    +0.047 A 
ATOM     24  C   UNL     1      -5.951   3.310  25.679  0.00  0.00    +0.120 A 
BRANCH  24   5
ATOM      5  O   UNL     1      -6.568   4.490  25.961  0.00  0.00    -0.495 OA
ATOM     26  C   UNL     1      -6.258   5.601  25.122  0.00  0.00    +0.277 C 
ENDBRANCH  24   5
ENDBRANCH   1  18
ENDBRANCH   7   1
BRANCH   9  14
ATOM     14  C   UNL     1       0.564  -1.198  24.911  0.00  0.00    +0.002 C 
ATOM     16  C   UNL     1      -0.306  -2.371  25.308  0.00  0.00    +0.004 C 
ENDBRANCH   9  14
BRANCH  10  15
ATOM     15  C   UNL     1       1.723   1.409  23.828  0.00  0.00    +0.099 C 
BRANCH  15  17
ATOM      4  O   UNL     1       2.239  -0.017  21.944  0.00  0.00    -0.276 OA
ATOM      8  N   UNL     1       3.973   0.903  23.188  0.00  0.00    -0.313 N 
ATOM     17  C   UNL     1       2.641   0.679  22.872  0.00  0.00    +0.213 C 
ATOM     28  H   UNL     1       4.203   1.489  23.985  0.00  0.00    +0.149 HD
BRANCH   8  21
ATOM     21  C   UNL     1       5.069   0.327  22.442  0.00  0.00    +0.132 C 
BRANCH  21  25
ATOM     25  C   UNL     1       6.113  -0.278  23.363  0.00  0.00    +0.178 C 
BRANCH  25   6
ATOM      6  O   UNL     1       5.465  -0.943  24.438  0.00  0.00    -0.381 OA
ATOM     27  C   UNL     1       4.656  -2.017  23.977  0.00  0.00    +0.194 C 
ENDBRANCH  25   6
ENDBRANCH  21  25
ENDBRANCH   8  21
ENDBRANCH  15  17
ENDBRANCH  10  15
TORSDOF 9
ENDMDL
MODEL 10
REMARK VINA RESULT:       1.2      2.955      5.485
REMARK  Name = 11912763
REMARK  12 active torsions:
REMARK  status: ('A' for Active; 'I' for Inactive)
REMARK    1  A    between atoms: S_1  and  N_7
REMARK    2  A    between atoms: S_1  and  C_18
REMARK    3  A    between atoms: O_5  and  C_24
REMARK    4  A    between atoms: O_5  and  C_26
REMARK    5  A    between atoms: O_6  and  C_25
REMARK    6  A    between atoms: O_6  and  C_27
REMARK    7  A    between atoms: N_8  and  C_21
REMARK    8  A    between atoms: C_9  and  C_14
REMARK    9  A    between atoms: C_10  and  C_15
REMARK   10  A    between atoms: C_14  and  C_16
REMARK   11  A    between atoms: C_15  and  C_17
REMARK   12  A    between atoms: C_21  and  C_25
REMARK                            x       y       z     vdW  Elec       q    Type
REMARK                         _______ _______ _______ _____ _____    ______ ____
ROOT
ATOM      7  N   UNL     1      -0.348   1.755  24.541  0.00  0.00    -0.176 NA
ATOM      9  C   UNL     1       0.880  -0.294  23.851  0.00  0.00    +0.008 C 
ATOM     10  C   UNL     1       0.219  -1.058  25.024  0.00  0.00    +0.003 C 
ATOM     11  C   UNL     1      -1.115  -0.414  25.433  0.00  0.00    +0.021 C 
ATOM     12  C   UNL     1       0.996   1.199  24.200  0.00  0.00    +0.113 C 
ATOM     13  C   UNL     1      -0.949   1.074  25.724  0.00  0.00    +0.110 C 
ENDROOT
BRANCH   7   1
ATOM      1  S   UNL     1      -0.452   3.465  24.549  0.00  0.00    +0.061 S 
ATOM      2  O   UNL     1      -0.215   3.957  23.209  0.00  0.00    -0.153 OA
ATOM      3  O   UNL     1       0.297   3.976  25.676  0.00  0.00    -0.153 OA
BRANCH   1  18
ATOM     18  C   UNL     1      -2.171   3.666  24.902  0.00  0.00    +0.106 A 
ATOM     19  C   UNL     1      -3.124   3.333  23.940  0.00  0.00    +0.032 A 
ATOM     20  C   UNL     1      -2.574   4.155  26.144  0.00  0.00    +0.032 A 
ATOM     22  C   UNL     1      -4.481   3.490  24.219  0.00  0.00    +0.047 A 
ATOM     23  C   UNL     1      -3.931   4.313  26.423  0.00  0.00    +0.047 A 
ATOM     24  C   UNL     1      -4.886   3.980  25.462  0.00  0.00    +0.120 A 
BRANCH  24   5
ATOM      5  O   UNL     1      -6.211   4.135  25.733  0.00  0.00    -0.495 OA
ATOM     26  C   UNL     1      -6.957   2.954  26.020  0.00  0.00    +0.277 C 
ENDBRANCH  24   5
ENDBRANCH   1  18
ENDBRANCH   7   1
BRANCH   9  14
ATOM     14  C   UNL     1       0.168  -0.478  22.504  0.00  0.00    +0.002 C 
ATOM     16  C   UNL     1       1.166  -0.587  21.370  0.00  0.00    +0.004 C 
ENDBRANCH   9  14
BRANCH  10  15
ATOM     15  C   UNL     1       0.033  -2.549  24.741  0.00  0.00    +0.099 C 
BRANCH  15  17
ATOM      4  O   UNL     1      -1.602  -3.454  23.204  0.00  0.00    -0.276 OA
ATOM      8  N   UNL     1      -2.321  -2.421  25.158  0.00  0.00    -0.313 N 
ATOM     17  C   UNL     1      -1.365  -2.870  24.259  0.00  0.00    +0.213 C 
ATOM     28  H   UNL     1      -2.023  -1.938  26.000  0.00  0.00    +0.149 HD
BRANCH   8  21
ATOM     21  C   UNL     1      -3.741  -2.591  24.951  0.00  0.00    +0.132 C 
BRANCH  21  25
ATOM     25  C   UNL     1      -4.244  -1.733  23.805  0.00  0.00    +0.178 C 
BRANCH  25   6
ATOM      6  O   UNL     1      -3.910  -0.374  24.050  0.00  0.00    -0.381 OA
ATOM     27  C   UNL     1      -4.653   0.157  25.140  0.00  0.00    +0.194 C 
ENDBRANCH  25   6
ENDBRANCH  21  25
ENDBRANCH   8  21
ENDBRANCH  15  17
ENDBRANCH  10  15
TORSDOF 9
ENDMDL
