MODEL 1
REMARK VINA RESULT:      -0.8      0.000      0.000
REMARK  Name = 26742669
REMARK  7 active torsions:
REMARK  status: ('A' for Active; 'I' for Inactive)
REMARK    1  A    between atoms: O_4  and  C_30
REMARK    2  A    between atoms: O_4  and  C_31
REMARK    3  A    between atoms: N_6  and  C_17
REMARK    4  A    between atoms: N_7  and  C_19
REMARK    5  A    between atoms: C_17  and  C_19
REMARK    6  A    between atoms: C_18  and  C_20
REMARK    7  A    between atoms: C_20  and  C_23
REMARK                            x       y       z     vdW  Elec       q    Type
REMARK                         _______ _______ _______ _____ _____    ______ ____
ROOT
ATOM      1  O   UNL     1      -5.782   2.547  26.877  0.00  0.00    -0.276 OA
ATOM      2  O   UNL     1       0.095  -0.883  25.229  0.00  0.00    -0.275 OA
ATOM      5  N   UNL     1      -2.030  -0.843  24.289  0.00  0.00    -0.301 N 
ATOM      6  N   UNL     1      -4.720   3.175  24.912  0.00  0.00    -0.300 N 
ATOM      8  C   UNL     1      -4.010   0.381  23.411  0.00  0.00    +0.011 C 
ATOM      9  C   UNL     1      -4.750   0.044  24.727  0.00  0.00    +0.004 C 
ATOM     10  C   UNL     1      -3.766  -0.154  25.896  0.00  0.00    +0.023 C 
ATOM     11  C   UNL     1      -2.928  -0.684  23.139  0.00  0.00    +0.111 C 
ATOM     12  C   UNL     1      -3.388   1.789  23.350  0.00  0.00    +0.024 C 
ATOM     13  C   UNL     1      -5.895   1.006  25.066  0.00  0.00    +0.100 C 
ATOM     14  C   UNL     1      -2.698  -1.187  25.545  0.00  0.00    +0.108 C 
ATOM     15  C   UNL     1      -4.410   2.910  23.510  0.00  0.00    +0.108 C 
ATOM     16  C   UNL     1      -5.466   2.313  25.707  0.00  0.00    +0.216 C 
ATOM     18  C   UNL     1      -0.641  -0.720  24.253  0.00  0.00    +0.220 C 
ENDROOT
BRANCH   6  17
ATOM     17  C   UNL     1      -4.195   4.413  25.473  0.00  0.00    +0.123 C 
BRANCH  17  19
ATOM     19  C   UNL     1      -3.236   4.135  26.621  0.00  0.00    +0.103 C 
BRANCH  19   7
ATOM      3  O   UNL     1       0.078   3.334  24.173  0.00  0.00    -0.377 OA
ATOM      7  N   UNL     1      -1.863   4.052  26.127  0.00  0.00    -0.297 NA
ATOM     21  C   UNL     1      -1.709   4.815  24.881  0.00  0.00    +0.112 C 
ATOM     22  C   UNL     1      -1.470   2.653  25.914  0.00  0.00    +0.112 C 
ATOM     24  C   UNL     1      -0.271   4.703  24.379  0.00  0.00    +0.175 C 
ATOM     25  C   UNL     1      -0.037   2.593  25.389  0.00  0.00    +0.175 C 
ENDBRANCH  19   7
ENDBRANCH  17  19
ENDBRANCH   6  17
BRANCH  18  20
ATOM     20  C   UNL     1      -0.030  -0.360  22.923  0.00  0.00    +0.131 C 
BRANCH  20  23
ATOM     23  C   UNL     1       1.453  -0.192  23.050  0.00  0.00    -0.038 A 
ATOM     26  C   UNL     1       2.252  -1.285  23.385  0.00  0.00    +0.007 A 
ATOM     27  C   UNL     1       2.034   1.056  22.831  0.00  0.00    +0.007 A 
ATOM     28  C   UNL     1       3.633  -1.129  23.501  0.00  0.00    +0.046 A 
ATOM     29  C   UNL     1       3.416   1.213  22.947  0.00  0.00    +0.046 A 
ATOM     30  C   UNL     1       4.215   0.120  23.282  0.00  0.00    +0.120 A 
BRANCH  30   4
ATOM      4  O   UNL     1       5.563   0.271  23.393  0.00  0.00    -0.495 OA
ATOM     31  C   UNL     1       6.247  -0.629  24.263  0.00  0.00    +0.277 C 
ENDBRANCH  30   4
ENDBRANCH  20  23
ENDBRANCH  18  20
TORSDOF 6
ENDMDL
MODEL 2
REMARK VINA RESULT:       0.3      1.793      6.377
REMARK  Name = 26742669
REMARK  7 active torsions:
REMARK  status: ('A' for Active; 'I' for Inactive)
REMARK    1  A    between atoms: O_4  and  C_30
REMARK    2  A    between atoms: O_4  and  C_31
REMARK    3  A    between atoms: N_6  and  C_17
REMARK    4  A    between atoms: N_7  and  C_19
REMARK    5  A    between atoms: C_17  and  C_19
REMARK    6  A    between atoms: C_18  and  C_20
REMARK    7  A    between atoms: C_20  and  C_23
REMARK                            x       y       z     vdW  Elec       q    Type
REMARK                         _______ _______ _______ _____ _____    ______ ____
ROOT
ATOM      1  O   UNL     1      -0.213  -1.989  22.699  0.00  0.00    -0.276 OA
ATOM      2  O   UNL     1      -6.301   1.303  23.757  0.00  0.00    -0.275 OA
ATOM      5  N   UNL     1      -4.939   0.015  25.131  0.00  0.00    -0.301 N 
ATOM      6  N   UNL     1      -0.175  -0.146  24.108  0.00  0.00    -0.300 N 
ATOM      8  C   UNL     1      -2.716  -0.554  26.093  0.00  0.00    +0.011 C 
ATOM      9  C   UNL     1      -2.658  -1.766  25.133  0.00  0.00    +0.004 C 
ATOM     10  C   UNL     1      -3.492  -1.523  23.862  0.00  0.00    +0.023 C 
ATOM     11  C   UNL     1      -4.188  -0.189  26.376  0.00  0.00    +0.111 C 
ATOM     12  C   UNL     1      -1.947   0.694  25.621  0.00  0.00    +0.024 C 
ATOM     13  C   UNL     1      -1.236  -2.258  24.831  0.00  0.00    +0.100 C 
ATOM     14  C   UNL     1      -4.923  -1.123  24.212  0.00  0.00    +0.108 C 
ATOM     15  C   UNL     1      -0.456   0.445  25.414  0.00  0.00    +0.108 C 
ATOM     16  C   UNL     1      -0.492  -1.459  23.778  0.00  0.00    +0.216 C 
ATOM     18  C   UNL     1      -5.656   1.165  24.800  0.00  0.00    +0.220 C 
ENDROOT
BRANCH   6  17
ATOM     17  C   UNL     1       0.465   0.719  23.125  0.00  0.00    +0.123 C 
BRANCH  17  19
ATOM     19  C   UNL     1       1.566  -0.017  22.377  0.00  0.00    +0.103 C 
BRANCH  19   7
ATOM      3  O   UNL     1       5.614  -0.383  23.426  0.00  0.00    -0.377 OA
ATOM      7  N   UNL     1       2.808   0.006  23.148  0.00  0.00    -0.297 NA
ATOM     21  C   UNL     1       3.775   0.937  22.552  0.00  0.00    +0.112 C 
ATOM     22  C   UNL     1       3.392  -1.340  23.236  0.00  0.00    +0.112 C 
ATOM     24  C   UNL     1       5.067   0.934  23.366  0.00  0.00    +0.175 C 
ATOM     25  C   UNL     1       4.691  -1.288  24.035  0.00  0.00    +0.175 C 
ENDBRANCH  19   7
ENDBRANCH  17  19
ENDBRANCH   6  17
BRANCH  18  20
ATOM     20  C   UNL     1      -5.619   2.294  25.797  0.00  0.00    +0.131 C 
BRANCH  20  23
ATOM     23  C   UNL     1      -4.403   3.142  25.591  0.00  0.00    -0.038 A 
ATOM     26  C   UNL     1      -3.747   3.698  26.690  0.00  0.00    +0.007 A 
ATOM     27  C   UNL     1      -3.924   3.374  24.303  0.00  0.00    +0.007 A 
ATOM     28  C   UNL     1      -2.612   4.485  26.499  0.00  0.00    +0.046 A 
ATOM     29  C   UNL     1      -2.788   4.162  24.111  0.00  0.00    +0.046 A 
ATOM     30  C   UNL     1      -2.132   4.717  25.209  0.00  0.00    +0.120 A 
BRANCH  30   4
ATOM      4  O   UNL     1      -1.024   5.484  25.023  0.00  0.00    -0.495 OA
ATOM     31  C   UNL     1       0.014   4.938  24.210  0.00  0.00    +0.277 C 
ENDBRANCH  30   4
ENDBRANCH  20  23
ENDBRANCH  18  20
TORSDOF 6
ENDMDL
MODEL 3
REMARK VINA RESULT:       0.7      1.747      5.608
REMARK  Name = 26742669
REMARK  7 active torsions:
REMARK  status: ('A' for Active; 'I' for Inactive)
REMARK    1  A    between atoms: O_4  and  C_30
REMARK    2  A    between atoms: O_4  and  C_31
REMARK    3  A    between atoms: N_6  and  C_17
REMARK    4  A    between atoms: N_7  and  C_19
REMARK    5  A    between atoms: C_17  and  C_19
REMARK    6  A    between atoms: C_18  and  C_20
REMARK    7  A    between atoms: C_20  and  C_23
REMARK                            x       y       z     vdW  Elec       q    Type
REMARK                         _______ _______ _______ _____ _____    ______ ____
ROOT
ATOM      1  O   UNL     1      -0.425   5.220  25.657  0.00  0.00    -0.276 OA
ATOM      2  O   UNL     1      -6.070   1.231  26.772  0.00  0.00    -0.275 OA
ATOM      5  N   UNL     1      -5.376   2.522  24.969  0.00  0.00    -0.301 N 
ATOM      6  N   UNL     1      -0.591   3.270  24.410  0.00  0.00    -0.300 N 
ATOM      8  C   UNL     1      -3.652   3.229  23.319  0.00  0.00    +0.011 C 
ATOM      9  C   UNL     1      -3.454   4.523  24.144  0.00  0.00    +0.004 C 
ATOM     10  C   UNL     1      -3.815   4.311  25.627  0.00  0.00    +0.023 C 
ATOM     11  C   UNL     1      -5.080   2.689  23.541  0.00  0.00    +0.111 C 
ATOM     12  C   UNL     1      -2.623   2.115  23.589  0.00  0.00    +0.024 C 
ATOM     13  C   UNL     1      -2.084   5.185  23.951  0.00  0.00    +0.100 C 
ATOM     14  C   UNL     1      -5.222   3.735  25.772  0.00  0.00    +0.108 C 
ATOM     15  C   UNL     1      -1.185   2.536  23.296  0.00  0.00    +0.108 C 
ATOM     16  C   UNL     1      -0.954   4.567  24.753  0.00  0.00    +0.216 C 
ATOM     18  C   UNL     1      -5.803   1.339  25.572  0.00  0.00    +0.220 C 
ENDROOT
BRANCH   6  17
ATOM     17  C   UNL     1       0.426   2.569  25.183  0.00  0.00    +0.123 C 
BRANCH  17  19
ATOM     19  C   UNL     1       0.507   1.103  24.787  0.00  0.00    +0.103 C 
BRANCH  19   7
ATOM      3  O   UNL     1       2.971  -0.368  21.724  0.00  0.00    -0.377 OA
ATOM      7  N   UNL     1       1.188   0.960  23.502  0.00  0.00    -0.297 NA
ATOM     21  C   UNL     1       0.826  -0.309  22.856  0.00  0.00    +0.112 C 
ATOM     22  C   UNL     1       2.646   1.040  23.673  0.00  0.00    +0.112 C 
ATOM     24  C   UNL     1       1.559  -0.441  21.524  0.00  0.00    +0.175 C 
ATOM     25  C   UNL     1       3.335   0.877  22.321  0.00  0.00    +0.175 C 
ENDBRANCH  19   7
ENDBRANCH  17  19
ENDBRANCH   6  17
BRANCH  18  20
ATOM     20  C   UNL     1      -5.934   0.133  24.678  0.00  0.00    +0.131 C 
BRANCH  20  23
ATOM     23  C   UNL     1      -4.667  -0.664  24.677  0.00  0.00    -0.038 A 
ATOM     26  C   UNL     1      -3.596  -0.272  25.479  0.00  0.00    +0.007 A 
ATOM     27  C   UNL     1      -4.559  -1.801  23.877  0.00  0.00    +0.007 A 
ATOM     28  C   UNL     1      -2.416  -1.017  25.482  0.00  0.00    +0.046 A 
ATOM     29  C   UNL     1      -3.379  -2.546  23.878  0.00  0.00    +0.046 A 
ATOM     30  C   UNL     1      -2.308  -2.154  24.681  0.00  0.00    +0.120 A 
BRANCH  30   4
ATOM      4  O   UNL     1      -1.158  -2.881  24.684  0.00  0.00    -0.495 OA
ATOM     31  C   UNL     1      -0.076  -2.381  25.469  0.00  0.00    +0.277 C 
ENDBRANCH  30   4
ENDBRANCH  20  23
ENDBRANCH  18  20
TORSDOF 6
ENDMDL
MODEL 4
REMARK VINA RESULT:       1.6      1.892      5.677
REMARK  Name = 26742669
REMARK  7 active torsions:
REMARK  status: ('A' for Active; 'I' for Inactive)
REMARK    1  A    between atoms: O_4  and  C_30
REMARK    2  A    between atoms: O_4  and  C_31
REMARK    3  A    between atoms: N_6  and  C_17
REMARK    4  A    between atoms: N_7  and  C_19
REMARK    5  A    between atoms: C_17  and  C_19
REMARK    6  A    between atoms: C_18  and  C_20
REMARK    7  A    between atoms: C_20  and  C_23
REMARK                            x       y       z     vdW  Elec       q    Type
REMARK                         _______ _______ _______ _____ _____    ______ ____
ROOT
ATOM      1  O   UNL     1      -1.517  -3.302  23.497  0.00  0.00    -0.276 OA
ATOM      2  O   UNL     1      -3.865   3.201  22.392  0.00  0.00    -0.275 OA
ATOM      5  N   UNL     1      -4.315   1.613  24.029  0.00  0.00    -0.301 N 
ATOM      6  N   UNL     1      -0.857  -1.679  25.018  0.00  0.00    -0.300 N 
ATOM      8  C   UNL     1      -3.573  -0.043  25.732  0.00  0.00    +0.011 C 
ATOM      9  C   UNL     1      -3.939  -1.169  24.735  0.00  0.00    +0.004 C 
ATOM     10  C   UNL     1      -3.847  -0.686  23.276  0.00  0.00    +0.023 C 
ATOM     11  C   UNL     1      -4.427   1.207  25.435  0.00  0.00    +0.111 C 
ATOM     12  C   UNL     1      -2.081   0.338  25.772  0.00  0.00    +0.024 C 
ATOM     13  C   UNL     1      -3.193  -2.486  24.978  0.00  0.00    +0.100 C 
ATOM     14  C   UNL     1      -4.678   0.577  23.062  0.00  0.00    +0.108 C 
ATOM     15  C   UNL     1      -1.170  -0.823  26.159  0.00  0.00    +0.108 C 
ATOM     16  C   UNL     1      -1.780  -2.534  24.426  0.00  0.00    +0.216 C 
ATOM     18  C   UNL     1      -3.928   2.876  23.581  0.00  0.00    +0.220 C 
ENDROOT
BRANCH   6  17
ATOM     17  C   UNL     1       0.501  -1.598  24.495  0.00  0.00    +0.123 C 
BRANCH  17  19
ATOM     19  C   UNL     1       0.632  -0.481  23.472  0.00  0.00    +0.103 C 
BRANCH  19   7
ATOM      3  O   UNL     1       4.758   0.284  23.402  0.00  0.00    -0.377 OA
ATOM      7  N   UNL     1       2.015  -0.370  23.013  0.00  0.00    -0.297 NA
ATOM     21  C   UNL     1       2.902  -1.222  23.819  0.00  0.00    +0.112 C 
ATOM     22  C   UNL     1       2.472   1.025  23.067  0.00  0.00    +0.112 C 
ATOM     24  C   UNL     1       4.341  -1.079  23.330  0.00  0.00    +0.175 C 
ATOM     25  C   UNL     1       3.921   1.114  22.595  0.00  0.00    +0.175 C 
ENDBRANCH  19   7
ENDBRANCH  17  19
ENDBRANCH   6  17
BRANCH  18  20
ATOM     20  C   UNL     1      -3.566   3.886  24.640  0.00  0.00    +0.131 C 
BRANCH  20  23
ATOM     23  C   UNL     1      -2.265   3.530  25.288  0.00  0.00    -0.038 A 
ATOM     26  C   UNL     1      -1.148   3.249  24.501  0.00  0.00    +0.007 A 
ATOM     27  C   UNL     1      -2.168   3.483  26.679  0.00  0.00    +0.007 A 
ATOM     28  C   UNL     1       0.066   2.920  25.105  0.00  0.00    +0.046 A 
ATOM     29  C   UNL     1      -0.954   3.153  27.283  0.00  0.00    +0.046 A 
ATOM     30  C   UNL     1       0.163   2.872  26.496  0.00  0.00    +0.120 A 
BRANCH  30   4
ATOM      4  O   UNL     1       1.347   2.553  27.085  0.00  0.00    -0.495 OA
ATOM     31  C   UNL     1       1.409   2.642  28.507  0.00  0.00    +0.277 C 
ENDBRANCH  30   4
ENDBRANCH  20  23
ENDBRANCH  18  20
TORSDOF 6
ENDMDL
MODEL 5
REMARK VINA RESULT:       2.2      2.839      5.493
REMARK  Name = 26742669
REMARK  7 active torsions:
REMARK  status: ('A' for Active; 'I' for Inactive)
REMARK    1  A    between atoms: O_4  and  C_30
REMARK    2  A    between atoms: O_4  and  C_31
REMARK    3  A    between atoms: N_6  and  C_17
REMARK    4  A    between atoms: N_7  and  C_19
REMARK    5  A    between atoms: C_17  and  C_19
REMARK    6  A    between atoms: C_18  and  C_20
REMARK    7  A    between atoms: C_20  and  C_23
REMARK                            x       y       z     vdW  Elec       q    Type
REMARK                         _______ _______ _______ _____ _____    ______ ____
ROOT
ATOM      1  O   UNL     1      -0.355   5.176  25.632  0.00  0.00    -0.276 OA
ATOM      2  O   UNL     1      -6.177   1.438  26.706  0.00  0.00    -0.275 OA
ATOM      5  N   UNL     1      -5.337   2.560  24.852  0.00  0.00    -0.301 N 
ATOM      6  N   UNL     1      -0.505   3.136  24.536  0.00  0.00    -0.300 N 
ATOM      8  C   UNL     1      -3.495   3.085  23.263  0.00  0.00    +0.011 C 
ATOM      9  C   UNL     1      -3.308   4.437  23.993  0.00  0.00    +0.004 C 
ATOM     10  C   UNL     1      -3.764   4.356  25.462  0.00  0.00    +0.023 C 
ATOM     11  C   UNL     1      -4.950   2.602  23.437  0.00  0.00    +0.111 C 
ATOM     12  C   UNL     1      -2.518   1.971  23.683  0.00  0.00    +0.024 C 
ATOM     13  C   UNL     1      -1.909   5.045  23.833  0.00  0.00    +0.100 C 
ATOM     14  C   UNL     1      -5.193   3.830  25.564  0.00  0.00    +0.108 C 
ATOM     15  C   UNL     1      -1.054   2.329  23.449  0.00  0.00    +0.108 C 
ATOM     16  C   UNL     1      -0.849   4.466  24.752  0.00  0.00    +0.216 C 
ATOM     18  C   UNL     1      -5.835   1.441  25.520  0.00  0.00    +0.220 C 
ENDROOT
BRANCH   6  17
ATOM     17  C   UNL     1       0.442   2.475  25.425  0.00  0.00    +0.123 C 
BRANCH  17  19
ATOM     19  C   UNL     1      -0.167   2.233  26.797  0.00  0.00    +0.103 C 
BRANCH  19   7
ATOM      3  O   UNL     1       2.488   3.186  29.905  0.00  0.00    -0.377 OA
ATOM      7  N   UNL     1       0.884   2.124  27.808  0.00  0.00    -0.297 NA
ATOM     21  C   UNL     1       0.339   2.347  29.154  0.00  0.00    +0.112 C 
ATOM     22  C   UNL     1       1.967   3.079  27.538  0.00  0.00    +0.112 C 
ATOM     24  C   UNL     1       1.456   2.241  30.189  0.00  0.00    +0.175 C 
ATOM     25  C   UNL     1       3.046   2.954  28.610  0.00  0.00    +0.175 C 
ENDBRANCH  19   7
ENDBRANCH  17  19
ENDBRANCH   6  17
BRANCH  18  20
ATOM     20  C   UNL     1      -5.948   0.170  24.718  0.00  0.00    +0.131 C 
BRANCH  20  23
ATOM     23  C   UNL     1      -4.668  -0.603  24.768  0.00  0.00    -0.038 A 
ATOM     26  C   UNL     1      -4.479  -1.694  23.919  0.00  0.00    +0.007 A 
ATOM     27  C   UNL     1      -3.662  -0.231  25.659  0.00  0.00    +0.007 A 
ATOM     28  C   UNL     1      -3.284  -2.413  23.962  0.00  0.00    +0.046 A 
ATOM     29  C   UNL     1      -2.467  -0.950  25.704  0.00  0.00    +0.046 A 
ATOM     30  C   UNL     1      -2.279  -2.041  24.855  0.00  0.00    +0.120 A 
BRANCH  30   4
ATOM      4  O   UNL     1      -1.113  -2.741  24.896  0.00  0.00    -0.495 OA
ATOM     31  C   UNL     1       0.060  -2.027  25.284  0.00  0.00    +0.277 C 
ENDBRANCH  30   4
ENDBRANCH  20  23
ENDBRANCH  18  20
TORSDOF 6
ENDMDL
