MODEL 1
REMARK VINA RESULT:      -5.4      0.000      0.000
REMARK  Name = 45784026
REMARK  2 active torsions:
REMARK  status: ('A' for Active; 'I' for Inactive)
REMARK    1  A    between atoms: C_6  and  C_10
REMARK    2  A    between atoms: C_11  and  C_14
REMARK                            x       y       z     vdW  Elec       q    Type
REMARK                         _______ _______ _______ _____ _____    ______ ____
ROOT
ATOM      2  O   UNL     1      -2.728  -9.469  10.956  0.00  0.00    -0.270 OA
ATOM      3  N   UNL     1      -4.791 -10.288  10.272  0.00  0.00    -0.297 N 
ATOM      6  C   UNL     1      -6.894 -10.583   9.199  0.00  0.00    +0.074 C 
ATOM      7  C   UNL     1      -5.764 -10.735   8.170  0.00  0.00    +0.032 C 
ATOM      8  C   UNL     1      -6.145 -10.781  10.524  0.00  0.00    +0.119 C 
ATOM      9  C   UNL     1      -4.561 -10.094   8.849  0.00  0.00    +0.109 C 
ATOM     11  C   UNL     1      -3.829  -9.950  11.212  0.00  0.00    +0.247 C 
ENDROOT
BRANCH   6  10
ATOM      4  N   UNL     1      -8.962  -9.155   9.329  0.00  0.00    -0.342 N 
ATOM      5  N   UNL     1      -7.130  -8.133   8.595  0.00  0.00    -0.232 NA
ATOM     10  C   UNL     1      -7.634  -9.267   9.027  0.00  0.00    +0.113 A 
ATOM     12  C   UNL     1      -9.342  -7.862   9.073  0.00  0.00    +0.066 A 
ATOM     13  C   UNL     1      -8.181  -7.245   8.616  0.00  0.00    +0.089 A 
ATOM     15  C   UNL     1     -10.564  -7.201   9.198  0.00  0.00    +0.028 A 
ATOM     16  C   UNL     1      -8.223  -5.886   8.259  0.00  0.00    +0.030 A 
ATOM     19  C   UNL     1     -10.588  -5.849   8.839  0.00  0.00    +0.002 A 
ATOM     20  C   UNL     1      -9.439  -5.202   8.377  0.00  0.00    +0.002 A 
ATOM     24  H   UNL     1      -9.562  -9.892   9.676  0.00  0.00    +0.167 HD
ENDBRANCH   6  10
BRANCH  11  14
ATOM      1  F   UNL     1      -5.084 -10.781  16.607  0.00  0.00    -0.205 F 
ATOM     14  C   UNL     1      -4.159 -10.169  12.629  0.00  0.00    +0.037 A 
ATOM     17  C   UNL     1      -3.155 -10.516  13.533  0.00  0.00    +0.016 A 
ATOM     18  C   UNL     1      -5.476 -10.030  13.069  0.00  0.00    +0.016 A 
ATOM     21  C   UNL     1      -3.467 -10.723  14.877  0.00  0.00    +0.039 A 
ATOM     22  C   UNL     1      -5.788 -10.237  14.412  0.00  0.00    +0.039 A 
ATOM     23  C   UNL     1      -4.784 -10.584  15.316  0.00  0.00    +0.123 A 
ENDBRANCH  11  14
TORSDOF 2
ENDMDL
MODEL 2
REMARK VINA RESULT:      -4.5     27.419     28.796
REMARK  Name = 45784026
REMARK  2 active torsions:
REMARK  status: ('A' for Active; 'I' for Inactive)
REMARK    1  A    between atoms: C_6  and  C_10
REMARK    2  A    between atoms: C_11  and  C_14
REMARK                            x       y       z     vdW  Elec       q    Type
REMARK                         _______ _______ _______ _____ _____    ______ ____
ROOT
ATOM      2  O   UNL     1      16.349  -6.805  24.505  0.00  0.00    -0.270 OA
ATOM      3  N   UNL     1      17.011  -6.367  26.687  0.00  0.00    -0.297 N 
ATOM      6  C   UNL     1      17.153  -6.275  29.061  0.00  0.00    +0.074 C 
ATOM      7  C   UNL     1      17.405  -7.713  28.584  0.00  0.00    +0.032 C 
ATOM      8  C   UNL     1      17.393  -5.468  27.777  0.00  0.00    +0.119 C 
ATOM      9  C   UNL     1      16.853  -7.732  27.166  0.00  0.00    +0.109 C 
ATOM     11  C   UNL     1      16.739  -6.026  25.371  0.00  0.00    +0.247 C 
ENDROOT
BRANCH   6  10
ATOM      4  N   UNL     1      15.576  -5.261  30.740  0.00  0.00    -0.342 N 
ATOM      5  N   UNL     1      14.690  -6.780  29.380  0.00  0.00    -0.232 NA
ATOM     10  C   UNL     1      15.785  -6.131  29.707  0.00  0.00    +0.113 A 
ATOM     12  C   UNL     1      14.257  -5.356  31.106  0.00  0.00    +0.066 A 
ATOM     13  C   UNL     1      13.726  -6.310  30.243  0.00  0.00    +0.089 A 
ATOM     15  C   UNL     1      13.507  -4.708  32.089  0.00  0.00    +0.028 A 
ATOM     16  C   UNL     1      12.367  -6.651  30.351  0.00  0.00    +0.030 A 
ATOM     19  C   UNL     1      12.157  -5.059  32.182  0.00  0.00    +0.002 A 
ATOM     20  C   UNL     1      11.595  -6.014  31.330  0.00  0.00    +0.002 A 
ATOM     24  H   UNL     1      16.267  -4.657  31.163  0.00  0.00    +0.167 HD
ENDBRANCH   6  10
BRANCH  11  14
ATOM      1  F   UNL     1      17.405  -0.663  23.901  0.00  0.00    -0.205 F 
ATOM     14  C   UNL     1      16.915  -4.617  24.985  0.00  0.00    +0.037 A 
ATOM     17  C   UNL     1      16.878  -4.254  23.639  0.00  0.00    +0.016 A 
ATOM     18  C   UNL     1      17.118  -3.645  25.965  0.00  0.00    +0.016 A 
ATOM     21  C   UNL     1      17.044  -2.918  23.272  0.00  0.00    +0.039 A 
ATOM     22  C   UNL     1      17.284  -2.310  25.598  0.00  0.00    +0.039 A 
ATOM     23  C   UNL     1      17.247  -1.946  24.252  0.00  0.00    +0.123 A 
ENDBRANCH  11  14
TORSDOF 2
ENDMDL
MODEL 3
REMARK VINA RESULT:      -2.4     16.463     18.700
REMARK  Name = 45784026
REMARK  2 active torsions:
REMARK  status: ('A' for Active; 'I' for Inactive)
REMARK    1  A    between atoms: C_6  and  C_10
REMARK    2  A    between atoms: C_11  and  C_14
REMARK                            x       y       z     vdW  Elec       q    Type
REMARK                         _______ _______ _______ _____ _____    ______ ____
ROOT
ATOM      2  O   UNL     1       1.317  -0.646  21.083  0.00  0.00    -0.270 OA
ATOM      3  N   UNL     1       0.461  -0.664  23.242  0.00  0.00    -0.297 N 
ATOM      6  C   UNL     1      -0.859  -0.275  25.183  0.00  0.00    +0.074 C 
ATOM      7  C   UNL     1      -1.673  -1.080  24.158  0.00  0.00    +0.032 C 
ATOM      8  C   UNL     1       0.578  -0.496  24.691  0.00  0.00    +0.119 C 
ATOM      9  C   UNL     1      -0.925  -0.869  22.849  0.00  0.00    +0.109 C 
ATOM     11  C   UNL     1       1.474  -0.571  22.300  0.00  0.00    +0.247 C 
ENDROOT
BRANCH   6  10
ATOM      4  N   UNL     1      -0.496   2.208  24.992  0.00  0.00    -0.342 N 
ATOM      5  N   UNL     1      -2.539   1.577  25.597  0.00  0.00    -0.232 NA
ATOM     10  C   UNL     1      -1.335   1.165  25.269  0.00  0.00    +0.113 A 
ATOM     12  C   UNL     1      -1.205   3.371  25.153  0.00  0.00    +0.066 A 
ATOM     13  C   UNL     1      -2.477   2.950  25.531  0.00  0.00    +0.089 A 
ATOM     15  C   UNL     1      -0.853   4.713  25.007  0.00  0.00    +0.028 A 
ATOM     16  C   UNL     1      -3.471   3.911  25.780  0.00  0.00    +0.030 A 
ATOM     19  C   UNL     1      -1.854   5.656  25.258  0.00  0.00    +0.002 A 
ATOM     20  C   UNL     1      -3.141   5.265  25.639  0.00  0.00    +0.002 A 
ATOM     24  H   UNL     1       0.476   2.138  24.719  0.00  0.00    +0.167 HD
ENDBRANCH   6  10
BRANCH  11  14
ATOM      1  F   UNL     1       6.681   0.277  24.179  0.00  0.00    -0.205 F 
ATOM     14  C   UNL     1       2.842  -0.348  22.793  0.00  0.00    +0.037 A 
ATOM     17  C   UNL     1       3.461   0.886  22.598  0.00  0.00    +0.016 A 
ATOM     18  C   UNL     1       3.520  -1.372  23.455  0.00  0.00    +0.016 A 
ATOM     21  C   UNL     1       4.758   1.098  23.066  0.00  0.00    +0.039 A 
ATOM     22  C   UNL     1       4.817  -1.160  23.923  0.00  0.00    +0.039 A 
ATOM     23  C   UNL     1       5.436   0.074  23.728  0.00  0.00    +0.123 A 
ENDBRANCH  11  14
TORSDOF 2
ENDMDL
