MODEL 1
REMARK VINA RESULT:       0.8      0.000      0.000
REMARK  Name = 28961678
REMARK  10 active torsions:
REMARK  status: ('A' for Active; 'I' for Inactive)
REMARK    1  A    between atoms: O_2  and  C_12
REMARK    2  A    between atoms: O_3  and  C_19
REMARK    3  A    between atoms: O_5  and  C_25
REMARK    4  A    between atoms: O_5  and  C_28
REMARK    5  A    between atoms: N_6  and  C_10
REMARK    6  A    between atoms: N_7  and  C_20
REMARK    7  A    between atoms: N_8  and  C_16
REMARK    8  A    between atoms: N_9  and  C_22
REMARK    9  A    between atoms: C_11  and  C_16
REMARK   10  A    between atoms: C_13  and  C_19
REMARK                            x       y       z     vdW  Elec       q    Type
REMARK                         _______ _______ _______ _____ _____    ______ ____
ROOT
ATOM      1  O   UNL     1      -2.752   3.907  25.061  0.00  0.00    -0.365 OA
ATOM     10  C   UNL     1      -2.994   1.552  25.313  0.00  0.00    +0.118 C 
ATOM     11  C   UNL     1      -2.128   2.656  24.693  0.00  0.00    +0.155 C 
ATOM     12  C   UNL     1      -4.362   2.208  25.421  0.00  0.00    +0.165 C 
ATOM     13  C   UNL     1      -3.962   3.631  25.793  0.00  0.00    +0.174 C 
ENDROOT
BRANCH  10   6
ATOM      6  N   UNL     1      -2.975   0.258  24.634  0.00  0.00    -0.292 NA
ATOM      7  N   UNL     1      -3.356  -2.607  24.539  0.00  0.00    -0.303 NA
ATOM     14  C   UNL     1      -2.029  -0.658  25.282  0.00  0.00    +0.100 C 
ATOM     15  C   UNL     1      -4.319  -0.332  24.598  0.00  0.00    +0.100 C 
ATOM     17  C   UNL     1      -2.011  -2.017  24.573  0.00  0.00    +0.099 C 
ATOM     18  C   UNL     1      -4.300  -1.690  23.889  0.00  0.00    +0.099 C 
ATOM     20  C   UNL     1      -3.337  -3.901  23.861  0.00  0.00    +0.105 C 
ENDBRANCH  10   6
BRANCH  12   2
ATOM      2  O   UNL     1      -5.046   2.196  24.174  0.00  0.00    -0.388 OA
ATOM     29  H   UNL     1      -5.825   2.771  24.260  0.00  0.00    +0.210 HD
ENDBRANCH  12   2
BRANCH  11  16
ATOM     16  C   UNL     1      -1.994   2.647  23.173  0.00  0.00    +0.139 C 
BRANCH  16   8
ATOM      4  O   UNL     1       0.538   2.085  24.389  0.00  0.00    -0.253 OA
ATOM      8  N   UNL     1      -1.038   1.671  22.746  0.00  0.00    -0.297 N 
ATOM      9  N   UNL     1       0.912   0.440  22.757  0.00  0.00    -0.269 N 
ATOM     21  C   UNL     1       0.189   1.450  23.396  0.00  0.00    +0.304 C 
ATOM     30  H   UNL     1      -1.265   1.099  21.938  0.00  0.00    +0.150 HD
ATOM     32  H   UNL     1       0.479   0.014  21.942  0.00  0.00    +0.156 HD
BRANCH   9  22
ATOM     22  C   UNL     1       2.186  -0.070  23.105  0.00  0.00    +0.038 A 
ATOM     23  C   UNL     1       3.314   0.742  22.999  0.00  0.00    +0.069 A 
ATOM     24  C   UNL     1       2.311  -1.384  23.555  0.00  0.00    +0.023 A 
ATOM     25  C   UNL     1       4.569   0.239  23.343  0.00  0.00    +0.122 A 
ATOM     26  C   UNL     1       3.565  -1.886  23.899  0.00  0.00    +0.005 A 
ATOM     27  C   UNL     1       4.695  -1.074  23.793  0.00  0.00    +0.046 A 
BRANCH  25   5
ATOM      5  O   UNL     1       5.672   1.031  23.240  0.00  0.00    -0.495 OA
ATOM     28  C   UNL     1       6.925   0.449  23.595  0.00  0.00    +0.277 C 
ENDBRANCH  25   5
ENDBRANCH   9  22
ENDBRANCH  16   8
ENDBRANCH  11  16
BRANCH  13  19
ATOM     19  C   UNL     1      -4.991   4.702  25.481  0.00  0.00    +0.190 C 
BRANCH  19   3
ATOM      3  O   UNL     1      -6.279   4.211  25.815  0.00  0.00    -0.392 OA
ATOM     31  H   UNL     1      -6.185   3.260  25.998  0.00  0.00    +0.210 HD
ENDBRANCH  19   3
ENDBRANCH  13  19
TORSDOF 8
ENDMDL
MODEL 2
REMARK VINA RESULT:       0.9      1.506      1.722
REMARK  Name = 28961678
REMARK  10 active torsions:
REMARK  status: ('A' for Active; 'I' for Inactive)
REMARK    1  A    between atoms: O_2  and  C_12
REMARK    2  A    between atoms: O_3  and  C_19
REMARK    3  A    between atoms: O_5  and  C_25
REMARK    4  A    between atoms: O_5  and  C_28
REMARK    5  A    between atoms: N_6  and  C_10
REMARK    6  A    between atoms: N_7  and  C_20
REMARK    7  A    between atoms: N_8  and  C_16
REMARK    8  A    between atoms: N_9  and  C_22
REMARK    9  A    between atoms: C_11  and  C_16
REMARK   10  A    between atoms: C_13  and  C_19
REMARK                            x       y       z     vdW  Elec       q    Type
REMARK                         _______ _______ _______ _____ _____    ______ ____
ROOT
ATOM      1  O   UNL     1      -4.403   4.090  26.255  0.00  0.00    -0.365 OA
ATOM     10  C   UNL     1      -3.890   1.792  25.903  0.00  0.00    +0.118 C 
ATOM     11  C   UNL     1      -3.284   3.182  26.140  0.00  0.00    +0.155 C 
ATOM     12  C   UNL     1      -5.233   2.107  25.262  0.00  0.00    +0.165 C 
ATOM     13  C   UNL     1      -5.626   3.360  26.035  0.00  0.00    +0.174 C 
ENDROOT
BRANCH  10   6
ATOM      6  N   UNL     1      -3.056   0.841  25.171  0.00  0.00    -0.292 NA
ATOM      7  N   UNL     1      -2.084  -1.820  24.595  0.00  0.00    -0.303 NA
ATOM     14  C   UNL     1      -2.126   0.157  26.077  0.00  0.00    +0.100 C 
ATOM     15  C   UNL     1      -3.886  -0.135  24.454  0.00  0.00    +0.100 C 
ATOM     17  C   UNL     1      -1.254  -0.844  25.310  0.00  0.00    +0.099 C 
ATOM     18  C   UNL     1      -3.013  -1.135  23.688  0.00  0.00    +0.099 C 
ATOM     20  C   UNL     1      -1.251  -2.773  23.863  0.00  0.00    +0.105 C 
ENDBRANCH  10   6
BRANCH  12   2
ATOM      2  O   UNL     1      -5.092   2.402  23.878  0.00  0.00    -0.388 OA
ATOM     29  H   UNL     1      -4.289   2.939  23.771  0.00  0.00    +0.210 HD
ENDBRANCH  12   2
BRANCH  11  16
ATOM     16  C   UNL     1      -2.372   3.725  25.046  0.00  0.00    +0.139 C 
BRANCH  16   8
ATOM      4  O   UNL     1      -1.177   2.237  22.910  0.00  0.00    -0.253 OA
ATOM      8  N   UNL     1      -1.098   3.072  25.066  0.00  0.00    -0.297 N 
ATOM      9  N   UNL     1       0.681   1.830  24.285  0.00  0.00    -0.269 N 
ATOM     21  C   UNL     1      -0.575   2.357  23.975  0.00  0.00    +0.304 C 
ATOM     30  H   UNL     1      -0.538   3.139  25.911  0.00  0.00    +0.150 HD
ATOM     32  H   UNL     1       1.039   2.021  25.217  0.00  0.00    +0.156 HD
BRANCH   9  22
ATOM     22  C   UNL     1       1.527   1.054  23.456  0.00  0.00    +0.038 A 
ATOM     23  C   UNL     1       2.911   1.184  23.557  0.00  0.00    +0.069 A 
ATOM     24  C   UNL     1       0.974   0.161  22.539  0.00  0.00    +0.023 A 
ATOM     25  C   UNL     1       3.744   0.419  22.741  0.00  0.00    +0.122 A 
ATOM     26  C   UNL     1       1.807  -0.604  21.722  0.00  0.00    +0.005 A 
ATOM     27  C   UNL     1       3.193  -0.475  21.824  0.00  0.00    +0.046 A 
BRANCH  25   5
ATOM      5  O   UNL     1       5.096   0.544  22.839  0.00  0.00    -0.495 OA
ATOM     28  C   UNL     1       5.733  -0.116  23.932  0.00  0.00    +0.277 C 
ENDBRANCH  25   5
ENDBRANCH   9  22
ENDBRANCH  16   8
ENDBRANCH  11  16
BRANCH  13  19
ATOM     19  C   UNL     1      -6.631   4.264  25.345  0.00  0.00    +0.190 C 
BRANCH  19   3
ATOM      3  O   UNL     1      -6.508   5.575  25.874  0.00  0.00    -0.392 OA
ATOM     31  H   UNL     1      -7.336   5.773  26.344  0.00  0.00    +0.210 HD
ENDBRANCH  19   3
ENDBRANCH  13  19
TORSDOF 8
ENDMDL
MODEL 3
REMARK VINA RESULT:       1.1      1.602      2.168
REMARK  Name = 28961678
REMARK  10 active torsions:
REMARK  status: ('A' for Active; 'I' for Inactive)
REMARK    1  A    between atoms: O_2  and  C_12
REMARK    2  A    between atoms: O_3  and  C_19
REMARK    3  A    between atoms: O_5  and  C_25
REMARK    4  A    between atoms: O_5  and  C_28
REMARK    5  A    between atoms: N_6  and  C_10
REMARK    6  A    between atoms: N_7  and  C_20
REMARK    7  A    between atoms: N_8  and  C_16
REMARK    8  A    between atoms: N_9  and  C_22
REMARK    9  A    between atoms: C_11  and  C_16
REMARK   10  A    between atoms: C_13  and  C_19
REMARK                            x       y       z     vdW  Elec       q    Type
REMARK                         _______ _______ _______ _____ _____    ______ ____
ROOT
ATOM      1  O   UNL     1      -3.786   4.536  25.569  0.00  0.00    -0.365 OA
ATOM     10  C   UNL     1      -4.137   2.248  25.014  0.00  0.00    +0.118 C 
ATOM     11  C   UNL     1      -3.599   3.200  26.089  0.00  0.00    +0.155 C 
ATOM     12  C   UNL     1      -3.984   3.055  23.733  0.00  0.00    +0.165 C 
ATOM     13  C   UNL     1      -4.330   4.451  24.237  0.00  0.00    +0.174 C 
ENDROOT
BRANCH  10   6
ATOM      6  N   UNL     1      -3.549   0.910  24.983  0.00  0.00    -0.292 NA
ATOM      7  N   UNL     1      -3.673  -1.948  24.569  0.00  0.00    -0.303 NA
ATOM     14  C   UNL     1      -4.207   0.028  25.953  0.00  0.00    +0.100 C 
ATOM     15  C   UNL     1      -3.627   0.338  23.633  0.00  0.00    +0.100 C 
ATOM     17  C   UNL     1      -3.594  -1.376  25.919  0.00  0.00    +0.099 C 
ATOM     18  C   UNL     1      -3.013  -1.066  23.599  0.00  0.00    +0.099 C 
ATOM     20  C   UNL     1      -3.086  -3.287  24.538  0.00  0.00    +0.105 C 
ENDBRANCH  10   6
BRANCH  12   2
ATOM      2  O   UNL     1      -2.647   3.018  23.251  0.00  0.00    -0.388 OA
ATOM     29  H   UNL     1      -2.062   2.886  24.016  0.00  0.00    +0.210 HD
ENDBRANCH  12   2
BRANCH  11  16
ATOM     16  C   UNL     1      -2.125   3.059  26.451  0.00  0.00    +0.139 C 
BRANCH  16   8
ATOM      4  O   UNL     1       0.035   3.127  24.570  0.00  0.00    -0.253 OA
ATOM      8  N   UNL     1      -1.536   1.938  25.784  0.00  0.00    -0.297 N 
ATOM      9  N   UNL     1      -0.110   0.792  24.379  0.00  0.00    -0.269 N 
ATOM     21  C   UNL     1      -0.474   2.049  24.869  0.00  0.00    +0.304 C 
ATOM     30  H   UNL     1      -1.897   1.012  25.992  0.00  0.00    +0.150 HD
ATOM     32  H   UNL     1      -0.635  -0.005  24.730  0.00  0.00    +0.156 HD
BRANCH   9  22
ATOM     22  C   UNL     1       0.909   0.486  23.446  0.00  0.00    +0.038 A 
ATOM     23  C   UNL     1       2.213   0.929  23.667  0.00  0.00    +0.069 A 
ATOM     24  C   UNL     1       0.609  -0.260  22.306  0.00  0.00    +0.023 A 
ATOM     25  C   UNL     1       3.217   0.626  22.747  0.00  0.00    +0.122 A 
ATOM     26  C   UNL     1       1.613  -0.563  21.387  0.00  0.00    +0.005 A 
ATOM     27  C   UNL     1       2.918  -0.120  21.608  0.00  0.00    +0.046 A 
BRANCH  25   5
ATOM      5  O   UNL     1       4.490   1.058  22.962  0.00  0.00    -0.495 OA
ATOM     28  C   UNL     1       5.411   0.118  23.512  0.00  0.00    +0.277 C 
ENDBRANCH  25   5
ENDBRANCH   9  22
ENDBRANCH  16   8
ENDBRANCH  11  16
BRANCH  13  19
ATOM     19  C   UNL     1      -3.792   5.598  23.403  0.00  0.00    +0.190 C 
BRANCH  19   3
ATOM      3  O   UNL     1      -2.499   5.942  23.874  0.00  0.00    -0.392 OA
ATOM     31  H   UNL     1      -2.620   6.472  24.681  0.00  0.00    +0.210 HD
ENDBRANCH  19   3
ENDBRANCH  13  19
TORSDOF 8
ENDMDL
MODEL 4
REMARK VINA RESULT:       1.5      2.149      4.318
REMARK  Name = 28961678
REMARK  10 active torsions:
REMARK  status: ('A' for Active; 'I' for Inactive)
REMARK    1  A    between atoms: O_2  and  C_12
REMARK    2  A    between atoms: O_3  and  C_19
REMARK    3  A    between atoms: O_5  and  C_25
REMARK    4  A    between atoms: O_5  and  C_28
REMARK    5  A    between atoms: N_6  and  C_10
REMARK    6  A    between atoms: N_7  and  C_20
REMARK    7  A    between atoms: N_8  and  C_16
REMARK    8  A    between atoms: N_9  and  C_22
REMARK    9  A    between atoms: C_11  and  C_16
REMARK   10  A    between atoms: C_13  and  C_19
REMARK                            x       y       z     vdW  Elec       q    Type
REMARK                         _______ _______ _______ _____ _____    ______ ____
ROOT
ATOM      1  O   UNL     1      -2.595  -1.345  23.528  0.00  0.00    -0.365 OA
ATOM     10  C   UNL     1      -4.083  -0.215  25.004  0.00  0.00    +0.118 C 
ATOM     11  C   UNL     1      -3.473  -0.198  23.596  0.00  0.00    +0.155 C 
ATOM     12  C   UNL     1      -3.040  -0.961  25.822  0.00  0.00    +0.165 C 
ATOM     13  C   UNL     1      -2.583  -2.004  24.809  0.00  0.00    +0.174 C 
ENDROOT
BRANCH  10   6
ATOM      6  N   UNL     1      -4.493   1.079  25.546  0.00  0.00    -0.292 NA
ATOM      7  N   UNL     1      -5.468   3.789  25.285  0.00  0.00    -0.303 NA
ATOM     14  C   UNL     1      -3.631   2.153  25.040  0.00  0.00    +0.100 C 
ATOM     15  C   UNL     1      -5.899   1.356  25.227  0.00  0.00    +0.100 C 
ATOM     17  C   UNL     1      -4.062   3.512  25.605  0.00  0.00    +0.099 C 
ATOM     18  C   UNL     1      -6.330   2.714  25.793  0.00  0.00    +0.099 C 
ATOM     20  C   UNL     1      -5.878   5.083  25.826  0.00  0.00    +0.105 C 
ENDBRANCH  10   6
BRANCH  12   2
ATOM      2  O   UNL     1      -1.957  -0.112  26.183  0.00  0.00    -0.388 OA
ATOM     29  H   UNL     1      -1.823   0.519  25.456  0.00  0.00    +0.210 HD
ENDBRANCH  12   2
BRANCH  11  16
ATOM     16  C   UNL     1      -2.644   1.028  23.226  0.00  0.00    +0.139 C 
BRANCH  16   8
ATOM      4  O   UNL     1      -0.051   1.365  24.394  0.00  0.00    -0.253 OA
ATOM      8  N   UNL     1      -1.391   0.646  22.650  0.00  0.00    -0.297 N 
ATOM      9  N   UNL     1       0.894   0.374  22.487  0.00  0.00    -0.269 N 
ATOM     21  C   UNL     1      -0.152   0.844  23.285  0.00  0.00    +0.304 C 
ATOM     30  H   UNL     1      -1.398   0.197  21.739  0.00  0.00    +0.150 HD
ATOM     32  H   UNL     1       0.638  -0.031  21.591  0.00  0.00    +0.156 HD
BRANCH   9  22
ATOM     22  C   UNL     1       2.280   0.392  22.773  0.00  0.00    +0.038 A 
ATOM     23  C   UNL     1       2.907  -0.756  23.253  0.00  0.00    +0.069 A 
ATOM     24  C   UNL     1       3.018   1.559  22.573  0.00  0.00    +0.023 A 
ATOM     25  C   UNL     1       4.274  -0.738  23.534  0.00  0.00    +0.122 A 
ATOM     26  C   UNL     1       4.384   1.577  22.853  0.00  0.00    +0.005 A 
ATOM     27  C   UNL     1       5.012   0.427  23.334  0.00  0.00    +0.046 A 
BRANCH  25   5
ATOM      5  O   UNL     1       4.887  -1.860  24.003  0.00  0.00    -0.495 OA
ATOM     28  C   UNL     1       6.160  -1.691  24.626  0.00  0.00    +0.277 C 
ENDBRANCH  25   5
ENDBRANCH   9  22
ENDBRANCH  16   8
ENDBRANCH  11  16
BRANCH  13  19
ATOM     19  C   UNL     1      -1.206  -2.593  25.055  0.00  0.00    +0.190 C 
BRANCH  19   3
ATOM      3  O   UNL     1      -0.226  -1.611  24.755  0.00  0.00    -0.392 OA
ATOM     31  H   UNL     1      -0.073  -1.644  23.795  0.00  0.00    +0.210 HD
ENDBRANCH  19   3
ENDBRANCH  13  19
TORSDOF 8
ENDMDL
MODEL 5
REMARK VINA RESULT:       2.3      1.756      7.422
REMARK  Name = 28961678
REMARK  10 active torsions:
REMARK  status: ('A' for Active; 'I' for Inactive)
REMARK    1  A    between atoms: O_2  and  C_12
REMARK    2  A    between atoms: O_3  and  C_19
REMARK    3  A    between atoms: O_5  and  C_25
REMARK    4  A    between atoms: O_5  and  C_28
REMARK    5  A    between atoms: N_6  and  C_10
REMARK    6  A    between atoms: N_7  and  C_20
REMARK    7  A    between atoms: N_8  and  C_16
REMARK    8  A    between atoms: N_9  and  C_22
REMARK    9  A    between atoms: C_11  and  C_16
REMARK   10  A    between atoms: C_13  and  C_19
REMARK                            x       y       z     vdW  Elec       q    Type
REMARK                         _______ _______ _______ _____ _____    ______ ____
ROOT
ATOM      1  O   UNL     1       2.750   1.742  23.058  0.00  0.00    -0.365 OA
ATOM     10  C   UNL     1       0.818   0.352  23.093  0.00  0.00    +0.118 C 
ATOM     11  C   UNL     1       1.399   1.690  23.569  0.00  0.00    +0.155 C 
ATOM     12  C   UNL     1       2.054  -0.517  22.916  0.00  0.00    +0.165 C 
ATOM     13  C   UNL     1       3.042   0.509  22.372  0.00  0.00    +0.174 C 
ENDROOT
BRANCH  10   6
ATOM      6  N   UNL     1      -0.237  -0.226  23.923  0.00  0.00    -0.292 NA
ATOM      7  N   UNL     1      -2.478  -1.995  24.376  0.00  0.00    -0.303 NA
ATOM     14  C   UNL     1      -1.561   0.062  23.359  0.00  0.00    +0.100 C 
ATOM     15  C   UNL     1      -0.047  -1.674  24.074  0.00  0.00    +0.100 C 
ATOM     17  C   UNL     1      -2.668  -0.547  24.227  0.00  0.00    +0.099 C 
ATOM     18  C   UNL     1      -1.154  -2.282  24.941  0.00  0.00    +0.099 C 
ATOM     20  C   UNL     1      -3.534  -2.575  25.205  0.00  0.00    +0.105 C 
ENDBRANCH  10   6
BRANCH  12   2
ATOM      2  O   UNL     1       2.510  -1.033  24.160  0.00  0.00    -0.388 OA
ATOM     29  H   UNL     1       2.026  -1.858  24.331  0.00  0.00    +0.210 HD
ENDBRANCH  12   2
BRANCH  11  16
ATOM     16  C   UNL     1       1.478   1.901  25.077  0.00  0.00    +0.139 C 
BRANCH  16   8
ATOM      4  O   UNL     1      -0.795   3.412  24.209  0.00  0.00    -0.253 OA
ATOM      8  N   UNL     1       0.174   1.899  25.667  0.00  0.00    -0.297 N 
ATOM      9  N   UNL     1      -2.043   2.464  25.957  0.00  0.00    -0.269 N 
ATOM     21  C   UNL     1      -0.898   2.669  25.183  0.00  0.00    +0.304 C 
ATOM     30  H   UNL     1       0.012   1.298  26.469  0.00  0.00    +0.150 HD
ATOM     32  H   UNL     1      -1.959   1.813  26.734  0.00  0.00    +0.156 HD
BRANCH   9  22
ATOM     22  C   UNL     1      -3.320   3.053  25.792  0.00  0.00    +0.038 A 
ATOM     23  C   UNL     1      -4.406   2.267  25.409  0.00  0.00    +0.069 A 
ATOM     24  C   UNL     1      -3.490   4.419  26.015  0.00  0.00    +0.023 A 
ATOM     25  C   UNL     1      -5.663   2.848  25.247  0.00  0.00    +0.122 A 
ATOM     26  C   UNL     1      -4.748   5.000  25.853  0.00  0.00    +0.005 A 
ATOM     27  C   UNL     1      -5.835   4.214  25.470  0.00  0.00    +0.046 A 
BRANCH  25   5
ATOM      5  O   UNL     1      -6.725   2.082  24.873  0.00  0.00    -0.495 OA
ATOM     28  C   UNL     1      -6.453   0.731  24.505  0.00  0.00    +0.277 C 
ENDBRANCH  25   5
ENDBRANCH   9  22
ENDBRANCH  16   8
ENDBRANCH  11  16
BRANCH  13  19
ATOM     19  C   UNL     1       4.508   0.167  22.560  0.00  0.00    +0.190 C 
BRANCH  19   3
ATOM      3  O   UNL     1       4.913   0.579  23.856  0.00  0.00    -0.392 OA
ATOM     31  H   UNL     1       4.105   0.702  24.383  0.00  0.00    +0.210 HD
ENDBRANCH  19   3
ENDBRANCH  13  19
TORSDOF 8
ENDMDL
MODEL 6
REMARK VINA RESULT:       2.8      1.734      7.068
REMARK  Name = 28961678
REMARK  10 active torsions:
REMARK  status: ('A' for Active; 'I' for Inactive)
REMARK    1  A    between atoms: O_2  and  C_12
REMARK    2  A    between atoms: O_3  and  C_19
REMARK    3  A    between atoms: O_5  and  C_25
REMARK    4  A    between atoms: O_5  and  C_28
REMARK    5  A    between atoms: N_6  and  C_10
REMARK    6  A    between atoms: N_7  and  C_20
REMARK    7  A    between atoms: N_8  and  C_16
REMARK    8  A    between atoms: N_9  and  C_22
REMARK    9  A    between atoms: C_11  and  C_16
REMARK   10  A    between atoms: C_13  and  C_19
REMARK                            x       y       z     vdW  Elec       q    Type
REMARK                         _______ _______ _______ _____ _____    ______ ____
ROOT
ATOM      1  O   UNL     1       2.036  -0.234  21.457  0.00  0.00    -0.365 OA
ATOM     10  C   UNL     1       0.698  -0.995  23.274  0.00  0.00    +0.118 C 
ATOM     11  C   UNL     1       0.692  -0.662  21.776  0.00  0.00    +0.155 C 
ATOM     12  C   UNL     1       1.828  -0.131  23.814  0.00  0.00    +0.165 C 
ATOM     13  C   UNL     1       2.823  -0.220  22.663  0.00  0.00    +0.174 C 
ENDROOT
BRANCH  10   6
ATOM      6  N   UNL     1      -0.579  -0.860  23.971  0.00  0.00    -0.292 NA
ATOM      7  N   UNL     1      -2.516  -1.638  25.971  0.00  0.00    -0.303 NA
ATOM     14  C   UNL     1      -1.390  -2.074  23.815  0.00  0.00    +0.100 C 
ATOM     15  C   UNL     1      -0.368  -0.562  25.393  0.00  0.00    +0.100 C 
ATOM     17  C   UNL     1      -2.728  -1.934  24.549  0.00  0.00    +0.099 C 
ATOM     18  C   UNL     1      -1.706  -0.423  26.126  0.00  0.00    +0.099 C 
ATOM     20  C   UNL     1      -3.793  -1.503  26.670  0.00  0.00    +0.105 C 
ENDBRANCH  10   6
BRANCH  12   2
ATOM      2  O   UNL     1       1.408   1.215  24.003  0.00  0.00    -0.388 OA
ATOM     29  H   UNL     1       0.460   1.260  23.794  0.00  0.00    +0.210 HD
ENDBRANCH  12   2
BRANCH  11  16
ATOM     16  C   UNL     1      -0.254   0.446  21.327  0.00  0.00    +0.139 C 
BRANCH  16   8
ATOM      4  O   UNL     1      -2.696   1.117  22.666  0.00  0.00    -0.253 OA
ATOM      8  N   UNL     1      -0.424   1.427  22.356  0.00  0.00    -0.297 N 
ATOM      9  N   UNL     1      -1.519   2.703  23.935  0.00  0.00    -0.269 N 
ATOM     21  C   UNL     1      -1.658   1.702  22.970  0.00  0.00    +0.304 C 
ATOM     30  H   UNL     1       0.394   1.941  22.668  0.00  0.00    +0.150 HD
ATOM     32  H   UNL     1      -0.586   3.086  24.064  0.00  0.00    +0.156 HD
BRANCH   9  22
ATOM     22  C   UNL     1      -2.523   3.256  24.764  0.00  0.00    +0.038 A 
ATOM     23  C   UNL     1      -3.831   2.778  24.689  0.00  0.00    +0.069 A 
ATOM     24  C   UNL     1      -2.204   4.279  25.658  0.00  0.00    +0.023 A 
ATOM     25  C   UNL     1      -4.820   3.323  25.507  0.00  0.00    +0.122 A 
ATOM     26  C   UNL     1      -3.194   4.823  26.476  0.00  0.00    +0.005 A 
ATOM     27  C   UNL     1      -4.503   4.345  26.400  0.00  0.00    +0.046 A 
BRANCH  25   5
ATOM      5  O   UNL     1      -6.098   2.857  25.433  0.00  0.00    -0.495 OA
ATOM     28  C   UNL     1      -6.280   1.539  24.919  0.00  0.00    +0.277 C 
ENDBRANCH  25   5
ENDBRANCH   9  22
ENDBRANCH  16   8
ENDBRANCH  11  16
BRANCH  13  19
ATOM     19  C   UNL     1       3.835   0.909  22.587  0.00  0.00    +0.190 C 
BRANCH  19   3
ATOM      3  O   UNL     1       4.691   0.834  23.716  0.00  0.00    -0.392 OA
ATOM     31  H   UNL     1       4.538  -0.030  24.135  0.00  0.00    +0.210 HD
ENDBRANCH  19   3
ENDBRANCH  13  19
TORSDOF 8
ENDMDL
MODEL 7
REMARK VINA RESULT:       4.2      2.077      4.040
REMARK  Name = 28961678
REMARK  10 active torsions:
REMARK  status: ('A' for Active; 'I' for Inactive)
REMARK    1  A    between atoms: O_2  and  C_12
REMARK    2  A    between atoms: O_3  and  C_19
REMARK    3  A    between atoms: O_5  and  C_25
REMARK    4  A    between atoms: O_5  and  C_28
REMARK    5  A    between atoms: N_6  and  C_10
REMARK    6  A    between atoms: N_7  and  C_20
REMARK    7  A    between atoms: N_8  and  C_16
REMARK    8  A    between atoms: N_9  and  C_22
REMARK    9  A    between atoms: C_11  and  C_16
REMARK   10  A    between atoms: C_13  and  C_19
REMARK                            x       y       z     vdW  Elec       q    Type
REMARK                         _______ _______ _______ _____ _____    ______ ____
ROOT
ATOM      1  O   UNL     1      -5.599   0.620  25.007  0.00  0.00    -0.365 OA
ATOM     10  C   UNL     1      -4.102   2.357  24.367  0.00  0.00    +0.118 C 
ATOM     11  C   UNL     1      -4.222   0.850  24.630  0.00  0.00    +0.155 C 
ATOM     12  C   UNL     1      -5.212   2.946  25.225  0.00  0.00    +0.165 C 
ATOM     13  C   UNL     1      -6.291   1.883  25.056  0.00  0.00    +0.174 C 
ENDROOT
BRANCH  10   6
ATOM      6  N   UNL     1      -2.779   2.945  24.569  0.00  0.00    -0.292 NA
ATOM      7  N   UNL     1      -0.793   5.010  24.184  0.00  0.00    -0.303 NA
ATOM     14  C   UNL     1      -2.074   3.095  23.290  0.00  0.00    +0.100 C 
ATOM     15  C   UNL     1      -2.882   4.239  25.254  0.00  0.00    +0.100 C 
ATOM     17  C   UNL     1      -0.688   3.715  23.500  0.00  0.00    +0.099 C 
ATOM     18  C   UNL     1      -1.496   4.858  25.464  0.00  0.00    +0.099 C 
ATOM     20  C   UNL     1       0.530   5.599  24.385  0.00  0.00    +0.105 C 
ENDBRANCH  10   6
BRANCH  12   2
ATOM      2  O   UNL     1      -4.820   3.042  26.589  0.00  0.00    -0.388 OA
ATOM     29  H   UNL     1      -3.848   3.057  26.616  0.00  0.00    +0.210 HD
ENDBRANCH  12   2
BRANCH  11  16
ATOM     16  C   UNL     1      -3.348   0.279  25.742  0.00  0.00    +0.139 C 
BRANCH  16   8
ATOM      4  O   UNL     1      -1.786  -0.499  23.470  0.00  0.00    -0.253 OA
ATOM      8  N   UNL     1      -1.966   0.574  25.512  0.00  0.00    -0.297 N 
ATOM      9  N   UNL     1       0.065   0.590  24.419  0.00  0.00    -0.269 N 
ATOM     21  C   UNL     1      -1.263   0.157  24.368  0.00  0.00    +0.304 C 
ATOM     30  H   UNL     1      -1.471   1.125  26.207  0.00  0.00    +0.150 HD
ATOM     32  H   UNL     1       0.340   1.125  25.238  0.00  0.00    +0.156 HD
BRANCH   9  22
ATOM     22  C   UNL     1       1.086   0.373  23.463  0.00  0.00    +0.038 A 
ATOM     23  C   UNL     1       2.378   0.839  23.705  0.00  0.00    +0.069 A 
ATOM     24  C   UNL     1       0.799  -0.307  22.279  0.00  0.00    +0.023 A 
ATOM     25  C   UNL     1       3.383   0.625  22.763  0.00  0.00    +0.122 A 
ATOM     26  C   UNL     1       1.805  -0.521  21.337  0.00  0.00    +0.005 A 
ATOM     27  C   UNL     1       3.098  -0.055  21.580  0.00  0.00    +0.046 A 
BRANCH  25   5
ATOM      5  O   UNL     1       4.645   1.080  22.998  0.00  0.00    -0.495 OA
ATOM     28  C   UNL     1       5.570   0.159  23.575  0.00  0.00    +0.277 C 
ENDBRANCH  25   5
ENDBRANCH   9  22
ENDBRANCH  16   8
ENDBRANCH  11  16
BRANCH  13  19
ATOM     19  C   UNL     1      -7.339   1.837  26.152  0.00  0.00    +0.190 C 
BRANCH  19   3
ATOM      3  O   UNL     1      -6.751   1.301  27.327  0.00  0.00    -0.392 OA
ATOM     31  H   UNL     1      -7.213   1.698  28.085  0.00  0.00    +0.210 HD
ENDBRANCH  19   3
ENDBRANCH  13  19
TORSDOF 8
ENDMDL
MODEL 8
REMARK VINA RESULT:       4.3      2.708      5.215
REMARK  Name = 28961678
REMARK  10 active torsions:
REMARK  status: ('A' for Active; 'I' for Inactive)
REMARK    1  A    between atoms: O_2  and  C_12
REMARK    2  A    between atoms: O_3  and  C_19
REMARK    3  A    between atoms: O_5  and  C_25
REMARK    4  A    between atoms: O_5  and  C_28
REMARK    5  A    between atoms: N_6  and  C_10
REMARK    6  A    between atoms: N_7  and  C_20
REMARK    7  A    between atoms: N_8  and  C_16
REMARK    8  A    between atoms: N_9  and  C_22
REMARK    9  A    between atoms: C_11  and  C_16
REMARK   10  A    between atoms: C_13  and  C_19
REMARK                            x       y       z     vdW  Elec       q    Type
REMARK                         _______ _______ _______ _____ _____    ______ ____
ROOT
ATOM      1  O   UNL     1      -5.047   4.558  24.720  0.00  0.00    -0.365 OA
ATOM     10  C   UNL     1      -2.809   4.492  25.528  0.00  0.00    +0.118 C 
ATOM     11  C   UNL     1      -3.678   4.720  24.284  0.00  0.00    +0.155 C 
ATOM     12  C   UNL     1      -3.680   3.597  26.397  0.00  0.00    +0.165 C 
ATOM     13  C   UNL     1      -5.057   4.183  26.111  0.00  0.00    +0.174 C 
ENDROOT
BRANCH  10   6
ATOM      6  N   UNL     1      -1.454   4.000  25.287  0.00  0.00    -0.292 NA
ATOM      7  N   UNL     1       0.445   2.108  24.204  0.00  0.00    -0.303 NA
ATOM     14  C   UNL     1      -1.262   2.680  25.898  0.00  0.00    +0.100 C 
ATOM     15  C   UNL     1      -1.166   3.948  23.849  0.00  0.00    +0.100 C 
ATOM     17  C   UNL     1       0.158   2.162  25.643  0.00  0.00    +0.099 C 
ATOM     18  C   UNL     1       0.254   3.430  23.595  0.00  0.00    +0.099 C 
ATOM     20  C   UNL     1       1.800   1.615  23.963  0.00  0.00    +0.105 C 
ENDBRANCH  10   6
BRANCH  12   2
ATOM      2  O   UNL     1      -3.620   2.241  25.973  0.00  0.00    -0.388 OA
ATOM     29  H   UNL     1      -3.425   1.697  26.754  0.00  0.00    +0.210 HD
ENDBRANCH  12   2
BRANCH  11  16
ATOM     16  C   UNL     1      -3.461   3.765  23.115  0.00  0.00    +0.139 C 
BRANCH  16   8
ATOM      4  O   UNL     1      -2.080   1.271  23.395  0.00  0.00    -0.253 OA
ATOM      8  N   UNL     1      -4.049   2.487  23.378  0.00  0.00    -0.297 N 
ATOM      9  N   UNL     1      -4.144   0.214  23.757  0.00  0.00    -0.269 N 
ATOM     21  C   UNL     1      -3.304   1.301  23.503  0.00  0.00    +0.304 C 
ATOM     30  H   UNL     1      -5.056   2.437  23.492  0.00  0.00    +0.150 HD
ATOM     32  H   UNL     1      -5.140   0.410  23.816  0.00  0.00    +0.156 HD
BRANCH   9  22
ATOM     22  C   UNL     1      -3.779  -1.141  23.945  0.00  0.00    +0.038 A 
ATOM     23  C   UNL     1      -2.524  -1.459  24.463  0.00  0.00    +0.069 A 
ATOM     24  C   UNL     1      -4.676  -2.156  23.613  0.00  0.00    +0.023 A 
ATOM     25  C   UNL     1      -2.165  -2.794  24.649  0.00  0.00    +0.122 A 
ATOM     26  C   UNL     1      -4.317  -3.491  23.799  0.00  0.00    +0.005 A 
ATOM     27  C   UNL     1      -3.061  -3.810  24.317  0.00  0.00    +0.046 A 
BRANCH  25   5
ATOM      5  O   UNL     1      -0.940  -3.106  25.155  0.00  0.00    -0.495 OA
ATOM     28  C   UNL     1      -0.035  -2.025  25.377  0.00  0.00    +0.277 C 
ENDBRANCH  25   5
ENDBRANCH   9  22
ENDBRANCH  16   8
ENDBRANCH  11  16
BRANCH  13  19
ATOM     19  C   UNL     1      -6.228   3.254  26.371  0.00  0.00    +0.190 C 
BRANCH  19   3
ATOM      3  O   UNL     1      -6.262   2.263  25.356  0.00  0.00    -0.392 OA
ATOM     31  H   UNL     1      -7.195   2.131  25.115  0.00  0.00    +0.210 HD
ENDBRANCH  19   3
ENDBRANCH  13  19
TORSDOF 8
ENDMDL
MODEL 9
REMARK VINA RESULT:       4.6      3.839      6.013
REMARK  Name = 28961678
REMARK  10 active torsions:
REMARK  status: ('A' for Active; 'I' for Inactive)
REMARK    1  A    between atoms: O_2  and  C_12
REMARK    2  A    between atoms: O_3  and  C_19
REMARK    3  A    between atoms: O_5  and  C_25
REMARK    4  A    between atoms: O_5  and  C_28
REMARK    5  A    between atoms: N_6  and  C_10
REMARK    6  A    between atoms: N_7  and  C_20
REMARK    7  A    between atoms: N_8  and  C_16
REMARK    8  A    between atoms: N_9  and  C_22
REMARK    9  A    between atoms: C_11  and  C_16
REMARK   10  A    between atoms: C_13  and  C_19
REMARK                            x       y       z     vdW  Elec       q    Type
REMARK                         _______ _______ _______ _____ _____    ______ ____
ROOT
ATOM      1  O   UNL     1      -1.383  -0.255  23.235  0.00  0.00    -0.365 OA
ATOM     10  C   UNL     1      -3.298   0.629  24.339  0.00  0.00    +0.118 C 
ATOM     11  C   UNL     1      -2.243   0.907  23.260  0.00  0.00    +0.155 C 
ATOM     12  C   UNL     1      -2.590  -0.343  25.270  0.00  0.00    +0.165 C 
ATOM     13  C   UNL     1      -1.803  -1.173  24.263  0.00  0.00    +0.174 C 
ENDROOT
BRANCH  10   6
ATOM      6  N   UNL     1      -3.882   1.802  24.987  0.00  0.00    -0.292 NA
ATOM      7  N   UNL     1      -5.791   3.966  25.160  0.00  0.00    -0.303 NA
ATOM     14  C   UNL     1      -3.773   2.984  24.125  0.00  0.00    +0.100 C 
ATOM     15  C   UNL     1      -5.284   1.555  25.346  0.00  0.00    +0.100 C 
ATOM     17  C   UNL     1      -4.389   4.213  24.803  0.00  0.00    +0.099 C 
ATOM     18  C   UNL     1      -5.899   2.784  26.024  0.00  0.00    +0.099 C 
ATOM     20  C   UNL     1      -6.377   5.138  25.808  0.00  0.00    +0.105 C 
ENDBRANCH  10   6
BRANCH  12   2
ATOM      2  O   UNL     1      -1.705   0.333  26.154  0.00  0.00    -0.388 OA
ATOM     29  H   UNL     1      -0.927  -0.235  26.284  0.00  0.00    +0.210 HD
ENDBRANCH  12   2
BRANCH  11  16
ATOM     16  C   UNL     1      -1.350   2.125  23.474  0.00  0.00    +0.139 C 
BRANCH  16   8
ATOM      4  O   UNL     1      -1.024   3.341  26.047  0.00  0.00    -0.253 OA
ATOM      8  N   UNL     1      -0.320   1.846  24.428  0.00  0.00    -0.297 N 
ATOM      9  N   UNL     1       0.879   2.011  26.391  0.00  0.00    -0.269 N 
ATOM     21  C   UNL     1      -0.224   2.485  25.677  0.00  0.00    +0.304 C 
ATOM     30  H   UNL     1       0.371   1.139  24.195  0.00  0.00    +0.150 HD
ATOM     32  H   UNL     1       1.445   1.298  25.938  0.00  0.00    +0.156 HD
BRANCH   9  22
ATOM     22  C   UNL     1       1.313   2.404  27.680  0.00  0.00    +0.038 A 
ATOM     23  C   UNL     1       0.419   2.389  28.750  0.00  0.00    +0.069 A 
ATOM     24  C   UNL     1       2.634   2.804  27.879  0.00  0.00    +0.023 A 
ATOM     25  C   UNL     1       0.847   2.775  30.021  0.00  0.00    +0.122 A 
ATOM     26  C   UNL     1       3.061   3.190  29.149  0.00  0.00    +0.005 A 
ATOM     27  C   UNL     1       2.167   3.175  30.221  0.00  0.00    +0.046 A 
BRANCH  25   5
ATOM      5  O   UNL     1      -0.025   2.761  31.066  0.00  0.00    -0.495 OA
ATOM     28  C   UNL     1       0.474   2.302  32.322  0.00  0.00    +0.277 C 
ENDBRANCH  25   5
ENDBRANCH   9  22
ENDBRANCH  16   8
ENDBRANCH  11  16
BRANCH  13  19
ATOM     19  C   UNL     1      -0.588  -1.892  24.818  0.00  0.00    +0.190 C 
BRANCH  19   3
ATOM      3  O   UNL     1       0.550  -1.060  24.660  0.00  0.00    -0.392 OA
ATOM     31  H   UNL     1       1.043  -1.391  23.890  0.00  0.00    +0.210 HD
ENDBRANCH  19   3
ENDBRANCH  13  19
TORSDOF 8
ENDMDL
MODEL 10
REMARK VINA RESULT:       4.7      2.251      4.304
REMARK  Name = 28961678
REMARK  10 active torsions:
REMARK  status: ('A' for Active; 'I' for Inactive)
REMARK    1  A    between atoms: O_2  and  C_12
REMARK    2  A    between atoms: O_3  and  C_19
REMARK    3  A    between atoms: O_5  and  C_25
REMARK    4  A    between atoms: O_5  and  C_28
REMARK    5  A    between atoms: N_6  and  C_10
REMARK    6  A    between atoms: N_7  and  C_20
REMARK    7  A    between atoms: N_8  and  C_16
REMARK    8  A    between atoms: N_9  and  C_22
REMARK    9  A    between atoms: C_11  and  C_16
REMARK   10  A    between atoms: C_13  and  C_19
REMARK                            x       y       z     vdW  Elec       q    Type
REMARK                         _______ _______ _______ _____ _____    ______ ____
ROOT
ATOM      1  O   UNL     1      -2.260  -1.066  23.595  0.00  0.00    -0.365 OA
ATOM     10  C   UNL     1      -3.190   0.641  24.970  0.00  0.00    +0.118 C 
ATOM     11  C   UNL     1      -2.774   0.284  23.537  0.00  0.00    +0.155 C 
ATOM     12  C   UNL     1      -2.300  -0.255  25.819  0.00  0.00    +0.165 C 
ATOM     13  C   UNL     1      -2.273  -1.516  24.964  0.00  0.00    +0.174 C 
ENDROOT
BRANCH  10   6
ATOM      6  N   UNL     1      -3.160   2.060  25.317  0.00  0.00    -0.292 NA
ATOM      7  N   UNL     1      -2.321   4.795  24.901  0.00  0.00    -0.303 NA
ATOM     14  C   UNL     1      -1.792   2.493  25.627  0.00  0.00    +0.100 C 
ATOM     15  C   UNL     1      -3.723   2.874  24.232  0.00  0.00    +0.100 C 
ATOM     17  C   UNL     1      -1.759   3.982  25.987  0.00  0.00    +0.099 C 
ATOM     18  C   UNL     1      -3.690   4.363  24.593  0.00  0.00    +0.099 C 
ATOM     20  C   UNL     1      -2.290   6.216  25.247  0.00  0.00    +0.105 C 
ENDBRANCH  10   6
BRANCH  12   2
ATOM      2  O   UNL     1      -0.991   0.285  25.948  0.00  0.00    -0.388 OA
ATOM     29  H   UNL     1      -0.519  -0.244  26.614  0.00  0.00    +0.210 HD
ENDBRANCH  12   2
BRANCH  11  16
ATOM     16  C   UNL     1      -1.692   1.152  22.903  0.00  0.00    +0.139 C 
BRANCH  16   8
ATOM      4  O   UNL     1       0.861   1.350  24.187  0.00  0.00    -0.253 OA
ATOM      8  N   UNL     1      -0.523   0.382  22.605  0.00  0.00    -0.297 N 
ATOM      9  N   UNL     1       1.658  -0.349  22.776  0.00  0.00    -0.269 N 
ATOM     21  C   UNL     1       0.700   0.535  23.281  0.00  0.00    +0.304 C 
ATOM     30  H   UNL     1      -0.585  -0.321  21.876  0.00  0.00    +0.150 HD
ATOM     32  H   UNL     1       1.361  -0.960  22.021  0.00  0.00    +0.156 HD
BRANCH   9  22
ATOM     22  C   UNL     1       3.003  -0.500  23.190  0.00  0.00    +0.038 A 
ATOM     23  C   UNL     1       3.870   0.591  23.155  0.00  0.00    +0.069 A 
ATOM     24  C   UNL     1       3.460  -1.742  23.633  0.00  0.00    +0.023 A 
ATOM     25  C   UNL     1       5.195   0.441  23.563  0.00  0.00    +0.122 A 
ATOM     26  C   UNL     1       4.785  -1.891  24.041  0.00  0.00    +0.005 A 
ATOM     27  C   UNL     1       5.653  -0.799  24.007  0.00  0.00    +0.046 A 
BRANCH  25   5
ATOM      5  O   UNL     1       6.043   1.506  23.529  0.00  0.00    -0.495 OA
ATOM     28  C   UNL     1       7.399   1.269  23.906  0.00  0.00    +0.277 C 
ENDBRANCH  25   5
ENDBRANCH   9  22
ENDBRANCH  16   8
ENDBRANCH  11  16
BRANCH  13  19
ATOM     19  C   UNL     1      -1.092  -2.438  25.199  0.00  0.00    +0.190 C 
BRANCH  19   3
ATOM      3  O   UNL     1       0.100  -1.759  24.838  0.00  0.00    -0.392 OA
ATOM     31  H   UNL     1       0.513  -1.447  25.661  0.00  0.00    +0.210 HD
ENDBRANCH  19   3
ENDBRANCH  13  19
TORSDOF 8
ENDMDL
