MODEL 1
REMARK VINA RESULT:       1.3      0.000      0.000
REMARK  Name = 28990957
REMARK  10 active torsions:
REMARK  status: ('A' for Active; 'I' for Inactive)
REMARK    1  A    between atoms: N_3  and  C_19
REMARK    2  A    between atoms: N_4  and  C_14
REMARK    3  A    between atoms: N_4  and  C_18
REMARK    4  A    between atoms: N_6  and  C_29
REMARK    5  A    between atoms: N_6  and  C_30
REMARK    6  A    between atoms: N_6  and  C_31
REMARK    7  A    between atoms: C_8  and  C_15
REMARK    8  A    between atoms: C_9  and  C_14
REMARK    9  A    between atoms: C_17  and  C_20
REMARK   10  A    between atoms: C_18  and  C_21
REMARK                            x       y       z     vdW  Elec       q    Type
REMARK                         _______ _______ _______ _____ _____    ______ ____
ROOT
ATOM      2  N   UNL     1      -3.855  -1.355  25.836  0.00  0.00    -0.298 NA
ATOM      7  C   UNL     1      -2.549  -2.421  23.851  0.00  0.00    +0.002 C 
ATOM      8  C   UNL     1      -1.564  -1.782  24.869  0.00  0.00    +0.055 C 
ATOM      9  C   UNL     1      -4.430  -0.896  24.543  0.00  0.00    +0.071 C 
ATOM     10  C   UNL     1      -3.545  -1.349  23.362  0.00  0.00    +0.024 C 
ATOM     11  C   UNL     1      -3.364  -3.479  24.624  0.00  0.00    +0.019 C 
ATOM     12  C   UNL     1      -2.417  -0.998  25.908  0.00  0.00    +0.094 C 
ATOM     13  C   UNL     1      -3.968  -2.833  25.883  0.00  0.00    +0.085 C 
ENDROOT
BRANCH   8  15
ATOM      3  N   UNL     1      -0.564   0.310  23.839  0.00  0.00    -0.270 N 
ATOM      5  N   UNL     1       0.579   0.871  23.407  0.00  0.00    -0.171 NA
ATOM     15  C   UNL     1      -0.408  -0.953  24.328  0.00  0.00    +0.044 A 
ATOM     16  C   UNL     1       0.929  -1.239  24.208  0.00  0.00    +0.053 A 
ATOM     17  C   UNL     1       1.488  -0.081  23.636  0.00  0.00    +0.100 A 
ATOM     19  C   UNL     1      -1.795   1.062  23.750  0.00  0.00    +0.172 C 
BRANCH  17  20
ATOM      1  S   UNL     1       4.136  -1.018  23.707  0.00  0.00    -0.095 S 
ATOM     20  C   UNL     1       2.912   0.111  23.307  0.00  0.00    +0.039 A 
ATOM     22  C   UNL     1       3.417   1.210  22.648  0.00  0.00    +0.018 A 
ATOM     25  C   UNL     1       4.828   1.122  22.467  0.00  0.00    +0.008 A 
ATOM     26  C   UNL     1       5.347  -0.038  22.996  0.00  0.00    +0.046 A 
ENDBRANCH  17  20
ENDBRANCH   8  15
BRANCH   9  14
ATOM     14  C   UNL     1      -4.681   0.614  24.522  0.00  0.00    +0.100 C 
BRANCH  14   4
ATOM      4  N   UNL     1      -6.010   0.922  25.024  0.00  0.00    -0.311 NA
ATOM     32  H   UNL     1      -6.194   0.372  25.863  0.00  0.00    +0.122 HD
BRANCH   4  18
ATOM     18  C   UNL     1      -6.139   2.341  25.329  0.00  0.00    +0.116 C 
BRANCH  18  21
ATOM     21  C   UNL     1      -4.821   3.061  25.214  0.00  0.00    -0.033 A 
ATOM     23  C   UNL     1      -4.073   3.332  26.361  0.00  0.00    +0.007 A 
ATOM     24  C   UNL     1      -4.348   3.457  23.963  0.00  0.00    +0.007 A 
ATOM     27  C   UNL     1      -2.852   3.998  26.256  0.00  0.00    +0.023 A 
ATOM     28  C   UNL     1      -3.127   4.124  23.858  0.00  0.00    +0.023 A 
ATOM     29  C   UNL     1      -2.380   4.394  25.004  0.00  0.00    +0.029 A 
BRANCH  29   6
ATOM      6  N   UNL     1      -1.146   5.068  24.897  0.00  0.00    -0.336 N 
ATOM     30  C   UNL     1       0.093   4.321  24.800  0.00  0.00    +0.129 C 
ATOM     31  C   UNL     1      -1.099   6.517  24.876  0.00  0.00    +0.129 C 
ENDBRANCH  29   6
ENDBRANCH  18  21
ENDBRANCH   4  18
ENDBRANCH  14   4
ENDBRANCH   9  14
TORSDOF 7
ENDMDL
MODEL 2
REMARK VINA RESULT:       2.2      2.635      5.553
REMARK  Name = 28990957
REMARK  10 active torsions:
REMARK  status: ('A' for Active; 'I' for Inactive)
REMARK    1  A    between atoms: N_3  and  C_19
REMARK    2  A    between atoms: N_4  and  C_14
REMARK    3  A    between atoms: N_4  and  C_18
REMARK    4  A    between atoms: N_6  and  C_29
REMARK    5  A    between atoms: N_6  and  C_30
REMARK    6  A    between atoms: N_6  and  C_31
REMARK    7  A    between atoms: C_8  and  C_15
REMARK    8  A    between atoms: C_9  and  C_14
REMARK    9  A    between atoms: C_17  and  C_20
REMARK   10  A    between atoms: C_18  and  C_21
REMARK                            x       y       z     vdW  Elec       q    Type
REMARK                         _______ _______ _______ _____ _____    ______ ____
ROOT
ATOM      2  N   UNL     1      -4.423   2.205  23.655  0.00  0.00    -0.298 NA
ATOM      7  C   UNL     1      -4.089   3.454  25.915  0.00  0.00    +0.002 C 
ATOM      8  C   UNL     1      -2.802   3.544  25.049  0.00  0.00    +0.055 C 
ATOM      9  C   UNL     1      -4.836   1.331  24.784  0.00  0.00    +0.071 C 
ATOM     10  C   UNL     1      -4.453   1.971  26.136  0.00  0.00    +0.024 C 
ATOM     11  C   UNL     1      -5.229   4.083  25.086  0.00  0.00    +0.019 C 
ATOM     12  C   UNL     1      -3.007   2.614  23.819  0.00  0.00    +0.094 C 
ATOM     13  C   UNL     1      -5.265   3.426  23.694  0.00  0.00    +0.085 C 
ENDROOT
BRANCH   8  15
ATOM      3  N   UNL     1      -0.272   3.346  25.061  0.00  0.00    -0.270 N 
ATOM      5  N   UNL     1       0.797   3.118  25.842  0.00  0.00    -0.171 NA
ATOM     15  C   UNL     1      -1.460   3.315  25.730  0.00  0.00    +0.044 A 
ATOM     16  C   UNL     1      -1.146   3.049  27.039  0.00  0.00    +0.053 A 
ATOM     17  C   UNL     1       0.257   2.937  27.050  0.00  0.00    +0.100 A 
ATOM     19  C   UNL     1      -0.075   3.592  23.650  0.00  0.00    +0.172 C 
BRANCH  17  20
ATOM      1  S   UNL     1       2.787   2.842  28.269  0.00  0.00    -0.095 S 
ATOM     20  C   UNL     1       1.085   2.655  28.236  0.00  0.00    +0.039 A 
ATOM     22  C   UNL     1       0.590   2.212  29.443  0.00  0.00    +0.018 A 
ATOM     25  C   UNL     1       1.623   2.024  30.407  0.00  0.00    +0.008 A 
ATOM     26  C   UNL     1       2.866   2.330  29.901  0.00  0.00    +0.046 A 
ENDBRANCH  17  20
ENDBRANCH   8  15
BRANCH   9  14
ATOM     14  C   UNL     1      -4.286  -0.091  24.650  0.00  0.00    +0.100 C 
BRANCH  14   4
ATOM      4  N   UNL     1      -4.243  -0.751  25.945  0.00  0.00    -0.311 NA
ATOM     32  H   UNL     1      -5.133  -1.217  26.119  0.00  0.00    +0.122 HD
BRANCH   4  18
ATOM     18  C   UNL     1      -3.160  -1.724  26.000  0.00  0.00    +0.116 C 
BRANCH  18  21
ATOM     21  C   UNL     1      -1.987  -1.306  25.155  0.00  0.00    -0.033 A 
ATOM     23  C   UNL     1      -1.644  -2.047  24.023  0.00  0.00    +0.007 A 
ATOM     24  C   UNL     1      -1.241  -0.179  25.503  0.00  0.00    +0.007 A 
ATOM     27  C   UNL     1      -0.557  -1.660  23.239  0.00  0.00    +0.023 A 
ATOM     28  C   UNL     1      -0.154   0.208  24.720  0.00  0.00    +0.023 A 
ATOM     29  C   UNL     1       0.188  -0.532  23.588  0.00  0.00    +0.029 A 
BRANCH  29   6
ATOM      6  N   UNL     1       1.287  -0.141  22.796  0.00  0.00    -0.336 N 
ATOM     30  C   UNL     1       1.401  -0.593  21.423  0.00  0.00    +0.129 C 
ATOM     31  C   UNL     1       2.315   0.724  23.341  0.00  0.00    +0.129 C 
ENDBRANCH  29   6
ENDBRANCH  18  21
ENDBRANCH   4  18
ENDBRANCH  14   4
ENDBRANCH   9  14
TORSDOF 7
ENDMDL
MODEL 3
REMARK VINA RESULT:       2.4      1.361      5.061
REMARK  Name = 28990957
REMARK  10 active torsions:
REMARK  status: ('A' for Active; 'I' for Inactive)
REMARK    1  A    between atoms: N_3  and  C_19
REMARK    2  A    between atoms: N_4  and  C_14
REMARK    3  A    between atoms: N_4  and  C_18
REMARK    4  A    between atoms: N_6  and  C_29
REMARK    5  A    between atoms: N_6  and  C_30
REMARK    6  A    between atoms: N_6  and  C_31
REMARK    7  A    between atoms: C_8  and  C_15
REMARK    8  A    between atoms: C_9  and  C_14
REMARK    9  A    between atoms: C_17  and  C_20
REMARK   10  A    between atoms: C_18  and  C_21
REMARK                            x       y       z     vdW  Elec       q    Type
REMARK                         _______ _______ _______ _____ _____    ______ ____
ROOT
ATOM      2  N   UNL     1      -3.220   4.145  24.311  0.00  0.00    -0.298 NA
ATOM      7  C   UNL     1      -0.781   4.397  25.188  0.00  0.00    +0.002 C 
ATOM      8  C   UNL     1      -0.793   3.669  23.815  0.00  0.00    +0.055 C 
ATOM      9  C   UNL     1      -3.134   3.672  25.718  0.00  0.00    +0.071 C 
ATOM     10  C   UNL     1      -1.664   3.619  26.186  0.00  0.00    +0.024 C 
ATOM     11  C   UNL     1      -1.448   5.772  24.968  0.00  0.00    +0.019 C 
ATOM     12  C   UNL     1      -2.279   3.378  23.458  0.00  0.00    +0.094 C 
ATOM     13  C   UNL     1      -2.812   5.571  24.285  0.00  0.00    +0.085 C 
ENDROOT
BRANCH   8  15
ATOM      3  N   UNL     1      -0.400   1.202  23.370  0.00  0.00    -0.270 N 
ATOM      5  N   UNL     1       0.545   0.254  23.258  0.00  0.00    -0.171 NA
ATOM     15  C   UNL     1       0.093   2.443  23.644  0.00  0.00    +0.044 A 
ATOM     16  C   UNL     1       1.456   2.298  23.716  0.00  0.00    +0.053 A 
ATOM     17  C   UNL     1       1.678   0.929  23.471  0.00  0.00    +0.100 A 
ATOM     19  C   UNL     1      -1.788   0.837  23.197  0.00  0.00    +0.172 C 
BRANCH  17  20
ATOM      1  S   UNL     1       3.228  -1.391  23.799  0.00  0.00    -0.095 S 
ATOM     20  C   UNL     1       2.994   0.267  23.440  0.00  0.00    +0.039 A 
ATOM     22  C   UNL     1       4.176   0.899  23.122  0.00  0.00    +0.018 A 
ATOM     25  C   UNL     1       5.288   0.009  23.174  0.00  0.00    +0.008 A 
ATOM     26  C   UNL     1       4.914  -1.267  23.529  0.00  0.00    +0.046 A 
ENDBRANCH  17  20
ENDBRANCH   8  15
BRANCH   9  14
ATOM     14  C   UNL     1      -3.848   2.335  25.926  0.00  0.00    +0.100 C 
BRANCH  14   4
ATOM      4  N   UNL     1      -5.282   2.481  25.739  0.00  0.00    -0.311 NA
ATOM     32  H   UNL     1      -5.461   3.140  24.982  0.00  0.00    +0.122 HD
BRANCH   4  18
ATOM     18  C   UNL     1      -5.904   1.199  25.432  0.00  0.00    +0.116 C 
BRANCH  18  21
ATOM     21  C   UNL     1      -4.880   0.133  25.151  0.00  0.00    -0.033 A 
ATOM     23  C   UNL     1      -4.882  -0.528  23.922  0.00  0.00    +0.007 A 
ATOM     24  C   UNL     1      -3.929  -0.196  26.118  0.00  0.00    +0.007 A 
ATOM     27  C   UNL     1      -3.933  -1.517  23.660  0.00  0.00    +0.023 A 
ATOM     28  C   UNL     1      -2.981  -1.185  25.856  0.00  0.00    +0.023 A 
ATOM     29  C   UNL     1      -2.983  -1.844  24.628  0.00  0.00    +0.029 A 
BRANCH  29   6
ATOM      6  N   UNL     1      -2.023  -2.844  24.363  0.00  0.00    -0.336 N 
ATOM     30  C   UNL     1      -2.328  -3.933  23.456  0.00  0.00    +0.129 C 
ATOM     31  C   UNL     1      -0.717  -2.792  24.990  0.00  0.00    +0.129 C 
ENDBRANCH  29   6
ENDBRANCH  18  21
ENDBRANCH   4  18
ENDBRANCH  14   4
ENDBRANCH   9  14
TORSDOF 7
ENDMDL
MODEL 4
REMARK VINA RESULT:       3.3      2.077      6.554
REMARK  Name = 28990957
REMARK  10 active torsions:
REMARK  status: ('A' for Active; 'I' for Inactive)
REMARK    1  A    between atoms: N_3  and  C_19
REMARK    2  A    between atoms: N_4  and  C_14
REMARK    3  A    between atoms: N_4  and  C_18
REMARK    4  A    between atoms: N_6  and  C_29
REMARK    5  A    between atoms: N_6  and  C_30
REMARK    6  A    between atoms: N_6  and  C_31
REMARK    7  A    between atoms: C_8  and  C_15
REMARK    8  A    between atoms: C_9  and  C_14
REMARK    9  A    between atoms: C_17  and  C_20
REMARK   10  A    between atoms: C_18  and  C_21
REMARK                            x       y       z     vdW  Elec       q    Type
REMARK                         _______ _______ _______ _____ _____    ______ ____
ROOT
ATOM      2  N   UNL     1      -2.923  -2.597  23.867  0.00  0.00    -0.298 NA
ATOM      7  C   UNL     1      -3.077  -1.411  26.180  0.00  0.00    +0.002 C 
ATOM      8  C   UNL     1      -3.871  -0.615  25.107  0.00  0.00    +0.055 C 
ATOM      9  C   UNL     1      -1.565  -2.447  24.454  0.00  0.00    +0.071 C 
ATOM     10  C   UNL     1      -1.613  -1.567  25.721  0.00  0.00    +0.024 C 
ATOM     11  C   UNL     1      -3.691  -2.827  26.229  0.00  0.00    +0.019 C 
ATOM     12  C   UNL     1      -3.566  -1.267  23.728  0.00  0.00    +0.094 C 
ATOM     13  C   UNL     1      -3.736  -3.409  24.805  0.00  0.00    +0.085 C 
ENDROOT
BRANCH   8  15
ATOM      3  N   UNL     1      -4.779   1.755  25.131  0.00  0.00    -0.270 N 
ATOM      5  N   UNL     1      -4.433   3.052  25.090  0.00  0.00    -0.171 NA
ATOM     15  C   UNL     1      -3.718   0.899  25.077  0.00  0.00    +0.044 A 
ATOM     16  C   UNL     1      -2.600   1.692  24.996  0.00  0.00    +0.053 A 
ATOM     17  C   UNL     1      -3.100   3.008  25.008  0.00  0.00    +0.100 A 
ATOM     19  C   UNL     1      -6.177   1.400  25.224  0.00  0.00    +0.172 C 
BRANCH  17  20
ATOM      1  S   UNL     1      -0.606   4.237  24.609  0.00  0.00    -0.095 S 
ATOM     20  C   UNL     1      -2.286   4.235  24.940  0.00  0.00    +0.039 A 
ATOM     22  C   UNL     1      -2.777   5.506  25.134  0.00  0.00    +0.018 A 
ATOM     25  C   UNL     1      -1.760   6.497  25.008  0.00  0.00    +0.008 A 
ATOM     26  C   UNL     1      -0.531   5.944  24.724  0.00  0.00    +0.046 A 
ENDBRANCH  17  20
ENDBRANCH   8  15
BRANCH   9  14
ATOM     14  C   UNL     1      -0.545  -1.929  23.437  0.00  0.00    +0.100 C 
BRANCH  14   4
ATOM      4  N   UNL     1       0.044  -0.679  23.890  0.00  0.00    -0.311 NA
ATOM     32  H   UNL     1       0.720  -0.869  24.629  0.00  0.00    +0.122 HD
BRANCH   4  18
ATOM     18  C   UNL     1       0.699   0.019  22.791  0.00  0.00    +0.116 C 
BRANCH  18  21
ATOM     21  C   UNL     1       2.197   0.019  22.941  0.00  0.00    -0.033 A 
ATOM     23  C   UNL     1       2.853  -1.129  23.388  0.00  0.00    +0.007 A 
ATOM     24  C   UNL     1       2.930   1.165  22.634  0.00  0.00    +0.007 A 
ATOM     27  C   UNL     1       4.241  -1.131  23.526  0.00  0.00    +0.023 A 
ATOM     28  C   UNL     1       4.318   1.165  22.773  0.00  0.00    +0.023 A 
ATOM     29  C   UNL     1       4.973   0.017  23.219  0.00  0.00    +0.029 A 
BRANCH  29   6
ATOM      6  N   UNL     1       6.376   0.016  23.360  0.00  0.00    -0.336 N 
ATOM     30  C   UNL     1       7.037   1.044  24.140  0.00  0.00    +0.129 C 
ATOM     31  C   UNL     1       7.177  -1.018  22.732  0.00  0.00    +0.129 C 
ENDBRANCH  29   6
ENDBRANCH  18  21
ENDBRANCH   4  18
ENDBRANCH  14   4
ENDBRANCH   9  14
TORSDOF 7
ENDMDL
MODEL 5
REMARK VINA RESULT:       3.9      2.665      5.658
REMARK  Name = 28990957
REMARK  10 active torsions:
REMARK  status: ('A' for Active; 'I' for Inactive)
REMARK    1  A    between atoms: N_3  and  C_19
REMARK    2  A    between atoms: N_4  and  C_14
REMARK    3  A    between atoms: N_4  and  C_18
REMARK    4  A    between atoms: N_6  and  C_29
REMARK    5  A    between atoms: N_6  and  C_30
REMARK    6  A    between atoms: N_6  and  C_31
REMARK    7  A    between atoms: C_8  and  C_15
REMARK    8  A    between atoms: C_9  and  C_14
REMARK    9  A    between atoms: C_17  and  C_20
REMARK   10  A    between atoms: C_18  and  C_21
REMARK                            x       y       z     vdW  Elec       q    Type
REMARK                         _______ _______ _______ _____ _____    ______ ____
ROOT
ATOM      2  N   UNL     1      -4.299   3.105  23.558  0.00  0.00    -0.298 NA
ATOM      7  C   UNL     1      -2.906   4.901  24.829  0.00  0.00    +0.002 C 
ATOM      8  C   UNL     1      -1.981   3.768  24.303  0.00  0.00    +0.055 C 
ATOM      9  C   UNL     1      -4.918   3.388  24.880  0.00  0.00    +0.071 C 
ATOM     10  C   UNL     1      -3.999   4.291  25.730  0.00  0.00    +0.024 C 
ATOM     11  C   UNL     1      -3.616   5.504  23.598  0.00  0.00    +0.019 C 
ATOM     12  C   UNL     1      -2.900   2.646  23.740  0.00  0.00    +0.094 C 
ATOM     13  C   UNL     1      -4.273   4.372  22.788  0.00  0.00    +0.085 C 
ENDROOT
BRANCH   8  15
ATOM      3  N   UNL     1       0.095   2.403  24.817  0.00  0.00    -0.270 N 
ATOM      5  N   UNL     1       0.938   2.031  25.795  0.00  0.00    -0.171 NA
ATOM     15  C   UNL     1      -0.909   3.224  25.236  0.00  0.00    +0.044 A 
ATOM     16  C   UNL     1      -0.710   3.403  26.583  0.00  0.00    +0.053 A 
ATOM     17  C   UNL     1       0.442   2.646  26.872  0.00  0.00    +0.100 A 
ATOM     19  C   UNL     1       0.319   1.921  23.473  0.00  0.00    +0.172 C 
BRANCH  17  20
ATOM      1  S   UNL     1       2.754   2.667  28.468  0.00  0.00    -0.095 S 
ATOM     20  C   UNL     1       1.069   2.514  28.199  0.00  0.00    +0.039 A 
ATOM     22  C   UNL     1       0.381   2.256  29.363  0.00  0.00    +0.018 A 
ATOM     25  C   UNL     1       1.248   2.183  30.492  0.00  0.00    +0.008 A 
ATOM     26  C   UNL     1       2.565   2.387  30.147  0.00  0.00    +0.046 A 
ENDBRANCH  17  20
ENDBRANCH   8  15
BRANCH   9  14
ATOM     14  C   UNL     1      -5.309   2.109  25.624  0.00  0.00    +0.100 C 
BRANCH  14   4
ATOM      4  N   UNL     1      -5.960   1.168  24.727  0.00  0.00    -0.311 NA
ATOM     32  H   UNL     1      -5.622   1.315  23.776  0.00  0.00    +0.122 HD
BRANCH   4  18
ATOM     18  C   UNL     1      -5.702  -0.207  25.133  0.00  0.00    +0.116 C 
BRANCH  18  21
ATOM     21  C   UNL     1      -4.247  -0.568  24.998  0.00  0.00    -0.033 A 
ATOM     23  C   UNL     1      -3.305  -0.002  25.859  0.00  0.00    +0.007 A 
ATOM     24  C   UNL     1      -3.839  -1.468  24.013  0.00  0.00    +0.007 A 
ATOM     27  C   UNL     1      -1.957  -0.337  25.735  0.00  0.00    +0.023 A 
ATOM     28  C   UNL     1      -2.490  -1.803  23.889  0.00  0.00    +0.023 A 
ATOM     29  C   UNL     1      -1.550  -1.237  24.750  0.00  0.00    +0.029 A 
BRANCH  29   6
ATOM      6  N   UNL     1      -0.187  -1.575  24.624  0.00  0.00    -0.336 N 
ATOM     30  C   UNL     1       0.624  -0.981  23.579  0.00  0.00    +0.129 C 
ATOM     31  C   UNL     1       0.425  -2.517  25.542  0.00  0.00    +0.129 C 
ENDBRANCH  29   6
ENDBRANCH  18  21
ENDBRANCH   4  18
ENDBRANCH  14   4
ENDBRANCH   9  14
TORSDOF 7
ENDMDL
MODEL 6
REMARK VINA RESULT:       4.2      2.384      4.130
REMARK  Name = 28990957
REMARK  10 active torsions:
REMARK  status: ('A' for Active; 'I' for Inactive)
REMARK    1  A    between atoms: N_3  and  C_19
REMARK    2  A    between atoms: N_4  and  C_14
REMARK    3  A    between atoms: N_4  and  C_18
REMARK    4  A    between atoms: N_6  and  C_29
REMARK    5  A    between atoms: N_6  and  C_30
REMARK    6  A    between atoms: N_6  and  C_31
REMARK    7  A    between atoms: C_8  and  C_15
REMARK    8  A    between atoms: C_9  and  C_14
REMARK    9  A    between atoms: C_17  and  C_20
REMARK   10  A    between atoms: C_18  and  C_21
REMARK                            x       y       z     vdW  Elec       q    Type
REMARK                         _______ _______ _______ _____ _____    ______ ____
ROOT
ATOM      2  N   UNL     1      -5.202   2.342  26.252  0.00  0.00    -0.298 NA
ATOM      7  C   UNL     1      -5.035   1.373  23.840  0.00  0.00    +0.002 C 
ATOM      8  C   UNL     1      -4.230   0.493  24.838  0.00  0.00    +0.055 C 
ATOM      9  C   UNL     1      -4.819   3.417  25.297  0.00  0.00    +0.071 C 
ATOM     10  C   UNL     1      -4.514   2.824  23.905  0.00  0.00    +0.024 C 
ATOM     11  C   UNL     1      -6.495   1.392  24.342  0.00  0.00    +0.019 C 
ATOM     12  C   UNL     1      -4.210   1.240  26.202  0.00  0.00    +0.094 C 
ATOM     13  C   UNL     1      -6.516   1.802  25.825  0.00  0.00    +0.085 C 
ENDROOT
BRANCH   8  15
ATOM      3  N   UNL     1      -2.444  -1.282  24.529  0.00  0.00    -0.270 N 
ATOM      5  N   UNL     1      -1.186  -1.498  24.107  0.00  0.00    -0.171 NA
ATOM     15  C   UNL     1      -2.847   0.016  24.420  0.00  0.00    +0.044 A 
ATOM     16  C   UNL     1      -1.779   0.697  23.890  0.00  0.00    +0.053 A 
ATOM     17  C   UNL     1      -0.785  -0.285  23.718  0.00  0.00    +0.100 A 
ATOM     19  C   UNL     1      -3.218  -2.393  25.034  0.00  0.00    +0.172 C 
BRANCH  17  20
ATOM      1  S   UNL     1       1.133  -0.759  21.720  0.00  0.00    -0.095 S 
ATOM     20  C   UNL     1       0.564  -0.052  23.172  0.00  0.00    +0.039 A 
ATOM     22  C   UNL     1       1.514   0.753  23.761  0.00  0.00    +0.018 A 
ATOM     25  C   UNL     1       2.724   0.791  23.010  0.00  0.00    +0.008 A 
ATOM     26  C   UNL     1       2.653   0.013  21.876  0.00  0.00    +0.046 A 
ENDBRANCH  17  20
ENDBRANCH   8  15
BRANCH   9  14
ATOM     14  C   UNL     1      -3.664   4.274  25.819  0.00  0.00    +0.100 C 
BRANCH  14   4
ATOM      4  N   UNL     1      -2.735   4.593  24.747  0.00  0.00    -0.311 NA
ATOM     32  H   UNL     1      -2.203   5.427  24.995  0.00  0.00    +0.122 HD
BRANCH   4  18
ATOM     18  C   UNL     1      -1.822   3.484  24.498  0.00  0.00    +0.116 C 
BRANCH  18  21
ATOM     21  C   UNL     1      -0.900   3.245  25.664  0.00  0.00    -0.033 A 
ATOM     23  C   UNL     1      -1.426   3.069  26.944  0.00  0.00    +0.007 A 
ATOM     24  C   UNL     1       0.480   3.197  25.465  0.00  0.00    +0.007 A 
ATOM     27  C   UNL     1      -0.572   2.846  28.025  0.00  0.00    +0.023 A 
ATOM     28  C   UNL     1       1.334   2.975  26.545  0.00  0.00    +0.023 A 
ATOM     29  C   UNL     1       0.808   2.800  27.824  0.00  0.00    +0.029 A 
BRANCH  29   6
ATOM      6  N   UNL     1       1.671   2.575  28.917  0.00  0.00    -0.336 N 
ATOM     30  C   UNL     1       1.142   2.141  30.194  0.00  0.00    +0.129 C 
ATOM     31  C   UNL     1       3.101   2.768  28.774  0.00  0.00    +0.129 C 
ENDBRANCH  29   6
ENDBRANCH  18  21
ENDBRANCH   4  18
ENDBRANCH  14   4
ENDBRANCH   9  14
TORSDOF 7
ENDMDL
