MODEL 1
REMARK VINA RESULT:       2.0      0.000      0.000
REMARK  Name = 11886249
REMARK  6 active torsions:
REMARK  status: ('A' for Active; 'I' for Inactive)
REMARK    1  A    between atoms: O_3  and  C_19
REMARK    2  A    between atoms: O_3  and  C_24
REMARK    3  A    between atoms: N_5  and  C_15
REMARK    4  A    between atoms: N_6  and  C_16
REMARK    5  A    between atoms: N_10  and  C_32
REMARK    6  A    between atoms: C_20  and  C_21
REMARK                            x       y       z     vdW  Elec       q    Type
REMARK                         _______ _______ _______ _____ _____    ______ ____
ROOT
ATOM      1  O   UNL     1      -3.329  -1.050  23.218  0.00  0.00    -0.370 OA
ATOM      2  O   UNL     1      -2.038  -0.745  26.044  0.00  0.00    -0.370 OA
ATOM     13  C   UNL     1      -2.386   0.199  25.015  0.00  0.00    +0.176 C 
ATOM     14  C   UNL     1      -2.098  -0.470  23.685  0.00  0.00    +0.171 C 
ATOM     15  C   UNL     1      -3.886   0.425  25.013  0.00  0.00    +0.171 C 
ATOM     16  C   UNL     1      -1.101  -1.557  24.020  0.00  0.00    +0.130 C 
ATOM     17  C   UNL     1      -4.397  -0.688  24.105  0.00  0.00    +0.190 C 
ATOM     18  C   UNL     1      -1.512  -1.933  25.433  0.00  0.00    +0.185 C 
ENDROOT
BRANCH  15   5
ATOM      5  N   UNL     1      -4.248   1.784  24.600  0.00  0.00    -0.187 N 
ATOM      7  N   UNL     1      -5.516   2.200  24.647  0.00  0.00    -0.041 NA
ATOM      8  N   UNL     1      -4.190   3.824  23.890  0.00  0.00    -0.071 NA
ATOM      9  N   UNL     1      -5.477   3.453  24.211  0.00  0.00    -0.020 NA
ATOM     19  C   UNL     1      -3.445   2.772  24.142  0.00  0.00    +0.342 A 
BRANCH  19   3
ATOM      3  O   UNL     1      -2.139   2.674  23.979  0.00  0.00    -0.423 OA
BRANCH   3  24
ATOM     24  C   UNL     1      -1.251   2.657  25.046  0.00  0.00    +0.132 A 
ATOM     27  C   UNL     1      -1.701   3.034  26.297  0.00  0.00    +0.048 A 
ATOM     28  C   UNL     1       0.054   2.263  24.827  0.00  0.00    +0.048 A 
ATOM     30  C   UNL     1      -0.809   3.017  27.370  0.00  0.00    +0.031 A 
ATOM     31  C   UNL     1       0.946   2.246  25.900  0.00  0.00    +0.031 A 
ATOM     32  C   UNL     1       0.514   2.623  27.171  0.00  0.00    +0.067 A 
BRANCH  32  10
ATOM     10  N   UNL     1       1.398   2.605  28.235  0.00  0.00    -0.220 N 
ATOM     11  N   UNL     1       2.673   3.011  28.110  0.00  0.00    -0.154 NA
ATOM     12  N   UNL     1       2.225   2.326  30.246  0.00  0.00    -0.222 NA
ATOM     33  C   UNL     1       1.143   2.199  29.513  0.00  0.00    +0.225 A 
ATOM     34  C   UNL     1       3.128   2.823  29.351  0.00  0.00    +0.245 A 
ENDBRANCH  32  10
ENDBRANCH   3  24
ENDBRANCH  19   3
ENDBRANCH  15   5
BRANCH  16   6
ATOM      4  O   UNL     1       0.514  -0.896  21.725  0.00  0.00    -0.270 OA
ATOM      6  N   UNL     1       0.258  -1.021  24.027  0.00  0.00    -0.304 N 
ATOM     20  C   UNL     1       0.953  -0.735  22.861  0.00  0.00    +0.244 C 
ATOM     35  H   UNL     1       0.725  -0.970  24.926  0.00  0.00    +0.149 HD
BRANCH  20  21
ATOM     21  C   UNL     1       2.337  -0.220  23.037  0.00  0.00    +0.037 A 
ATOM     22  C   UNL     1       3.303  -1.068  23.538  0.00  0.00    +0.013 A 
ATOM     23  C   UNL     1       2.609   1.087  22.695  0.00  0.00    +0.013 A 
ATOM     25  C   UNL     1       4.601  -0.586  23.704  0.00  0.00    +0.001 A 
ATOM     26  C   UNL     1       3.908   1.570  22.861  0.00  0.00    +0.001 A 
ATOM     29  C   UNL     1       4.904   0.734  23.365  0.00  0.00    +0.000 A 
ENDBRANCH  20  21
ENDBRANCH  16   6
TORSDOF 6
ENDMDL
MODEL 2
REMARK VINA RESULT:       4.5      1.083      1.205
REMARK  Name = 11886249
REMARK  6 active torsions:
REMARK  status: ('A' for Active; 'I' for Inactive)
REMARK    1  A    between atoms: O_3  and  C_19
REMARK    2  A    between atoms: O_3  and  C_24
REMARK    3  A    between atoms: N_5  and  C_15
REMARK    4  A    between atoms: N_6  and  C_16
REMARK    5  A    between atoms: N_10  and  C_32
REMARK    6  A    between atoms: C_20  and  C_21
REMARK                            x       y       z     vdW  Elec       q    Type
REMARK                         _______ _______ _______ _____ _____    ______ ____
ROOT
ATOM      1  O   UNL     1      -2.722  -1.280  23.591  0.00  0.00    -0.370 OA
ATOM      2  O   UNL     1      -1.415   0.136  26.047  0.00  0.00    -0.370 OA
ATOM     13  C   UNL     1      -1.651   0.545  24.687  0.00  0.00    +0.176 C 
ATOM     14  C   UNL     1      -1.435  -0.676  23.814  0.00  0.00    +0.171 C 
ATOM     15  C   UNL     1      -3.116   0.893  24.503  0.00  0.00    +0.171 C 
ATOM     16  C   UNL     1      -0.568  -1.589  24.654  0.00  0.00    +0.130 C 
ATOM     17  C   UNL     1      -3.746  -0.453  24.162  0.00  0.00    +0.190 C 
ATOM     18  C   UNL     1      -1.025  -1.245  26.061  0.00  0.00    +0.185 C 
ENDROOT
BRANCH  15   5
ATOM      5  N   UNL     1      -3.321   1.948  23.507  0.00  0.00    -0.187 N 
ATOM      7  N   UNL     1      -3.516   1.649  22.220  0.00  0.00    -0.041 NA
ATOM      8  N   UNL     1      -3.560   3.857  22.523  0.00  0.00    -0.071 NA
ATOM      9  N   UNL     1      -3.663   2.823  21.619  0.00  0.00    -0.020 NA
ATOM     19  C   UNL     1      -3.349   3.290  23.688  0.00  0.00    +0.342 A 
BRANCH  19   3
ATOM      3  O   UNL     1      -3.187   3.903  24.845  0.00  0.00    -0.423 OA
BRANCH   3  24
ATOM     24  C   UNL     1      -2.130   3.620  25.700  0.00  0.00    +0.132 A 
ATOM     27  C   UNL     1      -2.391   3.392  27.037  0.00  0.00    +0.048 A 
ATOM     28  C   UNL     1      -0.847   3.575  25.188  0.00  0.00    +0.048 A 
ATOM     30  C   UNL     1      -1.329   3.107  27.896  0.00  0.00    +0.031 A 
ATOM     31  C   UNL     1       0.215   3.291  26.046  0.00  0.00    +0.031 A 
ATOM     32  C   UNL     1      -0.026   3.057  27.399  0.00  0.00    +0.067 A 
BRANCH  32  10
ATOM     10  N   UNL     1       1.027   2.774  28.250  0.00  0.00    -0.220 N 
ATOM     11  N   UNL     1       2.301   3.058  27.928  0.00  0.00    -0.154 NA
ATOM     12  N   UNL     1       2.164   2.090  29.995  0.00  0.00    -0.222 NA
ATOM     33  C   UNL     1       0.959   2.197  29.485  0.00  0.00    +0.225 A 
ATOM     34  C   UNL     1       2.946   2.626  29.013  0.00  0.00    +0.245 A 
ENDBRANCH  32  10
ENDBRANCH   3  24
ENDBRANCH  19   3
ENDBRANCH  15   5
BRANCH  16   6
ATOM      4  O   UNL     1       0.663  -0.348  22.362  0.00  0.00    -0.270 OA
ATOM      6  N   UNL     1       0.843  -1.244  24.494  0.00  0.00    -0.304 N 
ATOM     20  C   UNL     1       1.338  -0.646  23.344  0.00  0.00    +0.244 C 
ATOM     35  H   UNL     1       1.476  -1.565  25.218  0.00  0.00    +0.149 HD
BRANCH  20  21
ATOM     21  C   UNL     1       2.801  -0.383  23.327  0.00  0.00    +0.037 A 
ATOM     22  C   UNL     1       3.655  -1.339  23.838  0.00  0.00    +0.013 A 
ATOM     23  C   UNL     1       3.258   0.806  22.800  0.00  0.00    +0.013 A 
ATOM     25  C   UNL     1       5.027  -1.093  23.821  0.00  0.00    +0.001 A 
ATOM     26  C   UNL     1       4.631   1.052  22.783  0.00  0.00    +0.001 A 
ATOM     29  C   UNL     1       5.516   0.102  23.293  0.00  0.00    +0.000 A 
ENDBRANCH  20  21
ENDBRANCH  16   6
TORSDOF 6
ENDMDL
