MODEL 1
REMARK VINA RESULT:      -1.6      0.000      0.000
REMARK  Name = 45783571
REMARK  12 active torsions:
REMARK  status: ('A' for Active; 'I' for Inactive)
REMARK    1  A    between atoms: O_2  and  C_17
REMARK    2  A    between atoms: O_3  and  C_22
REMARK    3  A    between atoms: O_3  and  C_28
REMARK    4  A    between atoms: O_4  and  C_27
REMARK    5  A    between atoms: O_4  and  C_29
REMARK    6  A    between atoms: O_5  and  C_30
REMARK    7  A    between atoms: O_5  and  C_31
REMARK    8  A    between atoms: N_6  and  C_14
REMARK    9  A    between atoms: C_10  and  C_15
REMARK   10  A    between atoms: C_14  and  C_16
REMARK   11  A    between atoms: C_19  and  C_23
REMARK   12  A    between atoms: C_29  and  C_30
REMARK                            x       y       z     vdW  Elec       q    Type
REMARK                         _______ _______ _______ _____ _____    ______ ____
ROOT
ATOM      6  N   UNL     1      -4.985   1.522  25.221  0.00  0.00    -0.287 NA
ATOM     10  C   UNL     1      -4.281   2.429  24.292  0.00  0.00    +0.146 C 
ATOM     11  C   UNL     1      -4.772   3.837  24.675  0.00  0.00    +0.030 C 
ATOM     12  C   UNL     1      -5.793   3.616  25.782  0.00  0.00    +0.017 C 
ATOM     13  C   UNL     1      -6.241   2.184  25.574  0.00  0.00    +0.085 C 
ENDROOT
BRANCH  10  15
ATOM      1  O   UNL     1      -2.169   2.900  25.428  0.00  0.00    -0.336 OA
ATOM      7  N   UNL     1      -1.953   1.668  23.571  0.00  0.00    -0.190 NA
ATOM      8  N   UNL     1      -0.800   2.640  25.292  0.00  0.00    -0.056 NA
ATOM     15  C   UNL     1      -2.776   2.292  24.375  0.00  0.00    +0.245 A 
ATOM     19  C   UNL     1      -0.753   1.908  24.174  0.00  0.00    +0.204 A 
BRANCH  19  23
ATOM      9  N   UNL     1       2.828   1.740  23.187  0.00  0.00    -0.221 NA
ATOM     23  C   UNL     1       0.477   1.402  23.636  0.00  0.00    +0.041 A 
ATOM     24  C   UNL     1       0.540   0.140  23.056  0.00  0.00    +0.018 A 
ATOM     25  C   UNL     1       1.639   2.156  23.676  0.00  0.00    +0.126 A 
ATOM     26  C   UNL     1       1.746  -0.323  22.541  0.00  0.00    +0.068 A 
ATOM     27  C   UNL     1       2.852   0.508  22.630  0.00  0.00    +0.215 A 
BRANCH  27   4
ATOM      4  O   UNL     1       4.051   0.075  22.130  0.00  0.00    -0.474 OA
BRANCH   4  29
ATOM     29  C   UNL     1       5.223   0.527  22.797  0.00  0.00    +0.258 C 
BRANCH  29  30
ATOM     30  C   UNL     1       5.167   0.089  24.249  0.00  0.00    +0.200 C 
BRANCH  30   5
ATOM      5  O   UNL     1       5.582  -1.268  24.340  0.00  0.00    -0.380 OA
ATOM     31  C   UNL     1       4.531  -2.158  23.992  0.00  0.00    +0.194 C 
ENDBRANCH  30   5
ENDBRANCH  29  30
ENDBRANCH   4  29
ENDBRANCH  27   4
ENDBRANCH  19  23
ENDBRANCH  10  15
BRANCH   6  14
ATOM     14  C   UNL     1      -5.203   0.191  24.669  0.00  0.00    +0.124 C 
BRANCH  14  16
ATOM     16  C   UNL     1      -4.002  -0.698  24.858  0.00  0.00    +0.008 A 
ATOM     17  C   UNL     1      -3.859  -1.869  24.114  0.00  0.00    +0.125 A 
ATOM     18  C   UNL     1      -3.028  -0.339  25.789  0.00  0.00    +0.012 A 
ATOM     20  C   UNL     1      -2.740  -2.682  24.301  0.00  0.00    +0.091 A 
ATOM     21  C   UNL     1      -1.909  -1.152  25.975  0.00  0.00    +0.046 A 
ATOM     22  C   UNL     1      -1.766  -2.323  25.232  0.00  0.00    +0.124 A 
BRANCH  17   2
ATOM      2  O   UNL     1      -4.802  -2.235  23.200  0.00  0.00    -0.506 OA
ATOM     32  H   UNL     1      -5.293  -3.003  23.536  0.00  0.00    +0.292 HD
ENDBRANCH  17   2
BRANCH  22   3
ATOM      3  O   UNL     1      -0.674  -3.115  25.413  0.00  0.00    -0.495 OA
ATOM     28  C   UNL     1       0.600  -2.475  25.414  0.00  0.00    +0.277 C 
ENDBRANCH  22   3
ENDBRANCH  14  16
ENDBRANCH   6  14
TORSDOF 10
ENDMDL
MODEL 2
REMARK VINA RESULT:      -0.8      1.724      3.958
REMARK  Name = 45783571
REMARK  12 active torsions:
REMARK  status: ('A' for Active; 'I' for Inactive)
REMARK    1  A    between atoms: O_2  and  C_17
REMARK    2  A    between atoms: O_3  and  C_22
REMARK    3  A    between atoms: O_3  and  C_28
REMARK    4  A    between atoms: O_4  and  C_27
REMARK    5  A    between atoms: O_4  and  C_29
REMARK    6  A    between atoms: O_5  and  C_30
REMARK    7  A    between atoms: O_5  and  C_31
REMARK    8  A    between atoms: N_6  and  C_14
REMARK    9  A    between atoms: C_10  and  C_15
REMARK   10  A    between atoms: C_14  and  C_16
REMARK   11  A    between atoms: C_19  and  C_23
REMARK   12  A    between atoms: C_29  and  C_30
REMARK                            x       y       z     vdW  Elec       q    Type
REMARK                         _______ _______ _______ _____ _____    ______ ____
ROOT
ATOM      6  N   UNL     1      -4.730  -0.916  24.134  0.00  0.00    -0.287 NA
ATOM     10  C   UNL     1      -3.723  -1.394  25.103  0.00  0.00    +0.146 C 
ATOM     11  C   UNL     1      -3.575  -2.897  24.802  0.00  0.00    +0.030 C 
ATOM     12  C   UNL     1      -4.580  -3.183  23.695  0.00  0.00    +0.017 C 
ATOM     13  C   UNL     1      -5.589  -2.061  23.831  0.00  0.00    +0.085 C 
ENDROOT
BRANCH  10  15
ATOM      1  O   UNL     1      -2.194   0.328  25.920  0.00  0.00    -0.336 OA
ATOM      7  N   UNL     1      -1.438  -0.793  24.136  0.00  0.00    -0.190 NA
ATOM      8  N   UNL     1      -0.938   0.872  25.623  0.00  0.00    -0.056 NA
ATOM     15  C   UNL     1      -2.412  -0.645  24.997  0.00  0.00    +0.245 A 
ATOM     19  C   UNL     1      -0.556   0.158  24.559  0.00  0.00    +0.204 A 
BRANCH  19  23
ATOM      9  N   UNL     1       2.590   1.817  23.472  0.00  0.00    -0.221 NA
ATOM     23  C   UNL     1       0.700   0.371  23.899  0.00  0.00    +0.041 A 
ATOM     24  C   UNL     1       1.248  -0.602  23.071  0.00  0.00    +0.018 A 
ATOM     25  C   UNL     1       1.404   1.552  24.066  0.00  0.00    +0.126 A 
ATOM     26  C   UNL     1       2.467  -0.367  22.443  0.00  0.00    +0.068 A 
ATOM     27  C   UNL     1       3.092   0.848  22.674  0.00  0.00    +0.215 A 
BRANCH  27   4
ATOM      4  O   UNL     1       4.293   1.104  22.068  0.00  0.00    -0.474 OA
BRANCH   4  29
ATOM     29  C   UNL     1       5.381   0.259  22.421  0.00  0.00    +0.258 C 
BRANCH  29  30
ATOM     30  C   UNL     1       5.813   0.575  23.840  0.00  0.00    +0.200 C 
BRANCH  30   5
ATOM      5  O   UNL     1       5.466  -0.516  24.685  0.00  0.00    -0.380 OA
ATOM     31  C   UNL     1       5.149  -1.677  23.930  0.00  0.00    +0.194 C 
ENDBRANCH  30   5
ENDBRANCH  29  30
ENDBRANCH   4  29
ENDBRANCH  27   4
ENDBRANCH  19  23
ENDBRANCH  10  15
BRANCH   6  14
ATOM     14  C   UNL     1      -5.492   0.229  24.616  0.00  0.00    +0.124 C 
BRANCH  14  16
ATOM     16  C   UNL     1      -4.686   1.500  24.566  0.00  0.00    +0.008 A 
ATOM     17  C   UNL     1      -4.885   2.507  25.511  0.00  0.00    +0.125 A 
ATOM     18  C   UNL     1      -3.732   1.664  23.562  0.00  0.00    +0.012 A 
ATOM     20  C   UNL     1      -4.129   3.679  25.450  0.00  0.00    +0.091 A 
ATOM     21  C   UNL     1      -2.977   2.835  23.502  0.00  0.00    +0.046 A 
ATOM     22  C   UNL     1      -3.176   3.843  24.446  0.00  0.00    +0.124 A 
BRANCH  17   2
ATOM      2  O   UNL     1      -5.813   2.364  26.498  0.00  0.00    -0.506 OA
ATOM     32  H   UNL     1      -5.403   1.928  27.263  0.00  0.00    +0.292 HD
ENDBRANCH  17   2
BRANCH  22   3
ATOM      3  O   UNL     1      -2.439   4.985  24.387  0.00  0.00    -0.495 OA
ATOM     28  C   UNL     1      -1.177   4.978  25.053  0.00  0.00    +0.277 C 
ENDBRANCH  22   3
ENDBRANCH  14  16
ENDBRANCH   6  14
TORSDOF 10
ENDMDL
MODEL 3
REMARK VINA RESULT:       2.0     15.447     18.546
REMARK  Name = 45783571
REMARK  12 active torsions:
REMARK  status: ('A' for Active; 'I' for Inactive)
REMARK    1  A    between atoms: O_2  and  C_17
REMARK    2  A    between atoms: O_3  and  C_22
REMARK    3  A    between atoms: O_3  and  C_28
REMARK    4  A    between atoms: O_4  and  C_27
REMARK    5  A    between atoms: O_4  and  C_29
REMARK    6  A    between atoms: O_5  and  C_30
REMARK    7  A    between atoms: O_5  and  C_31
REMARK    8  A    between atoms: N_6  and  C_14
REMARK    9  A    between atoms: C_10  and  C_15
REMARK   10  A    between atoms: C_14  and  C_16
REMARK   11  A    between atoms: C_19  and  C_23
REMARK   12  A    between atoms: C_29  and  C_30
REMARK                            x       y       z     vdW  Elec       q    Type
REMARK                         _______ _______ _______ _____ _____    ______ ____
ROOT
ATOM      6  N   UNL     1      -1.571  -9.293  11.916  0.00  0.00    -0.287 NA
ATOM     10  C   UNL     1      -2.415 -10.502  11.833  0.00  0.00    +0.146 C 
ATOM     11  C   UNL     1      -2.875 -10.756  13.280  0.00  0.00    +0.030 C 
ATOM     12  C   UNL     1      -2.191  -9.679  14.111  0.00  0.00    +0.017 C 
ATOM     13  C   UNL     1      -1.002  -9.277  13.264  0.00  0.00    +0.085 C 
ENDROOT
BRANCH  10  15
ATOM      1  O   UNL     1      -3.370 -10.771   9.600  0.00  0.00    -0.336 OA
ATOM      7  N   UNL     1      -4.762  -9.834  11.083  0.00  0.00    -0.190 NA
ATOM      8  N   UNL     1      -4.562 -10.518   8.909  0.00  0.00    -0.056 NA
ATOM     15  C   UNL     1      -3.573 -10.339  10.872  0.00  0.00    +0.245 A 
ATOM     19  C   UNL     1      -5.333  -9.966   9.851  0.00  0.00    +0.204 A 
BRANCH  19  23
ATOM      9  N   UNL     1      -8.680  -8.433  10.377  0.00  0.00    -0.221 NA
ATOM     23  C   UNL     1      -6.677  -9.537   9.592  0.00  0.00    +0.041 A 
ATOM     24  C   UNL     1      -7.286  -9.785   8.367  0.00  0.00    +0.018 A 
ATOM     25  C   UNL     1      -7.410  -8.863  10.555  0.00  0.00    +0.126 A 
ATOM     26  C   UNL     1      -8.590  -9.358   8.145  0.00  0.00    +0.068 A 
ATOM     27  C   UNL     1      -9.238  -8.692   9.174  0.00  0.00    +0.215 A 
BRANCH  27   4
ATOM      4  O   UNL     1     -10.524  -8.261   8.980  0.00  0.00    -0.474 OA
BRANCH   4  29
ATOM     29  C   UNL     1     -10.715  -6.859   8.840  0.00  0.00    +0.258 C 
BRANCH  29  30
ATOM     30  C   UNL     1      -9.460  -6.245   8.249  0.00  0.00    +0.200 C 
BRANCH  30   5
ATOM      5  O   UNL     1      -9.389  -4.877   8.632  0.00  0.00    -0.380 OA
ATOM     31  C   UNL     1     -10.680  -4.337   8.872  0.00  0.00    +0.194 C 
ENDBRANCH  30   5
ENDBRANCH  29  30
ENDBRANCH   4  29
ENDBRANCH  27   4
ENDBRANCH  19  23
ENDBRANCH  10  15
BRANCH   6  14
ATOM     14  C   UNL     1      -0.542  -9.238  10.885  0.00  0.00    +0.124 C 
BRANCH  14  16
ATOM     16  C   UNL     1       0.620  -8.376  11.297  0.00  0.00    +0.008 A 
ATOM     17  C   UNL     1       1.917  -8.684  10.885  0.00  0.00    +0.125 A 
ATOM     18  C   UNL     1       0.390  -7.259  12.100  0.00  0.00    +0.012 A 
ATOM     20  C   UNL     1       2.984  -7.873  11.276  0.00  0.00    +0.091 A 
ATOM     21  C   UNL     1       1.457  -6.449  12.491  0.00  0.00    +0.046 A 
ATOM     22  C   UNL     1       2.753  -6.757  12.079  0.00  0.00    +0.124 A 
BRANCH  17   2
ATOM      2  O   UNL     1       2.160  -9.771  10.101  0.00  0.00    -0.506 OA
ATOM     32  H   UNL     1       1.860 -10.573  10.562  0.00  0.00    +0.292 HD
ENDBRANCH  17   2
BRANCH  22   3
ATOM      3  O   UNL     1       3.794  -5.966  12.460  0.00  0.00    -0.495 OA
ATOM     28  C   UNL     1       5.069  -6.591  12.595  0.00  0.00    +0.277 C 
ENDBRANCH  22   3
ENDBRANCH  14  16
ENDBRANCH   6  14
TORSDOF 10
ENDMDL
