MODEL 1
REMARK VINA RESULT:      10.8      0.000      0.000
REMARK  Name = 11911750
REMARK  4 active torsions:
REMARK  status: ('A' for Active; 'I' for Inactive)
REMARK    1  A    between atoms: C_16  and  C_19
REMARK    2  A    between atoms: C_17  and  C_20
REMARK    3  A    between atoms: C_23  and  C_27
REMARK    4  A    between atoms: C_26  and  C_30
REMARK                            x       y       z     vdW  Elec       q    Type
REMARK                         _______ _______ _______ _____ _____    ______ ____
ROOT
ATOM      2  O   UNL     1      -0.245   3.068  25.830  0.00  0.00    -0.267 OA
ATOM      3  O   UNL     1      -4.322   0.246  27.294  0.00  0.00    -0.270 OA
ATOM      4  N   UNL     1      -4.958   1.498  25.423  0.00  0.00    -0.297 N 
ATOM      5  N   UNL     1      -2.252   2.961  24.648  0.00  0.00    -0.311 N 
ATOM      7  C   UNL     1      -4.440   3.928  25.566  0.00  0.00    +0.027 C 
ATOM      8  C   UNL     1      -4.422   2.800  23.378  0.00  0.00    +0.054 C 
ATOM      9  C   UNL     1      -4.819   4.088  24.098  0.00  0.00    +0.018 C 
ATOM     10  C   UNL     1      -5.179   2.727  26.184  0.00  0.00    +0.113 C 
ATOM     11  C   UNL     1      -2.916   3.784  25.669  0.00  0.00    +0.130 C 
ATOM     12  C   UNL     1      -5.201   1.612  23.976  0.00  0.00    +0.117 C 
ATOM     13  C   UNL     1      -2.931   2.546  23.500  0.00  0.00    +0.027 A 
ATOM     14  C   UNL     1      -2.274   1.895  22.527  0.00  0.00    +0.022 A 
ATOM     15  C   UNL     1      -0.880   2.700  24.839  0.00  0.00    +0.259 A 
ATOM     16  C   UNL     1      -4.526   0.347  26.086  0.00  0.00    +0.247 C 
ATOM     17  C   UNL     1      -0.177   1.941  23.745  0.00  0.00    +0.040 A 
ATOM     18  C   UNL     1      -0.878   1.590  22.658  0.00  0.00    +0.015 A 
ENDROOT
BRANCH  16  19
ATOM     19  C   UNL     1      -4.270  -0.853  25.283  0.00  0.00    +0.037 A 
ATOM     21  C   UNL     1      -4.859  -0.985  24.027  0.00  0.00    +0.014 A 
ATOM     22  C   UNL     1      -3.438  -1.853  25.779  0.00  0.00    +0.014 A 
ATOM     24  C   UNL     1      -4.614  -2.126  23.263  0.00  0.00    +0.019 A 
ATOM     25  C   UNL     1      -3.194  -2.995  25.015  0.00  0.00    +0.019 A 
ATOM     26  C   UNL     1      -3.782  -3.131  23.757  0.00  0.00    +0.052 A 
BRANCH  26  30
ATOM      6  N   UNL     1      -3.330  -5.252  22.339  0.00  0.00    -0.191 NA
ATOM     30  C   UNL     1      -3.533  -4.301  22.975  0.00  0.00    +0.099 C 
ENDBRANCH  26  30
ENDBRANCH  16  19
BRANCH  17  20
ATOM     20  C   UNL     1       1.221   1.618  23.877  0.00  0.00    +0.014 C 
ATOM     23  C   UNL     1       1.822   0.675  23.143  0.00  0.00    +0.008 C 
BRANCH  23  27
ATOM      1 CL   UNL     1       7.578  -0.834  23.574  0.00  0.00    -0.084 Cl
ATOM     27  C   UNL     1       3.244   0.302  23.248  0.00  0.00    -0.025 A 
ATOM     28  C   UNL     1       3.582  -0.978  23.657  0.00  0.00    +0.009 A 
ATOM     29  C   UNL     1       4.216   1.239  22.939  0.00  0.00    +0.009 A 
ATOM     31  C   UNL     1       4.927  -1.331  23.759  0.00  0.00    +0.020 A 
ATOM     32  C   UNL     1       5.562   0.887  23.039  0.00  0.00    +0.020 A 
ATOM     33  C   UNL     1       5.917  -0.399  23.449  0.00  0.00    +0.041 A 
ENDBRANCH  23  27
ENDBRANCH  17  20
TORSDOF 4
ENDMDL
