MODEL 1
REMARK VINA RESULT:       3.5      0.000      0.000
REMARK  Name = 40533398
REMARK  4 active torsions:
REMARK  status: ('A' for Active; 'I' for Inactive)
REMARK    1  A    between atoms: N_2  and  C_13
REMARK    2  A    between atoms: N_4  and  C_25
REMARK    3  A    between atoms: C_13  and  C_16
REMARK    4  A    between atoms: C_17  and  C_22
REMARK                            x       y       z     vdW  Elec       q    Type
REMARK                         _______ _______ _______ _____ _____    ______ ____
ROOT
ATOM      1  O   UNL     1      -1.883   3.665  28.053  0.00  0.00    -0.267 OA
ATOM      2  N   UNL     1      -4.516   1.304  24.496  0.00  0.00    -0.297 NA
ATOM      3  N   UNL     1      -2.426   3.324  25.811  0.00  0.00    -0.311 N 
ATOM      6  C   UNL     1      -4.769   3.769  24.872  0.00  0.00    +0.024 C 
ATOM      7  C   UNL     1      -3.000   2.954  23.388  0.00  0.00    +0.050 C 
ATOM      8  C   UNL     1      -4.031   4.063  23.573  0.00  0.00    +0.017 C 
ATOM      9  C   UNL     1      -5.457   2.391  24.788  0.00  0.00    +0.090 C 
ATOM     10  C   UNL     1      -3.722   1.589  23.291  0.00  0.00    +0.094 C 
ATOM     11  C   UNL     1      -3.776   3.863  26.037  0.00  0.00    +0.130 C 
ATOM     12  C   UNL     1      -2.006   2.946  24.534  0.00  0.00    +0.026 A 
ATOM     14  C   UNL     1      -0.736   2.563  24.330  0.00  0.00    +0.022 A 
ATOM     15  C   UNL     1      -1.557   3.307  26.920  0.00  0.00    +0.259 A 
ATOM     17  C   UNL     1      -0.149   2.839  26.667  0.00  0.00    +0.048 A 
ATOM     18  C   UNL     1       0.201   2.505  25.416  0.00  0.00    +0.015 A 
ENDROOT
BRANCH  17  22
ATOM      5  N   UNL     1       3.101   3.046  28.536  0.00  0.00    -0.263 NA
ATOM     22  C   UNL     1       0.831   2.739  27.762  0.00  0.00    +0.005 A 
ATOM     26  C   UNL     1       0.460   2.267  29.016  0.00  0.00    +0.011 A 
ATOM     27  C   UNL     1       2.152   3.113  27.575  0.00  0.00    +0.119 A 
ATOM     30  C   UNL     1       1.407   2.183  30.030  0.00  0.00    +0.020 A 
ATOM     31  C   UNL     1       2.702   2.582  29.741  0.00  0.00    +0.111 A 
ENDBRANCH  17  22
BRANCH   2  13
ATOM     13  C   UNL     1      -5.211   0.025  24.372  0.00  0.00    +0.121 C 
BRANCH  13  16
ATOM      4  N   UNL     1      -3.370  -3.093  23.719  0.00  0.00    -0.349 N 
ATOM     16  C   UNL     1      -4.250  -1.128  24.260  0.00  0.00    -0.008 A 
ATOM     19  C   UNL     1      -2.945  -1.202  24.823  0.00  0.00    +0.004 A 
ATOM     20  C   UNL     1      -4.482  -2.306  23.586  0.00  0.00    +0.091 A 
ATOM     21  C   UNL     1      -2.416  -2.445  24.470  0.00  0.00    +0.049 A 
ATOM     23  C   UNL     1      -2.162  -0.328  25.604  0.00  0.00    +0.010 A 
ATOM     24  C   UNL     1      -1.137  -2.858  24.859  0.00  0.00    +0.026 A 
ATOM     25  C   UNL     1      -3.235  -4.416  23.149  0.00  0.00    +0.149 C 
ATOM     28  C   UNL     1      -0.881  -0.728  25.999  0.00  0.00    +0.001 A 
ATOM     29  C   UNL     1      -0.378  -1.975  25.631  0.00  0.00    +0.002 A 
ENDBRANCH  13  16
ENDBRANCH   2  13
TORSDOF 3
ENDMDL
MODEL 2
REMARK VINA RESULT:       4.6      2.896      5.741
REMARK  Name = 40533398
REMARK  4 active torsions:
REMARK  status: ('A' for Active; 'I' for Inactive)
REMARK    1  A    between atoms: N_2  and  C_13
REMARK    2  A    between atoms: N_4  and  C_25
REMARK    3  A    between atoms: C_13  and  C_16
REMARK    4  A    between atoms: C_17  and  C_22
REMARK                            x       y       z     vdW  Elec       q    Type
REMARK                         _______ _______ _______ _____ _____    ______ ____
ROOT
ATOM      1  O   UNL     1       0.051  -1.640  22.397  0.00  0.00    -0.267 OA
ATOM      2  N   UNL     1      -4.401  -0.504  24.409  0.00  0.00    -0.297 NA
ATOM      3  N   UNL     1      -1.417  -1.617  24.208  0.00  0.00    -0.311 N 
ATOM      6  C   UNL     1      -3.646  -2.885  24.199  0.00  0.00    +0.024 C 
ATOM      7  C   UNL     1      -2.995  -1.586  26.170  0.00  0.00    +0.050 C 
ATOM      8  C   UNL     1      -3.433  -2.971  25.704  0.00  0.00    +0.017 C 
ATOM      9  C   UNL     1      -4.726  -1.832  23.878  0.00  0.00    +0.090 C 
ATOM     10  C   UNL     1      -4.106  -0.559  25.849  0.00  0.00    +0.094 C 
ATOM     11  C   UNL     1      -2.302  -2.575  23.526  0.00  0.00    +0.130 C 
ATOM     12  C   UNL     1      -1.692  -1.181  25.506  0.00  0.00    +0.026 A 
ATOM     14  C   UNL     1      -0.815  -0.396  26.151  0.00  0.00    +0.022 A 
ATOM     15  C   UNL     1      -0.240  -1.248  23.529  0.00  0.00    +0.259 A 
ATOM     17  C   UNL     1       0.707  -0.339  24.264  0.00  0.00    +0.048 A 
ATOM     18  C   UNL     1       0.397   0.034  25.515  0.00  0.00    +0.015 A 
ENDROOT
BRANCH  17  22
ATOM      5  N   UNL     1       3.210   1.990  22.712  0.00  0.00    -0.263 NA
ATOM     22  C   UNL     1       1.947   0.146  23.632  0.00  0.00    +0.005 A 
ATOM     26  C   UNL     1       2.999  -0.721  23.360  0.00  0.00    +0.011 A 
ATOM     27  C   UNL     1       2.101   1.481  23.293  0.00  0.00    +0.119 A 
ATOM     30  C   UNL     1       4.157  -0.234  22.764  0.00  0.00    +0.020 A 
ATOM     31  C   UNL     1       4.212   1.117  22.462  0.00  0.00    +0.111 A 
ENDBRANCH  17  22
BRANCH   2  13
ATOM     13  C   UNL     1      -5.471   0.451  24.131  0.00  0.00    +0.121 C 
BRANCH  13  16
ATOM      4  N   UNL     1      -5.288   3.900  25.401  0.00  0.00    -0.349 N 
ATOM     16  C   UNL     1      -5.117   1.840  24.590  0.00  0.00    -0.008 A 
ATOM     19  C   UNL     1      -3.824   2.435  24.572  0.00  0.00    +0.004 A 
ATOM     20  C   UNL     1      -5.996   2.765  25.106  0.00  0.00    +0.091 A 
ATOM     21  C   UNL     1      -3.959   3.726  25.085  0.00  0.00    +0.049 A 
ATOM     23  C   UNL     1      -2.548   1.997  24.166  0.00  0.00    +0.010 A 
ATOM     24  C   UNL     1      -2.878   4.605  25.214  0.00  0.00    +0.026 A 
ATOM     25  C   UNL     1      -5.870   5.100  25.962  0.00  0.00    +0.149 C 
ATOM     28  C   UNL     1      -1.457   2.865  24.290  0.00  0.00    +0.001 A 
ATOM     29  C   UNL     1      -1.622   4.149  24.806  0.00  0.00    +0.002 A 
ENDBRANCH  13  16
ENDBRANCH   2  13
TORSDOF 3
ENDMDL
MODEL 3
REMARK VINA RESULT:       6.3      2.490      3.351
REMARK  Name = 40533398
REMARK  4 active torsions:
REMARK  status: ('A' for Active; 'I' for Inactive)
REMARK    1  A    between atoms: N_2  and  C_13
REMARK    2  A    between atoms: N_4  and  C_25
REMARK    3  A    between atoms: C_13  and  C_16
REMARK    4  A    between atoms: C_17  and  C_22
REMARK                            x       y       z     vdW  Elec       q    Type
REMARK                         _______ _______ _______ _____ _____    ______ ____
ROOT
ATOM      1  O   UNL     1       0.978   2.044  25.839  0.00  0.00    -0.267 OA
ATOM      2  N   UNL     1      -3.995   1.954  25.190  0.00  0.00    -0.297 NA
ATOM      3  N   UNL     1      -0.957   2.856  24.822  0.00  0.00    -0.311 N 
ATOM      6  C   UNL     1      -2.850   3.970  26.143  0.00  0.00    +0.024 C 
ATOM      7  C   UNL     1      -3.041   3.730  23.713  0.00  0.00    +0.050 C 
ATOM      8  C   UNL     1      -3.095   4.743  24.853  0.00  0.00    +0.017 C 
ATOM      9  C   UNL     1      -3.933   2.886  26.322  0.00  0.00    +0.090 C 
ATOM     10  C   UNL     1      -4.147   2.668  23.913  0.00  0.00    +0.094 C 
ATOM     11  C   UNL     1      -1.431   3.388  26.108  0.00  0.00    +0.130 C 
ATOM     12  C   UNL     1      -1.677   3.068  23.645  0.00  0.00    +0.026 A 
ATOM     14  C   UNL     1      -1.172   2.672  22.466  0.00  0.00    +0.022 A 
ATOM     15  C   UNL     1       0.299   2.218  24.825  0.00  0.00    +0.259 A 
ATOM     17  C   UNL     1       0.824   1.754  23.493  0.00  0.00    +0.048 A 
ATOM     18  C   UNL     1       0.094   2.000  22.395  0.00  0.00    +0.015 A 
ENDROOT
BRANCH  17  22
ATOM      5  N   UNL     1       3.312  -1.058  23.467  0.00  0.00    -0.263 NA
ATOM     22  C   UNL     1       2.105   1.035  23.385  0.00  0.00    +0.005 A 
ATOM     26  C   UNL     1       3.287   1.714  23.109  0.00  0.00    +0.011 A 
ATOM     27  C   UNL     1       2.171  -0.339  23.553  0.00  0.00    +0.119 A 
ATOM     30  C   UNL     1       4.482   1.008  23.013  0.00  0.00    +0.020 A 
ATOM     31  C   UNL     1       4.440  -0.364  23.198  0.00  0.00    +0.111 A 
ENDBRANCH  17  22
BRANCH   2  13
ATOM     13  C   UNL     1      -5.065   0.976  25.372  0.00  0.00    +0.121 C 
BRANCH  13  16
ATOM      4  N   UNL     1      -4.772  -2.398  23.934  0.00  0.00    -0.349 N 
ATOM     16  C   UNL     1      -4.671  -0.387  24.868  0.00  0.00    -0.008 A 
ATOM     19  C   UNL     1      -3.382  -0.984  24.956  0.00  0.00    +0.004 A 
ATOM     20  C   UNL     1      -5.504  -1.280  24.234  0.00  0.00    +0.091 A 
ATOM     21  C   UNL     1      -3.473  -2.245  24.364  0.00  0.00    +0.049 A 
ATOM     23  C   UNL     1      -2.144  -0.571  25.487  0.00  0.00    +0.010 A 
ATOM     24  C   UNL     1      -2.382  -3.117  24.274  0.00  0.00    +0.026 A 
ATOM     25  C   UNL     1      -5.304  -3.565  23.264  0.00  0.00    +0.149 C 
ATOM     28  C   UNL     1      -1.044  -1.432  25.403  0.00  0.00    +0.001 A 
ATOM     29  C   UNL     1      -1.164  -2.686  24.805  0.00  0.00    +0.002 A 
ENDBRANCH  13  16
ENDBRANCH   2  13
TORSDOF 3
ENDMDL
