MODEL 1
REMARK VINA RESULT:       2.1      0.000      0.000
REMARK  Name = 26762949
REMARK  5 active torsions:
REMARK  status: ('A' for Active; 'I' for Inactive)
REMARK    1  A    between atoms: N_6  and  C_11
REMARK    2  A    between atoms: N_8  and  C_25
REMARK    3  A    between atoms: C_10  and  C_15
REMARK    4  A    between atoms: C_15  and  C_17
REMARK    5  A    between atoms: C_17  and  C_18
REMARK                            x       y       z     vdW  Elec       q    Type
REMARK                         _______ _______ _______ _____ _____    ______ ____
ROOT
ATOM      1  O   UNL     1      -4.537   4.237  22.481  0.00  0.00    -0.274 OA
ATOM      4  N   UNL     1      -3.219   2.485  25.126  0.00  0.00    -0.285 NA
ATOM      5  N   UNL     1      -5.632   2.858  23.978  0.00  0.00    -0.313 N 
ATOM      9  C   UNL     1      -3.530   3.832  24.649  0.00  0.00    +0.145 C 
ATOM     10  C   UNL     1      -4.324   1.850  25.851  0.00  0.00    +0.075 C 
ATOM     11  C   UNL     1      -1.144   3.516  24.953  0.00  0.00    +0.090 C 
ATOM     12  C   UNL     1      -2.176   4.352  24.183  0.00  0.00    +0.052 C 
ATOM     13  C   UNL     1      -1.968   2.608  25.867  0.00  0.00    +0.107 C 
ATOM     14  C   UNL     1      -5.695   2.345  25.336  0.00  0.00    +0.123 C 
ATOM     16  C   UNL     1      -4.585   3.674  23.571  0.00  0.00    +0.230 C 
ATOM     31  H   UNL     1      -6.414   2.704  23.350  0.00  0.00    +0.149 HD
ENDROOT
BRANCH  11   6
ATOM      3  O   UNL     1       1.271   2.123  25.616  0.00  0.00    -0.253 OA
ATOM      6  N   UNL     1      -0.313   2.751  24.053  0.00  0.00    -0.295 N 
ATOM      8  N   UNL     1       1.448   1.441  23.376  0.00  0.00    -0.269 N 
ATOM     19  C   UNL     1       0.857   2.097  24.459  0.00  0.00    +0.304 C 
ATOM     32  H   UNL     1      -0.634   2.609  23.100  0.00  0.00    +0.151 HD
ATOM     33  H   UNL     1       0.975   1.522  22.480  0.00  0.00    +0.156 HD
BRANCH   8  25
ATOM     25  C   UNL     1       2.636   0.672  23.371  0.00  0.00    +0.035 A 
ATOM     26  C   UNL     1       3.866   1.291  23.154  0.00  0.00    +0.023 A 
ATOM     27  C   UNL     1       2.577  -0.706  23.583  0.00  0.00    +0.023 A 
ATOM     28  C   UNL     1       5.038   0.534  23.148  0.00  0.00    +0.002 A 
ATOM     29  C   UNL     1       3.748  -1.464  23.578  0.00  0.00    +0.002 A 
ATOM     30  C   UNL     1       4.978  -0.844  23.359  0.00  0.00    +0.000 A 
ENDBRANCH   8  25
ENDBRANCH  11   6
BRANCH  10  15
ATOM     15  C   UNL     1      -4.211   0.333  25.681  0.00  0.00    +0.029 C 
BRANCH  15  17
ATOM     17  C   UNL     1      -4.445  -0.109  24.245  0.00  0.00    +0.097 C 
BRANCH  17  18
ATOM      2  O   UNL     1      -4.625  -2.408  23.703  0.00  0.00    -0.276 OA
ATOM      7  N   UNL     1      -2.485  -1.608  24.124  0.00  0.00    -0.301 N 
ATOM     18  C   UNL     1      -3.868  -1.480  23.998  0.00  0.00    +0.216 C 
ATOM     20  C   UNL     1      -1.850  -2.909  23.902  0.00  0.00    +0.108 C 
ATOM     21  C   UNL     1      -1.555  -0.513  24.428  0.00  0.00    +0.108 C 
ATOM     22  C   UNL     1      -0.984  -3.304  25.095  0.00  0.00    +0.019 C 
ATOM     23  C   UNL     1      -0.682  -0.864  25.632  0.00  0.00    +0.019 C 
ATOM     24  C   UNL     1       0.022  -2.206  25.437  0.00  0.00    +0.003 C 
ENDBRANCH  17  18
ENDBRANCH  15  17
ENDBRANCH  10  15
TORSDOF 5
ENDMDL
MODEL 2
REMARK VINA RESULT:       2.2      1.368      1.664
REMARK  Name = 26762949
REMARK  5 active torsions:
REMARK  status: ('A' for Active; 'I' for Inactive)
REMARK    1  A    between atoms: N_6  and  C_11
REMARK    2  A    between atoms: N_8  and  C_25
REMARK    3  A    between atoms: C_10  and  C_15
REMARK    4  A    between atoms: C_15  and  C_17
REMARK    5  A    between atoms: C_17  and  C_18
REMARK                            x       y       z     vdW  Elec       q    Type
REMARK                         _______ _______ _______ _____ _____    ______ ____
ROOT
ATOM      1  O   UNL     1      -4.015   5.957  23.288  0.00  0.00    -0.274 OA
ATOM      4  N   UNL     1      -3.318   3.366  25.434  0.00  0.00    -0.285 NA
ATOM      5  N   UNL     1      -5.496   4.547  24.368  0.00  0.00    -0.313 N 
ATOM      9  C   UNL     1      -3.290   4.822  25.305  0.00  0.00    +0.145 C 
ATOM     10  C   UNL     1      -4.586   2.846  25.952  0.00  0.00    +0.075 C 
ATOM     11  C   UNL     1      -1.061   3.903  25.569  0.00  0.00    +0.090 C 
ATOM     12  C   UNL     1      -1.824   5.114  25.013  0.00  0.00    +0.052 C 
ATOM     13  C   UNL     1      -2.131   3.016  26.207  0.00  0.00    +0.107 C 
ATOM     14  C   UNL     1      -5.773   3.752  25.550  0.00  0.00    +0.123 C 
ATOM     16  C   UNL     1      -4.269   5.175  24.201  0.00  0.00    +0.230 C 
ATOM     31  H   UNL     1      -6.241   4.733  23.705  0.00  0.00    +0.149 HD
ENDROOT
BRANCH  11   6
ATOM      3  O   UNL     1       1.135   2.093  25.901  0.00  0.00    -0.253 OA
ATOM      6  N   UNL     1      -0.349   3.208  24.522  0.00  0.00    -0.295 N 
ATOM      8  N   UNL     1       1.208   1.812  23.571  0.00  0.00    -0.269 N 
ATOM     19  C   UNL     1       0.718   2.335  24.770  0.00  0.00    +0.304 C 
ATOM     32  H   UNL     1      -0.690   3.288  23.569  0.00  0.00    +0.151 HD
ATOM     33  H   UNL     1       0.748   2.119  22.718  0.00  0.00    +0.156 HD
BRANCH   8  25
ATOM     25  C   UNL     1       2.275   0.900  23.393  0.00  0.00    +0.035 A 
ATOM     26  C   UNL     1       3.549   1.371  23.076  0.00  0.00    +0.023 A 
ATOM     27  C   UNL     1       2.054  -0.471  23.536  0.00  0.00    +0.023 A 
ATOM     28  C   UNL     1       4.601   0.472  22.901  0.00  0.00    +0.002 A 
ATOM     29  C   UNL     1       3.106  -1.369  23.361  0.00  0.00    +0.002 A 
ATOM     30  C   UNL     1       4.379  -0.897  23.043  0.00  0.00    +0.000 A 
ENDBRANCH   8  25
ENDBRANCH  11   6
BRANCH  10  15
ATOM     15  C   UNL     1      -4.793   1.430  25.409  0.00  0.00    +0.029 C 
BRANCH  15  17
ATOM     17  C   UNL     1      -4.383   1.304  23.949  0.00  0.00    +0.097 C 
BRANCH  17  18
ATOM      2  O   UNL     1      -2.168   1.469  23.127  0.00  0.00    -0.276 OA
ATOM      7  N   UNL     1      -2.624  -0.332  24.522  0.00  0.00    -0.301 N 
ATOM     18  C   UNL     1      -2.958   0.828  23.824  0.00  0.00    +0.216 C 
ATOM     20  C   UNL     1      -1.258  -0.859  24.449  0.00  0.00    +0.108 C 
ATOM     21  C   UNL     1      -3.529  -1.090  25.395  0.00  0.00    +0.108 C 
ATOM     22  C   UNL     1      -1.262  -2.323  24.018  0.00  0.00    +0.019 C 
ATOM     23  C   UNL     1      -3.574  -2.560  24.982  0.00  0.00    +0.019 C 
ATOM     24  C   UNL     1      -2.171  -3.162  24.914  0.00  0.00    +0.003 C 
ENDBRANCH  17  18
ENDBRANCH  15  17
ENDBRANCH  10  15
TORSDOF 5
ENDMDL
MODEL 3
REMARK VINA RESULT:       2.3      2.551      5.427
REMARK  Name = 26762949
REMARK  5 active torsions:
REMARK  status: ('A' for Active; 'I' for Inactive)
REMARK    1  A    between atoms: N_6  and  C_11
REMARK    2  A    between atoms: N_8  and  C_25
REMARK    3  A    between atoms: C_10  and  C_15
REMARK    4  A    between atoms: C_15  and  C_17
REMARK    5  A    between atoms: C_17  and  C_18
REMARK                            x       y       z     vdW  Elec       q    Type
REMARK                         _______ _______ _______ _____ _____    ______ ____
ROOT
ATOM      1  O   UNL     1      -0.518  -2.653  25.051  0.00  0.00    -0.274 OA
ATOM      4  N   UNL     1      -2.440   0.095  24.307  0.00  0.00    -0.285 NA
ATOM      5  N   UNL     1      -2.801  -2.388  25.297  0.00  0.00    -0.313 N 
ATOM      9  C   UNL     1      -1.652  -0.982  23.709  0.00  0.00    +0.145 C 
ATOM     10  C   UNL     1      -3.846  -0.257  24.523  0.00  0.00    +0.075 C 
ATOM     11  C   UNL     1      -0.696   1.196  23.238  0.00  0.00    +0.090 C 
ATOM     12  C   UNL     1      -0.341  -0.293  23.354  0.00  0.00    +0.052 C 
ATOM     13  C   UNL     1      -2.206   1.266  23.468  0.00  0.00    +0.107 C 
ATOM     14  C   UNL     1      -4.014  -1.771  24.791  0.00  0.00    +0.123 C 
ATOM     16  C   UNL     1      -1.562  -2.079  24.753  0.00  0.00    +0.230 C 
ATOM     31  H   UNL     1      -2.869  -3.131  25.986  0.00  0.00    +0.149 HD
ENDROOT
BRANCH  11   6
ATOM      3  O   UNL     1      -0.465   0.669  26.045  0.00  0.00    -0.253 OA
ATOM      6  N   UNL     1       0.027   1.985  24.208  0.00  0.00    -0.295 N 
ATOM      8  N   UNL     1       0.859   2.596  26.260  0.00  0.00    -0.269 N 
ATOM     19  C   UNL     1       0.092   1.656  25.567  0.00  0.00    +0.304 C 
ATOM     32  H   UNL     1       0.585   2.766  23.878  0.00  0.00    +0.151 HD
ATOM     33  H   UNL     1       1.249   3.359  25.713  0.00  0.00    +0.156 HD
BRANCH   8  25
ATOM     25  C   UNL     1       1.162   2.621  27.642  0.00  0.00    +0.035 A 
ATOM     26  C   UNL     1       0.144   2.462  28.582  0.00  0.00    +0.023 A 
ATOM     27  C   UNL     1       2.479   2.805  28.065  0.00  0.00    +0.023 A 
ATOM     28  C   UNL     1       0.442   2.487  29.944  0.00  0.00    +0.002 A 
ATOM     29  C   UNL     1       2.777   2.829  29.427  0.00  0.00    +0.002 A 
ATOM     30  C   UNL     1       1.758   2.670  30.367  0.00  0.00    +0.000 A 
ENDBRANCH   8  25
ENDBRANCH  11   6
BRANCH  10  15
ATOM     15  C   UNL     1      -4.376   0.552  25.709  0.00  0.00    +0.029 C 
BRANCH  15  17
ATOM     17  C   UNL     1      -5.477   1.521  25.305  0.00  0.00    +0.097 C 
BRANCH  17  18
ATOM      2  O   UNL     1      -5.232   2.439  23.135  0.00  0.00    -0.276 OA
ATOM      7  N   UNL     1      -4.198   3.588  24.869  0.00  0.00    -0.301 N 
ATOM     18  C   UNL     1      -4.963   2.553  24.334  0.00  0.00    +0.216 C 
ATOM     20  C   UNL     1      -3.660   4.629  23.989  0.00  0.00    +0.108 C 
ATOM     21  C   UNL     1      -3.899   3.774  26.295  0.00  0.00    +0.108 C 
ATOM     22  C   UNL     1      -2.152   4.771  24.171  0.00  0.00    +0.019 C 
ATOM     23  C   UNL     1      -2.393   3.901  26.520  0.00  0.00    +0.019 C 
ATOM     24  C   UNL     1      -1.789   4.993  25.638  0.00  0.00    +0.003 C 
ENDBRANCH  17  18
ENDBRANCH  15  17
ENDBRANCH  10  15
TORSDOF 5
ENDMDL
MODEL 4
REMARK VINA RESULT:       3.0      1.983      4.290
REMARK  Name = 26762949
REMARK  5 active torsions:
REMARK  status: ('A' for Active; 'I' for Inactive)
REMARK    1  A    between atoms: N_6  and  C_11
REMARK    2  A    between atoms: N_8  and  C_25
REMARK    3  A    between atoms: C_10  and  C_15
REMARK    4  A    between atoms: C_15  and  C_17
REMARK    5  A    between atoms: C_17  and  C_18
REMARK                            x       y       z     vdW  Elec       q    Type
REMARK                         _______ _______ _______ _____ _____    ______ ____
ROOT
ATOM      1  O   UNL     1      -3.411  -2.101  25.472  0.00  0.00    -0.274 OA
ATOM      4  N   UNL     1      -3.570   1.108  24.257  0.00  0.00    -0.285 NA
ATOM      5  N   UNL     1      -4.928  -0.439  26.001  0.00  0.00    -0.313 N 
ATOM      9  C   UNL     1      -3.763  -0.294  23.893  0.00  0.00    +0.145 C 
ATOM     10  C   UNL     1      -4.774   1.745  24.800  0.00  0.00    +0.075 C 
ATOM     11  C   UNL     1      -1.958   0.720  22.630  0.00  0.00    +0.090 C 
ATOM     12  C   UNL     1      -2.487  -0.631  23.133  0.00  0.00    +0.052 C 
ATOM     13  C   UNL     1      -2.999   1.747  23.076  0.00  0.00    +0.107 C 
ATOM     14  C   UNL     1      -5.668   0.722  25.539  0.00  0.00    +0.123 C 
ATOM     16  C   UNL     1      -3.980  -1.050  25.191  0.00  0.00    +0.230 C 
ATOM     31  H   UNL     1      -5.178  -0.872  26.883  0.00  0.00    +0.149 HD
ENDROOT
BRANCH  11   6
ATOM      3  O   UNL     1       0.491  -0.651  22.051  0.00  0.00    -0.253 OA
ATOM      6  N   UNL     1      -0.655   1.009  23.180  0.00  0.00    -0.295 N 
ATOM      8  N   UNL     1       1.606   0.793  23.528  0.00  0.00    -0.269 N 
ATOM     19  C   UNL     1       0.497   0.289  22.843  0.00  0.00    +0.304 C 
ATOM     32  H   UNL     1      -0.551   1.826  23.775  0.00  0.00    +0.151 HD
ATOM     33  H   UNL     1       1.437   1.578  24.153  0.00  0.00    +0.156 HD
BRANCH   8  25
ATOM     25  C   UNL     1       2.945   0.343  23.464  0.00  0.00    +0.035 A 
ATOM     26  C   UNL     1       3.956   1.218  23.064  0.00  0.00    +0.023 A 
ATOM     27  C   UNL     1       3.257  -0.974  23.800  0.00  0.00    +0.023 A 
ATOM     28  C   UNL     1       5.277   0.775  23.000  0.00  0.00    +0.002 A 
ATOM     29  C   UNL     1       4.578  -1.418  23.737  0.00  0.00    +0.002 A 
ATOM     30  C   UNL     1       5.588  -0.542  23.336  0.00  0.00    +0.000 A 
ENDBRANCH   8  25
ENDBRANCH  11   6
BRANCH  10  15
ATOM     15  C   UNL     1      -4.347   2.862  25.755  0.00  0.00    +0.029 C 
BRANCH  15  17
ATOM     17  C   UNL     1      -4.619   4.247  25.186  0.00  0.00    +0.097 C 
BRANCH  17  18
ATOM      2  O   UNL     1      -3.474   5.532  23.558  0.00  0.00    -0.276 OA
ATOM      7  N   UNL     1      -2.167   4.543  25.204  0.00  0.00    -0.301 N 
ATOM     18  C   UNL     1      -3.374   4.835  24.571  0.00  0.00    +0.216 C 
ATOM     20  C   UNL     1      -0.913   5.077  24.666  0.00  0.00    +0.108 C 
ATOM     21  C   UNL     1      -2.022   3.755  26.435  0.00  0.00    +0.108 C 
ATOM     22  C   UNL     1       0.098   3.958  24.429  0.00  0.00    +0.019 C 
ATOM     23  C   UNL     1      -1.030   2.611  26.231  0.00  0.00    +0.019 C 
ATOM     24  C   UNL     1       0.305   3.122  25.690  0.00  0.00    +0.003 C 
ENDBRANCH  17  18
ENDBRANCH  15  17
ENDBRANCH  10  15
TORSDOF 5
ENDMDL
MODEL 5
REMARK VINA RESULT:       5.5      2.532      5.406
REMARK  Name = 26762949
REMARK  5 active torsions:
REMARK  status: ('A' for Active; 'I' for Inactive)
REMARK    1  A    between atoms: N_6  and  C_11
REMARK    2  A    between atoms: N_8  and  C_25
REMARK    3  A    between atoms: C_10  and  C_15
REMARK    4  A    between atoms: C_15  and  C_17
REMARK    5  A    between atoms: C_17  and  C_18
REMARK                            x       y       z     vdW  Elec       q    Type
REMARK                         _______ _______ _______ _____ _____    ______ ____
ROOT
ATOM      1  O   UNL     1      -3.425   3.939  27.899  0.00  0.00    -0.274 OA
ATOM      4  N   UNL     1      -3.204   3.960  24.471  0.00  0.00    -0.285 NA
ATOM      5  N   UNL     1      -1.641   4.585  26.578  0.00  0.00    -0.313 N 
ATOM      9  C   UNL     1      -3.850   4.613  25.609  0.00  0.00    +0.145 C 
ATOM     10  C   UNL     1      -1.922   4.563  24.098  0.00  0.00    +0.075 C 
ATOM     11  C   UNL     1      -5.463   3.492  24.186  0.00  0.00    +0.090 C 
ATOM     12  C   UNL     1      -5.239   3.989  25.621  0.00  0.00    +0.052 C 
ATOM     13  C   UNL     1      -4.212   3.920  23.416  0.00  0.00    +0.107 C 
ATOM     14  C   UNL     1      -1.209   5.177  25.324  0.00  0.00    +0.123 C 
ATOM     16  C   UNL     1      -2.983   4.323  26.820  0.00  0.00    +0.230 C 
ATOM     31  H   UNL     1      -0.968   4.457  27.327  0.00  0.00    +0.149 HD
ENDROOT
BRANCH  11   6
ATOM      3  O   UNL     1      -3.518   1.499  24.861  0.00  0.00    -0.253 OA
ATOM      6  N   UNL     1      -5.645   2.060  24.150  0.00  0.00    -0.295 N 
ATOM      8  N   UNL     1      -5.103  -0.161  24.368  0.00  0.00    -0.269 N 
ATOM     19  C   UNL     1      -4.639   1.150  24.498  0.00  0.00    +0.304 C 
ATOM     32  H   UNL     1      -6.570   1.695  23.945  0.00  0.00    +0.151 HD
ATOM     33  H   UNL     1      -6.062  -0.277  24.052  0.00  0.00    +0.156 HD
BRANCH   8  25
ATOM     25  C   UNL     1      -4.396  -1.361  24.622  0.00  0.00    +0.035 A 
ATOM     26  C   UNL     1      -4.301  -2.337  23.630  0.00  0.00    +0.023 A 
ATOM     27  C   UNL     1      -3.795  -1.569  25.863  0.00  0.00    +0.023 A 
ATOM     28  C   UNL     1      -3.605  -3.520  23.879  0.00  0.00    +0.002 A 
ATOM     29  C   UNL     1      -3.099  -2.751  26.113  0.00  0.00    +0.002 A 
ATOM     30  C   UNL     1      -3.005  -3.727  25.120  0.00  0.00    +0.000 A 
ENDBRANCH   8  25
ENDBRANCH  11   6
BRANCH  10  15
ATOM     15  C   UNL     1      -1.042   3.484  23.460  0.00  0.00    +0.029 C 
BRANCH  15  17
ATOM     17  C   UNL     1       0.210   3.200  24.276  0.00  0.00    +0.097 C 
BRANCH  17  18
ATOM      2  O   UNL     1       0.163   2.412  26.509  0.00  0.00    -0.276 OA
ATOM      7  N   UNL     1      -0.531   0.919  24.869  0.00  0.00    -0.301 N 
ATOM     18  C   UNL     1      -0.052   2.148  25.323  0.00  0.00    +0.216 C 
ATOM     20  C   UNL     1      -0.808  -0.155  25.826  0.00  0.00    +0.108 C 
ATOM     21  C   UNL     1      -0.839   0.592  23.471  0.00  0.00    +0.108 C 
ATOM     22  C   UNL     1      -0.073  -1.434  25.437  0.00  0.00    +0.019 C 
ATOM     23  C   UNL     1      -0.104  -0.676  23.038  0.00  0.00    +0.019 C 
ATOM     24  C   UNL     1      -0.381  -1.834  23.995  0.00  0.00    +0.003 C 
ENDBRANCH  17  18
ENDBRANCH  15  17
ENDBRANCH  10  15
TORSDOF 5
ENDMDL
MODEL 6
REMARK VINA RESULT:       5.7      1.951      5.742
REMARK  Name = 26762949
REMARK  5 active torsions:
REMARK  status: ('A' for Active; 'I' for Inactive)
REMARK    1  A    between atoms: N_6  and  C_11
REMARK    2  A    between atoms: N_8  and  C_25
REMARK    3  A    between atoms: C_10  and  C_15
REMARK    4  A    between atoms: C_15  and  C_17
REMARK    5  A    between atoms: C_17  and  C_18
REMARK                            x       y       z     vdW  Elec       q    Type
REMARK                         _______ _______ _______ _____ _____    ______ ____
ROOT
ATOM      1  O   UNL     1      -2.457   3.838  27.644  0.00  0.00    -0.274 OA
ATOM      4  N   UNL     1      -2.449   3.584  24.218  0.00  0.00    -0.285 NA
ATOM      5  N   UNL     1      -0.683   4.112  26.187  0.00  0.00    -0.313 N 
ATOM      9  C   UNL     1      -2.919   4.406  25.332  0.00  0.00    +0.145 C 
ATOM     10  C   UNL     1      -1.118   3.958  23.734  0.00  0.00    +0.075 C 
ATOM     11  C   UNL     1      -4.765   3.445  24.086  0.00  0.00    +0.090 C 
ATOM     12  C   UNL     1      -4.382   4.002  25.465  0.00  0.00    +0.052 C 
ATOM     13  C   UNL     1      -3.515   3.624  23.222  0.00  0.00    +0.107 C 
ATOM     14  C   UNL     1      -0.248   4.542  24.870  0.00  0.00    +0.123 C 
ATOM     16  C   UNL     1      -2.031   4.074  26.516  0.00  0.00    +0.230 C 
ATOM     31  H   UNL     1       0.009   3.936  26.909  0.00  0.00    +0.149 HD
ENDROOT
BRANCH  11   6
ATOM      3  O   UNL     1      -3.024   1.181  24.320  0.00  0.00    -0.253 OA
ATOM      6  N   UNL     1      -5.159   2.059  24.172  0.00  0.00    -0.295 N 
ATOM      8  N   UNL     1      -4.909  -0.218  24.350  0.00  0.00    -0.269 N 
ATOM     19  C   UNL     1      -4.241   1.007  24.286  0.00  0.00    +0.304 C 
ATOM     32  H   UNL     1      -6.148   1.840  24.240  0.00  0.00    +0.151 HD
ATOM     33  H   UNL     1      -5.925  -0.187  24.307  0.00  0.00    +0.156 HD
BRANCH   8  25
ATOM     25  C   UNL     1      -4.344  -1.510  24.468  0.00  0.00    +0.035 A 
ATOM     26  C   UNL     1      -3.558  -1.829  25.574  0.00  0.00    +0.023 A 
ATOM     27  C   UNL     1      -4.575  -2.466  23.478  0.00  0.00    +0.023 A 
ATOM     28  C   UNL     1      -3.001  -3.103  25.690  0.00  0.00    +0.002 A 
ATOM     29  C   UNL     1      -4.019  -3.739  23.593  0.00  0.00    +0.002 A 
ATOM     30  C   UNL     1      -3.231  -4.057  24.700  0.00  0.00    +0.000 A 
ENDBRANCH   8  25
ENDBRANCH  11   6
BRANCH  10  15
ATOM     15  C   UNL     1      -0.448   2.717  23.138  0.00  0.00    +0.029 C 
BRANCH  15  17
ATOM     17  C   UNL     1       0.717   2.225  23.984  0.00  0.00    +0.097 C 
BRANCH  17  18
ATOM      2  O   UNL     1       0.133  -0.071  23.978  0.00  0.00    -0.276 OA
ATOM      7  N   UNL     1       2.255   0.461  23.194  0.00  0.00    -0.301 N 
ATOM     18  C   UNL     1       1.001   0.768  23.721  0.00  0.00    +0.216 C 
ATOM     20  C   UNL     1       2.606  -0.934  22.913  0.00  0.00    +0.108 C 
ATOM     21  C   UNL     1       3.289   1.440  22.837  0.00  0.00    +0.108 C 
ATOM     22  C   UNL     1       3.916  -1.314  23.599  0.00  0.00    +0.019 C 
ATOM     23  C   UNL     1       4.613   1.103  23.521  0.00  0.00    +0.019 C 
ATOM     24  C   UNL     1       5.034  -0.339  23.237  0.00  0.00    +0.003 C 
ENDBRANCH  17  18
ENDBRANCH  15  17
ENDBRANCH  10  15
TORSDOF 5
ENDMDL
MODEL 7
REMARK VINA RESULT:       5.8      2.054      4.059
REMARK  Name = 26762949
REMARK  5 active torsions:
REMARK  status: ('A' for Active; 'I' for Inactive)
REMARK    1  A    between atoms: N_6  and  C_11
REMARK    2  A    between atoms: N_8  and  C_25
REMARK    3  A    between atoms: C_10  and  C_15
REMARK    4  A    between atoms: C_15  and  C_17
REMARK    5  A    between atoms: C_17  and  C_18
REMARK                            x       y       z     vdW  Elec       q    Type
REMARK                         _______ _______ _______ _____ _____    ______ ____
ROOT
ATOM      1  O   UNL     1      -4.760  -0.145  26.668  0.00  0.00    -0.274 OA
ATOM      4  N   UNL     1      -3.564   1.228  23.754  0.00  0.00    -0.285 NA
ATOM      5  N   UNL     1      -5.441   1.792  25.607  0.00  0.00    -0.313 N 
ATOM      9  C   UNL     1      -4.327   0.103  24.295  0.00  0.00    +0.145 C 
ATOM     10  C   UNL     1      -4.389   2.392  23.424  0.00  0.00    +0.075 C 
ATOM     11  C   UNL     1      -2.264  -0.632  23.250  0.00  0.00    +0.090 C 
ATOM     12  C   UNL     1      -3.309  -1.031  24.302  0.00  0.00    +0.052 C 
ATOM     13  C   UNL     1      -2.780   0.679  22.653  0.00  0.00    +0.107 C 
ATOM     14  C   UNL     1      -5.628   2.485  24.345  0.00  0.00    +0.123 C 
ATOM     16  C   UNL     1      -4.837   0.543  25.654  0.00  0.00    +0.230 C 
ATOM     31  H   UNL     1      -5.849   2.178  26.453  0.00  0.00    +0.149 HD
ENDROOT
BRANCH  11   6
ATOM      3  O   UNL     1       0.246  -0.517  21.872  0.00  0.00    -0.253 OA
ATOM      6  N   UNL     1      -0.959  -0.468  23.845  0.00  0.00    -0.295 N 
ATOM      8  N   UNL     1       1.327  -0.256  23.939  0.00  0.00    -0.269 N 
ATOM     19  C   UNL     1       0.224  -0.421  23.097  0.00  0.00    +0.304 C 
ATOM     32  H   UNL     1      -0.900  -0.294  24.844  0.00  0.00    +0.151 HD
ATOM     33  H   UNL     1       1.135  -0.196  24.936  0.00  0.00    +0.156 HD
BRANCH   8  25
ATOM     25  C   UNL     1       2.691  -0.162  23.576  0.00  0.00    +0.035 A 
ATOM     26  C   UNL     1       3.572  -1.193  23.903  0.00  0.00    +0.023 A 
ATOM     27  C   UNL     1       3.156   0.960  22.890  0.00  0.00    +0.023 A 
ATOM     28  C   UNL     1       4.916  -1.102  23.544  0.00  0.00    +0.002 A 
ATOM     29  C   UNL     1       4.500   1.052  22.531  0.00  0.00    +0.002 A 
ATOM     30  C   UNL     1       5.381   0.020  22.859  0.00  0.00    +0.000 A 
ENDBRANCH   8  25
ENDBRANCH  11   6
BRANCH  10  15
ATOM     15  C   UNL     1      -3.532   3.653  23.560  0.00  0.00    +0.029 C 
BRANCH  15  17
ATOM     17  C   UNL     1      -3.767   4.374  24.880  0.00  0.00    +0.097 C 
BRANCH  17  18
ATOM      2  O   UNL     1      -3.438   3.801  27.154  0.00  0.00    -0.276 OA
ATOM      7  N   UNL     1      -1.841   3.035  25.651  0.00  0.00    -0.301 N 
ATOM     18  C   UNL     1      -3.007   3.714  26.002  0.00  0.00    +0.216 C 
ATOM     20  C   UNL     1      -1.045   2.369  26.686  0.00  0.00    +0.108 C 
ATOM     21  C   UNL     1      -1.328   2.876  24.284  0.00  0.00    +0.108 C 
ATOM     22  C   UNL     1       0.408   2.832  26.638  0.00  0.00    +0.019 C 
ATOM     23  C   UNL     1       0.122   3.348  24.192  0.00  0.00    +0.019 C 
ATOM     24  C   UNL     1       0.998   2.662  25.239  0.00  0.00    +0.003 C 
ENDBRANCH  17  18
ENDBRANCH  15  17
ENDBRANCH  10  15
TORSDOF 5
ENDMDL
MODEL 8
REMARK VINA RESULT:       6.1      1.869      5.475
REMARK  Name = 26762949
REMARK  5 active torsions:
REMARK  status: ('A' for Active; 'I' for Inactive)
REMARK    1  A    between atoms: N_6  and  C_11
REMARK    2  A    between atoms: N_8  and  C_25
REMARK    3  A    between atoms: C_10  and  C_15
REMARK    4  A    between atoms: C_15  and  C_17
REMARK    5  A    between atoms: C_17  and  C_18
REMARK                            x       y       z     vdW  Elec       q    Type
REMARK                         _______ _______ _______ _____ _____    ______ ____
ROOT
ATOM      1  O   UNL     1      -3.101   4.026  27.893  0.00  0.00    -0.274 OA
ATOM      4  N   UNL     1      -3.661   3.462  24.551  0.00  0.00    -0.285 NA
ATOM      5  N   UNL     1      -1.904   4.821  26.082  0.00  0.00    -0.313 N 
ATOM      9  C   UNL     1      -4.192   4.143  25.731  0.00  0.00    +0.145 C 
ATOM     10  C   UNL     1      -2.711   4.273  23.784  0.00  0.00    +0.075 C 
ATOM     11  C   UNL     1      -5.707   2.426  24.928  0.00  0.00    +0.090 C 
ATOM     12  C   UNL     1      -5.316   3.220  26.183  0.00  0.00    +0.052 C 
ATOM     13  C   UNL     1      -4.826   2.989  23.811  0.00  0.00    +0.107 C 
ATOM     14  C   UNL     1      -1.943   5.256  24.697  0.00  0.00    +0.123 C 
ATOM     16  C   UNL     1      -3.033   4.297  26.697  0.00  0.00    +0.230 C 
ATOM     31  H   UNL     1      -1.074   4.998  26.638  0.00  0.00    +0.149 HD
ENDROOT
BRANCH  11   6
ATOM      3  O   UNL     1      -3.678   0.826  23.690  0.00  0.00    -0.253 OA
ATOM      6  N   UNL     1      -5.489   1.011  25.115  0.00  0.00    -0.295 N 
ATOM      8  N   UNL     1      -4.503  -1.046  24.842  0.00  0.00    -0.269 N 
ATOM     19  C   UNL     1      -4.470   0.300  24.469  0.00  0.00    +0.304 C 
ATOM     32  H   UNL     1      -6.046   0.524  25.810  0.00  0.00    +0.151 HD
ATOM     33  H   UNL     1      -5.229  -1.319  25.500  0.00  0.00    +0.156 HD
BRANCH   8  25
ATOM     25  C   UNL     1      -3.646  -2.087  24.413  0.00  0.00    +0.035 A 
ATOM     26  C   UNL     1      -4.164  -3.162  23.692  0.00  0.00    +0.023 A 
ATOM     27  C   UNL     1      -2.284  -2.039  24.712  0.00  0.00    +0.023 A 
ATOM     28  C   UNL     1      -3.320  -4.189  23.269  0.00  0.00    +0.002 A 
ATOM     29  C   UNL     1      -1.440  -3.065  24.289  0.00  0.00    +0.002 A 
ATOM     30  C   UNL     1      -1.959  -4.141  23.568  0.00  0.00    +0.000 A 
ENDBRANCH   8  25
ENDBRANCH  11   6
BRANCH  10  15
ATOM     15  C   UNL     1      -1.732   3.336  23.072  0.00  0.00    +0.029 C 
BRANCH  15  17
ATOM     17  C   UNL     1      -1.316   2.160  23.944  0.00  0.00    +0.097 C 
BRANCH  17  18
ATOM      2  O   UNL     1       0.637   3.141  24.859  0.00  0.00    -0.276 OA
ATOM      7  N   UNL     1       0.916   1.123  23.744  0.00  0.00    -0.301 N 
ATOM     18  C   UNL     1       0.164   2.192  24.227  0.00  0.00    +0.216 C 
ATOM     20  C   UNL     1       2.362   1.083  23.977  0.00  0.00    +0.108 C 
ATOM     21  C   UNL     1       0.376  -0.041  23.030  0.00  0.00    +0.108 C 
ATOM     22  C   UNL     1       3.121   0.903  22.665  0.00  0.00    +0.019 C 
ATOM     23  C   UNL     1       1.099  -0.243  21.699  0.00  0.00    +0.019 C 
ATOM     24  C   UNL     1       2.613  -0.314  21.893  0.00  0.00    +0.003 C 
ENDBRANCH  17  18
ENDBRANCH  15  17
ENDBRANCH  10  15
TORSDOF 5
ENDMDL
