MODEL 1
REMARK VINA RESULT:       4.5      0.000      0.000
REMARK  Name = 25389563
REMARK  9 active torsions:
REMARK  status: ('A' for Active; 'I' for Inactive)
REMARK    1  A    between atoms: O_2  and  C_17
REMARK    2  A    between atoms: O_2  and  C_22
REMARK    3  A    between atoms: N_6  and  C_20
REMARK    4  A    between atoms: N_8  and  C_26
REMARK    5  A    between atoms: C_10  and  C_16
REMARK    6  A    between atoms: C_11  and  C_17
REMARK    7  A    between atoms: C_19  and  C_21
REMARK    8  A    between atoms: C_31  and  C_32
REMARK    9  A    between atoms: C_32  and  C_33
REMARK                            x       y       z     vdW  Elec       q    Type
REMARK                         _______ _______ _______ _____ _____    ______ ____
ROOT
ATOM      5  N   UNL     1      -4.552   2.113  23.680  0.00  0.00    -0.296 NA
ATOM      9  C   UNL     1      -4.332   3.187  26.043  0.00  0.00    +0.002 C 
ATOM     10  C   UNL     1      -3.096   3.539  25.169  0.00  0.00    +0.055 C 
ATOM     11  C   UNL     1      -4.803   1.090  24.729  0.00  0.00    +0.095 C 
ATOM     12  C   UNL     1      -4.476   1.653  26.128  0.00  0.00    +0.026 C 
ATOM     13  C   UNL     1      -5.573   3.718  25.293  0.00  0.00    +0.019 C 
ATOM     14  C   UNL     1      -3.202   2.705  23.859  0.00  0.00    +0.094 C 
ATOM     15  C   UNL     1      -5.555   3.192  23.847  0.00  0.00    +0.085 C 
ENDROOT
BRANCH  10  16
ATOM      6  N   UNL     1      -0.583   3.894  25.193  0.00  0.00    -0.270 N 
ATOM      7  N   UNL     1       0.532   3.716  25.919  0.00  0.00    -0.171 NA
ATOM     16  C   UNL     1      -1.716   3.444  25.804  0.00  0.00    +0.044 A 
ATOM     18  C   UNL     1      -1.313   2.937  27.015  0.00  0.00    +0.053 A 
ATOM     19  C   UNL     1       0.080   3.131  27.032  0.00  0.00    +0.100 A 
ATOM     20  C   UNL     1      -0.487   4.516  23.892  0.00  0.00    +0.172 C 
BRANCH  19  21
ATOM      1  S   UNL     1       2.690   2.884  28.043  0.00  0.00    -0.095 S 
ATOM     21  C   UNL     1       0.985   2.751  28.131  0.00  0.00    +0.039 A 
ATOM     23  C   UNL     1       0.568   2.247  29.344  0.00  0.00    +0.018 A 
ATOM     24  C   UNL     1       1.663   1.968  30.212  0.00  0.00    +0.008 A 
ATOM     25  C   UNL     1       2.874   2.269  29.630  0.00  0.00    +0.046 A 
ENDBRANCH  19  21
ENDBRANCH  10  16
BRANCH  11  17
ATOM     17  C   UNL     1      -4.062  -0.220  24.453  0.00  0.00    +0.252 C 
BRANCH  17   2
ATOM      2  O   UNL     1      -3.372  -0.598  25.629  0.00  0.00    -0.449 OA
BRANCH   2  22
ATOM      3  O   UNL     1      -1.289  -0.796  26.552  0.00  0.00    -0.226 OA
ATOM      8  N   UNL     1      -1.593  -0.168  24.318  0.00  0.00    -0.251 N 
ATOM     22  C   UNL     1      -1.996  -0.541  25.585  0.00  0.00    +0.405 C 
ATOM     34  H   UNL     1      -2.334   0.001  23.641  0.00  0.00    +0.158 HD
BRANCH   8  26
ATOM     26  C   UNL     1      -0.274   0.009  23.841  0.00  0.00    +0.036 A 
ATOM     27  C   UNL     1       0.276  -0.914  22.950  0.00  0.00    +0.024 A 
ATOM     28  C   UNL     1       0.477   1.107  24.260  0.00  0.00    +0.024 A 
ATOM     29  C   UNL     1       1.576  -0.739  22.481  0.00  0.00    +0.013 A 
ATOM     30  C   UNL     1       1.779   1.281  23.790  0.00  0.00    +0.013 A 
ATOM     31  C   UNL     1       2.329   0.358  22.901  0.00  0.00    +0.017 A 
BRANCH  31  32
ATOM      4  O   UNL     1       3.926   0.671  21.194  0.00  0.00    -0.292 OA
ATOM     32  C   UNL     1       3.686   0.539  22.410  0.00  0.00    +0.160 C 
ATOM     33  C   UNL     1       4.858   0.572  23.386  0.00  0.00    +0.091 C 
ENDBRANCH  31  32
ENDBRANCH   8  26
ENDBRANCH   2  22
ENDBRANCH  17   2
ENDBRANCH  11  17
TORSDOF 7
ENDMDL
MODEL 2
REMARK VINA RESULT:       5.6      3.113      4.698
REMARK  Name = 25389563
REMARK  9 active torsions:
REMARK  status: ('A' for Active; 'I' for Inactive)
REMARK    1  A    between atoms: O_2  and  C_17
REMARK    2  A    between atoms: O_2  and  C_22
REMARK    3  A    between atoms: N_6  and  C_20
REMARK    4  A    between atoms: N_8  and  C_26
REMARK    5  A    between atoms: C_10  and  C_16
REMARK    6  A    between atoms: C_11  and  C_17
REMARK    7  A    between atoms: C_19  and  C_21
REMARK    8  A    between atoms: C_31  and  C_32
REMARK    9  A    between atoms: C_32  and  C_33
REMARK                            x       y       z     vdW  Elec       q    Type
REMARK                         _______ _______ _______ _____ _____    ______ ____
ROOT
ATOM      5  N   UNL     1      -3.094  -2.529  23.835  0.00  0.00    -0.296 NA
ATOM      9  C   UNL     1      -3.020  -1.366  26.164  0.00  0.00    +0.002 C 
ATOM     10  C   UNL     1      -3.919  -0.563  25.184  0.00  0.00    +0.055 C 
ATOM     11  C   UNL     1      -1.685  -2.379  24.284  0.00  0.00    +0.095 C 
ATOM     12  C   UNL     1      -1.608  -1.512  25.558  0.00  0.00    +0.026 C 
ATOM     13  C   UNL     1      -3.622  -2.785  26.259  0.00  0.00    +0.019 C 
ATOM     14  C   UNL     1      -3.753  -1.200  23.774  0.00  0.00    +0.094 C 
ATOM     15  C   UNL     1      -3.807  -3.352  24.841  0.00  0.00    +0.085 C 
ENDROOT
BRANCH  10  16
ATOM      6  N   UNL     1      -4.839   1.803  25.224  0.00  0.00    -0.270 N 
ATOM      7  N   UNL     1      -4.499   3.101  25.180  0.00  0.00    -0.171 NA
ATOM     16  C   UNL     1      -3.775   0.952  25.154  0.00  0.00    +0.044 A 
ATOM     18  C   UNL     1      -2.662   1.751  25.058  0.00  0.00    +0.053 A 
ATOM     19  C   UNL     1      -3.168   3.064  25.079  0.00  0.00    +0.100 A 
ATOM     20  C   UNL     1      -6.233   1.441  25.336  0.00  0.00    +0.172 C 
BRANCH  19  21
ATOM      1  S   UNL     1      -0.671   4.304  24.727  0.00  0.00    -0.095 S 
ATOM     21  C   UNL     1      -2.361   4.295  25.002  0.00  0.00    +0.039 A 
ATOM     23  C   UNL     1      -2.869   5.568  25.142  0.00  0.00    +0.018 A 
ATOM     24  C   UNL     1      -1.856   6.564  25.021  0.00  0.00    +0.008 A 
ATOM     25  C   UNL     1      -0.614   6.013  24.793  0.00  0.00    +0.046 A 
ENDBRANCH  19  21
ENDBRANCH  10  16
BRANCH  11  17
ATOM     17  C   UNL     1      -0.774  -1.847  23.175  0.00  0.00    +0.252 C 
BRANCH  17   2
ATOM      2  O   UNL     1      -0.768  -0.434  23.243  0.00  0.00    -0.449 OA
BRANCH   2  22
ATOM      3  O   UNL     1       0.545   1.292  23.969  0.00  0.00    -0.226 OA
ATOM      8  N   UNL     1       1.466  -0.683  23.114  0.00  0.00    -0.251 N 
ATOM     22  C   UNL     1       0.446   0.169  23.489  0.00  0.00    +0.405 C 
ATOM     34  H   UNL     1       1.183  -1.582  22.733  0.00  0.00    +0.158 HD
BRANCH   8  26
ATOM     26  C   UNL     1       2.859  -0.461  23.196  0.00  0.00    +0.036 A 
ATOM     27  C   UNL     1       3.411   0.714  22.685  0.00  0.00    +0.024 A 
ATOM     28  C   UNL     1       3.684  -1.419  23.789  0.00  0.00    +0.024 A 
ATOM     29  C   UNL     1       4.785   0.932  22.766  0.00  0.00    +0.013 A 
ATOM     30  C   UNL     1       5.059  -1.201  23.869  0.00  0.00    +0.013 A 
ATOM     31  C   UNL     1       5.610  -0.026  23.358  0.00  0.00    +0.017 A 
BRANCH  31  32
ATOM      4  O   UNL     1       7.514   1.163  24.083  0.00  0.00    -0.292 OA
ATOM     32  C   UNL     1       7.044   0.203  23.441  0.00  0.00    +0.160 C 
ATOM     33  C   UNL     1       8.015  -0.740  22.738  0.00  0.00    +0.091 C 
ENDBRANCH  31  32
ENDBRANCH   8  26
ENDBRANCH   2  22
ENDBRANCH  17   2
ENDBRANCH  11  17
TORSDOF 7
ENDMDL
MODEL 3
REMARK VINA RESULT:       7.1      2.535      5.332
REMARK  Name = 25389563
REMARK  9 active torsions:
REMARK  status: ('A' for Active; 'I' for Inactive)
REMARK    1  A    between atoms: O_2  and  C_17
REMARK    2  A    between atoms: O_2  and  C_22
REMARK    3  A    between atoms: N_6  and  C_20
REMARK    4  A    between atoms: N_8  and  C_26
REMARK    5  A    between atoms: C_10  and  C_16
REMARK    6  A    between atoms: C_11  and  C_17
REMARK    7  A    between atoms: C_19  and  C_21
REMARK    8  A    between atoms: C_31  and  C_32
REMARK    9  A    between atoms: C_32  and  C_33
REMARK                            x       y       z     vdW  Elec       q    Type
REMARK                         _______ _______ _______ _____ _____    ______ ____
ROOT
ATOM      5  N   UNL     1      -4.293   1.557  25.000  0.00  0.00    -0.296 NA
ATOM      9  C   UNL     1      -3.710  -0.563  23.604  0.00  0.00    +0.002 C 
ATOM     10  C   UNL     1      -2.702  -0.388  24.774  0.00  0.00    +0.055 C 
ATOM     11  C   UNL     1      -4.248   1.897  23.553  0.00  0.00    +0.095 C 
ATOM     12  C   UNL     1      -3.705   0.709  22.731  0.00  0.00    +0.026 C 
ATOM     13  C   UNL     1      -5.114  -0.672  24.239  0.00  0.00    +0.019 C 
ATOM     14  C   UNL     1      -2.990   0.993  25.430  0.00  0.00    +0.094 C 
ATOM     15  C   UNL     1      -5.333   0.517  25.191  0.00  0.00    +0.085 C 
ENDROOT
BRANCH  10  16
ATOM      6  N   UNL     1      -0.574  -1.769  24.719  0.00  0.00    -0.270 N 
ATOM      7  N   UNL     1       0.730  -1.745  24.397  0.00  0.00    -0.171 NA
ATOM     16  C   UNL     1      -1.222  -0.593  24.483  0.00  0.00    +0.044 A 
ATOM     18  C   UNL     1      -0.276   0.260  23.970  0.00  0.00    +0.053 A 
ATOM     19  C   UNL     1       0.906  -0.502  23.939  0.00  0.00    +0.100 A 
ATOM     20  C   UNL     1      -1.143  -2.982  25.261  0.00  0.00    +0.172 C 
BRANCH  19  21
ATOM      1  S   UNL     1       3.641  -0.981  23.508  0.00  0.00    -0.095 S 
ATOM     21  C   UNL     1       2.218  -0.029  23.464  0.00  0.00    +0.039 A 
ATOM     23  C   UNL     1       2.449   1.222  22.934  0.00  0.00    +0.018 A 
ATOM     24  C   UNL     1       3.813   1.401  22.560  0.00  0.00    +0.008 A 
ATOM     25  C   UNL     1       4.571   0.280  22.817  0.00  0.00    +0.046 A 
ENDBRANCH  19  21
ENDBRANCH  10  16
BRANCH  11  17
ATOM     17  C   UNL     1      -3.467   3.184  23.281  0.00  0.00    +0.252 C 
BRANCH  17   2
ATOM      2  O   UNL     1      -3.840   4.145  24.249  0.00  0.00    -0.449 OA
BRANCH   2  22
ATOM      3  O   UNL     1      -3.415   4.838  26.387  0.00  0.00    -0.226 OA
ATOM      8  N   UNL     1      -1.963   3.401  25.245  0.00  0.00    -0.251 N 
ATOM     22  C   UNL     1      -3.088   4.187  25.403  0.00  0.00    +0.405 C 
ATOM     34  H   UNL     1      -1.863   2.933  24.348  0.00  0.00    +0.158 HD
BRANCH   8  26
ATOM     26  C   UNL     1      -0.929   3.164  26.179  0.00  0.00    +0.036 A 
ATOM     27  C   UNL     1      -1.228   3.051  27.537  0.00  0.00    +0.024 A 
ATOM     28  C   UNL     1       0.391   3.043  25.742  0.00  0.00    +0.024 A 
ATOM     29  C   UNL     1      -0.207   2.818  28.458  0.00  0.00    +0.013 A 
ATOM     30  C   UNL     1       1.412   2.810  26.664  0.00  0.00    +0.013 A 
ATOM     31  C   UNL     1       1.113   2.697  28.022  0.00  0.00    +0.017 A 
BRANCH  31  32
ATOM      4  O   UNL     1       3.374   2.638  28.691  0.00  0.00    -0.292 OA
ATOM     32  C   UNL     1       2.176   2.454  28.984  0.00  0.00    +0.160 C 
ATOM     33  C   UNL     1       1.843   1.963  30.390  0.00  0.00    +0.091 C 
ENDBRANCH  31  32
ENDBRANCH   8  26
ENDBRANCH   2  22
ENDBRANCH  17   2
ENDBRANCH  11  17
TORSDOF 7
ENDMDL
MODEL 4
REMARK VINA RESULT:       7.1      2.492      5.349
REMARK  Name = 25389563
REMARK  9 active torsions:
REMARK  status: ('A' for Active; 'I' for Inactive)
REMARK    1  A    between atoms: O_2  and  C_17
REMARK    2  A    between atoms: O_2  and  C_22
REMARK    3  A    between atoms: N_6  and  C_20
REMARK    4  A    between atoms: N_8  and  C_26
REMARK    5  A    between atoms: C_10  and  C_16
REMARK    6  A    between atoms: C_11  and  C_17
REMARK    7  A    between atoms: C_19  and  C_21
REMARK    8  A    between atoms: C_31  and  C_32
REMARK    9  A    between atoms: C_32  and  C_33
REMARK                            x       y       z     vdW  Elec       q    Type
REMARK                         _______ _______ _______ _____ _____    ______ ____
ROOT
ATOM      5  N   UNL     1      -5.248   2.733  26.076  0.00  0.00    -0.296 NA
ATOM      9  C   UNL     1      -5.175   1.147  24.012  0.00  0.00    +0.002 C 
ATOM     10  C   UNL     1      -4.188   0.658  25.108  0.00  0.00    +0.055 C 
ATOM     11  C   UNL     1      -5.081   3.527  24.830  0.00  0.00    +0.095 C 
ATOM     12  C   UNL     1      -4.828   2.599  23.624  0.00  0.00    +0.026 C 
ATOM     13  C   UNL     1      -6.578   1.172  24.657  0.00  0.00    +0.019 C 
ATOM     14  C   UNL     1      -4.139   1.756  26.210  0.00  0.00    +0.094 C 
ATOM     15  C   UNL     1      -6.519   1.977  25.966  0.00  0.00    +0.085 C 
ENDROOT
BRANCH  10  16
ATOM      6  N   UNL     1      -2.358  -1.073  24.801  0.00  0.00    -0.270 N 
ATOM      7  N   UNL     1      -1.102  -1.262  24.363  0.00  0.00    -0.171 NA
ATOM     16  C   UNL     1      -2.798   0.211  24.676  0.00  0.00    +0.044 A 
ATOM     18  C   UNL     1      -1.758   0.912  24.118  0.00  0.00    +0.053 A 
ATOM     19  C   UNL     1      -0.740  -0.045  23.946  0.00  0.00    +0.100 A 
ATOM     20  C   UNL     1      -3.093  -2.195  25.339  0.00  0.00    +0.172 C 
BRANCH  19  21
ATOM      1  S   UNL     1       1.273  -0.706  22.102  0.00  0.00    -0.095 S 
ATOM     21  C   UNL     1       0.593   0.215  23.375  0.00  0.00    +0.039 A 
ATOM     23  C   UNL     1       1.438   1.219  23.796  0.00  0.00    +0.018 A 
ATOM     24  C   UNL     1       2.660   1.231  23.063  0.00  0.00    +0.008 A 
ATOM     25  C   UNL     1       2.702   0.238  22.110  0.00  0.00    +0.046 A 
ENDBRANCH  19  21
ENDBRANCH  10  16
BRANCH  11  17
ATOM     17  C   UNL     1      -3.996   4.598  24.964  0.00  0.00    +0.252 C 
BRANCH  17   2
ATOM      2  O   UNL     1      -2.887   4.210  24.175  0.00  0.00    -0.449 OA
BRANCH   2  22
ATOM      3  O   UNL     1      -0.683   4.786  24.380  0.00  0.00    -0.226 OA
ATOM      8  N   UNL     1      -1.742   3.389  25.931  0.00  0.00    -0.251 N 
ATOM     22  C   UNL     1      -1.661   4.181  24.803  0.00  0.00    +0.405 C 
ATOM     34  H   UNL     1      -2.647   2.967  26.121  0.00  0.00    +0.158 HD
BRANCH   8  26
ATOM     26  C   UNL     1      -0.719   3.091  26.860  0.00  0.00    +0.036 A 
ATOM     27  C   UNL     1      -0.998   3.085  28.228  0.00  0.00    +0.024 A 
ATOM     28  C   UNL     1       0.570   2.801  26.410  0.00  0.00    +0.024 A 
ATOM     29  C   UNL     1       0.012   2.792  29.143  0.00  0.00    +0.013 A 
ATOM     30  C   UNL     1       1.579   2.508  27.327  0.00  0.00    +0.013 A 
ATOM     31  C   UNL     1       1.300   2.503  28.693  0.00  0.00    +0.017 A 
BRANCH  31  32
ATOM      4  O   UNL     1       2.102   1.641  30.736  0.00  0.00    -0.292 OA
ATOM     32  C   UNL     1       2.352   2.197  29.650  0.00  0.00    +0.160 C 
ATOM     33  C   UNL     1       3.803   2.555  29.338  0.00  0.00    +0.091 C 
ENDBRANCH  31  32
ENDBRANCH   8  26
ENDBRANCH   2  22
ENDBRANCH  17   2
ENDBRANCH  11  17
TORSDOF 7
ENDMDL
MODEL 5
REMARK VINA RESULT:       7.8      2.917      4.907
REMARK  Name = 25389563
REMARK  9 active torsions:
REMARK  status: ('A' for Active; 'I' for Inactive)
REMARK    1  A    between atoms: O_2  and  C_17
REMARK    2  A    between atoms: O_2  and  C_22
REMARK    3  A    between atoms: N_6  and  C_20
REMARK    4  A    between atoms: N_8  and  C_26
REMARK    5  A    between atoms: C_10  and  C_16
REMARK    6  A    between atoms: C_11  and  C_17
REMARK    7  A    between atoms: C_19  and  C_21
REMARK    8  A    between atoms: C_31  and  C_32
REMARK    9  A    between atoms: C_32  and  C_33
REMARK                            x       y       z     vdW  Elec       q    Type
REMARK                         _______ _______ _______ _____ _____    ______ ____
ROOT
ATOM      5  N   UNL     1      -2.428   4.816  26.093  0.00  0.00    -0.296 NA
ATOM      9  C   UNL     1      -4.542   4.080  24.763  0.00  0.00    +0.002 C 
ATOM     10  C   UNL     1      -4.117   2.971  25.765  0.00  0.00    +0.055 C 
ATOM     11  C   UNL     1      -2.208   5.016  24.636  0.00  0.00    +0.095 C 
ATOM     12  C   UNL     1      -3.362   4.396  23.821  0.00  0.00    +0.026 C 
ATOM     13  C   UNL     1      -4.813   5.352  25.595  0.00  0.00    +0.019 C 
ATOM     14  C   UNL     1      -2.747   3.393  26.368  0.00  0.00    +0.094 C 
ATOM     15  C   UNL     1      -3.597   5.637  26.493  0.00  0.00    +0.085 C 
ENDROOT
BRANCH  10  16
ATOM      6  N   UNL     1      -5.249   0.864  24.916  0.00  0.00    -0.270 N 
ATOM      7  N   UNL     1      -5.034  -0.402  24.520  0.00  0.00    -0.171 NA
ATOM     16  C   UNL     1      -4.115   1.527  25.281  0.00  0.00    +0.044 A 
ATOM     18  C   UNL     1      -3.086   0.633  25.112  0.00  0.00    +0.053 A 
ATOM     19  C   UNL     1      -3.711  -0.537  24.642  0.00  0.00    +0.100 A 
ATOM     20  C   UNL     1      -6.598   1.382  24.919  0.00  0.00    +0.172 C 
BRANCH  19  21
ATOM      1  S   UNL     1      -1.340  -2.038  24.489  0.00  0.00    -0.095 S 
ATOM     21  C   UNL     1      -3.026  -1.798  24.305  0.00  0.00    +0.039 A 
ATOM     23  C   UNL     1      -3.656  -2.918  23.809  0.00  0.00    +0.018 A 
ATOM     24  C   UNL     1      -2.743  -3.987  23.576  0.00  0.00    +0.008 A 
ATOM     25  C   UNL     1      -1.450  -3.643  23.904  0.00  0.00    +0.046 A 
ENDBRANCH  19  21
ENDBRANCH  10  16
BRANCH  11  17
ATOM     17  C   UNL     1      -0.843   4.499  24.177  0.00  0.00    +0.252 C 
BRANCH  17   2
ATOM      2  O   UNL     1      -0.948   3.107  23.947  0.00  0.00    -0.449 OA
BRANCH   2  22
ATOM      3  O   UNL     1       0.258   2.054  25.580  0.00  0.00    -0.226 OA
ATOM      8  N   UNL     1       0.867   1.930  23.324  0.00  0.00    -0.251 N 
ATOM     22  C   UNL     1       0.094   2.325  24.397  0.00  0.00    +0.405 C 
ATOM     34  H   UNL     1       0.568   2.258  22.409  0.00  0.00    +0.158 HD
BRANCH   8  26
ATOM     26  C   UNL     1       2.027   1.122  23.337  0.00  0.00    +0.036 A 
ATOM     27  C   UNL     1       1.917  -0.254  23.544  0.00  0.00    +0.024 A 
ATOM     28  C   UNL     1       3.282   1.700  23.143  0.00  0.00    +0.024 A 
ATOM     29  C   UNL     1       3.061  -1.050  23.558  0.00  0.00    +0.013 A 
ATOM     30  C   UNL     1       4.427   0.903  23.158  0.00  0.00    +0.013 A 
ATOM     31  C   UNL     1       4.316  -0.472  23.365  0.00  0.00    +0.017 A 
BRANCH  31  32
ATOM      4  O   UNL     1       5.457  -2.512  23.684  0.00  0.00    -0.292 OA
ATOM     32  C   UNL     1       5.509  -1.304  23.380  0.00  0.00    +0.160 C 
ATOM     33  C   UNL     1       6.866  -0.708  23.018  0.00  0.00    +0.091 C 
ENDBRANCH  31  32
ENDBRANCH   8  26
ENDBRANCH   2  22
ENDBRANCH  17   2
ENDBRANCH  11  17
TORSDOF 7
ENDMDL
