MODEL 1
REMARK VINA RESULT:       4.7      0.000      0.000
REMARK  Name = 51136974
REMARK  8 active torsions:
REMARK  status: ('A' for Active; 'I' for Inactive)
REMARK    1  A    between atoms: O_2  and  C_12
REMARK    2  A    between atoms: O_3  and  C_19
REMARK    3  A    between atoms: N_5  and  C_10
REMARK    4  A    between atoms: N_6  and  C_20
REMARK    5  A    between atoms: N_7  and  C_16
REMARK    6  A    between atoms: C_11  and  C_16
REMARK    7  A    between atoms: C_13  and  C_19
REMARK    8  A    between atoms: C_21  and  C_24
REMARK                            x       y       z     vdW  Elec       q    Type
REMARK                         _______ _______ _______ _____ _____    ______ ____
ROOT
ATOM      1  O   UNL     1       4.437   1.233  23.047  0.00  0.00    -0.365 OA
ATOM     10  C   UNL     1       2.546  -0.016  22.317  0.00  0.00    +0.118 C 
ATOM     11  C   UNL     1       3.001   1.322  22.915  0.00  0.00    +0.155 C 
ATOM     12  C   UNL     1       3.640  -0.977  22.759  0.00  0.00    +0.165 C 
ATOM     13  C   UNL     1       4.867  -0.079  22.640  0.00  0.00    +0.174 C 
ENDROOT
BRANCH  10   5
ATOM      5  N   UNL     1       1.191  -0.433  22.633  0.00  0.00    -0.292 NA
ATOM      6  N   UNL     1      -1.348  -0.280  23.932  0.00  0.00    -0.327 N 
ATOM     14  C   UNL     1       0.231   0.615  22.266  0.00  0.00    +0.104 C 
ATOM     15  C   UNL     1       1.069  -0.746  24.063  0.00  0.00    +0.104 C 
ATOM     17  C   UNL     1      -1.206   0.166  22.542  0.00  0.00    +0.120 C 
ATOM     18  C   UNL     1      -0.340  -1.241  24.398  0.00  0.00    +0.120 C 
BRANCH   6  20
ATOM     20  C   UNL     1      -2.616  -0.321  24.521  0.00  0.00    +0.030 A 
ATOM     22  C   UNL     1      -3.693   0.313  23.903  0.00  0.00    +0.023 A 
ATOM     23  C   UNL     1      -2.803  -0.996  25.727  0.00  0.00    +0.023 A 
ATOM     25  C   UNL     1      -4.958   0.272  24.491  0.00  0.00    +0.002 A 
ATOM     26  C   UNL     1      -4.067  -1.038  26.315  0.00  0.00    +0.002 A 
ATOM     27  C   UNL     1      -5.145  -0.403  25.698  0.00  0.00    +0.000 A 
ENDBRANCH   6  20
ENDBRANCH  10   5
BRANCH  12   2
ATOM      2  O   UNL     1       3.457  -1.391  24.106  0.00  0.00    -0.388 OA
ATOM     34  H   UNL     1       4.050  -2.146  24.264  0.00  0.00    +0.210 HD
ENDBRANCH  12   2
BRANCH  11  16
ATOM     16  C   UNL     1       2.442   1.683  24.287  0.00  0.00    +0.137 C 
BRANCH  16   7
ATOM      4  O   UNL     1       0.770   2.572  26.446  0.00  0.00    -0.270 OA
ATOM      7  N   UNL     1       1.087   2.134  24.189  0.00  0.00    -0.309 N 
ATOM     21  C   UNL     1       0.346   2.550  25.293  0.00  0.00    +0.244 C 
ATOM     35  H   UNL     1       0.654   2.073  23.274  0.00  0.00    +0.149 HD
BRANCH  21  24
ATOM      8  N   UNL     1      -4.411   3.490  26.537  0.00  0.00    -0.344 N 
ATOM      9  N   UNL     1      -5.014   4.087  24.483  0.00  0.00    -0.236 NA
ATOM     24  C   UNL     1      -1.056   2.964  25.027  0.00  0.00    +0.039 A 
ATOM     28  C   UNL     1      -1.977   2.970  26.080  0.00  0.00    +0.040 A 
ATOM     29  C   UNL     1      -1.430   3.337  23.734  0.00  0.00    +0.015 A 
ATOM     30  C   UNL     1      -3.279   3.367  25.773  0.00  0.00    +0.067 A 
ATOM     31  C   UNL     1      -2.742   3.732  23.449  0.00  0.00    +0.030 A 
ATOM     32  C   UNL     1      -3.681   3.745  24.495  0.00  0.00    +0.089 A 
ATOM     33  C   UNL     1      -5.419   3.922  25.722  0.00  0.00    +0.197 A 
ATOM     37  H   UNL     1      -4.485   3.296  27.527  0.00  0.00    +0.167 HD
ENDBRANCH  21  24
ENDBRANCH  16   7
ENDBRANCH  11  16
BRANCH  13  19
ATOM     19  C   UNL     1       6.063  -0.496  23.475  0.00  0.00    +0.190 C 
BRANCH  19   3
ATOM      3  O   UNL     1       5.663  -0.596  24.832  0.00  0.00    -0.392 OA
ATOM     36  H   UNL     1       5.528  -1.540  25.023  0.00  0.00    +0.210 HD
ENDBRANCH  19   3
ENDBRANCH  13  19
TORSDOF 8
ENDMDL
MODEL 2
REMARK VINA RESULT:       5.1      3.296      7.350
REMARK  Name = 51136974
REMARK  8 active torsions:
REMARK  status: ('A' for Active; 'I' for Inactive)
REMARK    1  A    between atoms: O_2  and  C_12
REMARK    2  A    between atoms: O_3  and  C_19
REMARK    3  A    between atoms: N_5  and  C_10
REMARK    4  A    between atoms: N_6  and  C_20
REMARK    5  A    between atoms: N_7  and  C_16
REMARK    6  A    between atoms: C_11  and  C_16
REMARK    7  A    between atoms: C_13  and  C_19
REMARK    8  A    between atoms: C_21  and  C_24
REMARK                            x       y       z     vdW  Elec       q    Type
REMARK                         _______ _______ _______ _____ _____    ______ ____
ROOT
ATOM      1  O   UNL     1      -4.792   4.755  24.276  0.00  0.00    -0.365 OA
ATOM     10  C   UNL     1      -2.626   3.897  24.765  0.00  0.00    +0.118 C 
ATOM     11  C   UNL     1      -3.621   4.200  23.637  0.00  0.00    +0.155 C 
ATOM     12  C   UNL     1      -3.529   3.691  25.972  0.00  0.00    +0.165 C 
ATOM     13  C   UNL     1      -4.600   4.742  25.703  0.00  0.00    +0.174 C 
ENDROOT
BRANCH  10   5
ATOM      5  N   UNL     1      -1.676   2.828  24.513  0.00  0.00    -0.292 NA
ATOM      6  N   UNL     1       0.847   1.697  23.796  0.00  0.00    -0.327 N 
ATOM     14  C   UNL     1      -0.529   2.933  25.423  0.00  0.00    +0.104 C 
ATOM     15  C   UNL     1      -1.214   2.868  23.120  0.00  0.00    +0.104 C 
ATOM     17  C   UNL     1       0.453   1.779  25.206  0.00  0.00    +0.120 C 
ATOM     18  C   UNL     1      -0.255   1.711  22.826  0.00  0.00    +0.120 C 
BRANCH   6  20
ATOM     20  C   UNL     1       2.025   1.031  23.442  0.00  0.00    +0.030 A 
ATOM     22  C   UNL     1       3.163   1.759  23.097  0.00  0.00    +0.023 A 
ATOM     23  C   UNL     1       2.062  -0.364  23.434  0.00  0.00    +0.023 A 
ATOM     25  C   UNL     1       4.337   1.094  22.744  0.00  0.00    +0.002 A 
ATOM     26  C   UNL     1       3.235  -1.029  23.081  0.00  0.00    +0.002 A 
ATOM     27  C   UNL     1       4.374  -0.300  22.736  0.00  0.00    +0.000 A 
ENDBRANCH   6  20
ENDBRANCH  10   5
BRANCH  12   2
ATOM      2  O   UNL     1      -4.102   2.390  25.978  0.00  0.00    -0.388 OA
ATOM     34  H   UNL     1      -4.690   2.331  26.750  0.00  0.00    +0.210 HD
ENDBRANCH  12   2
BRANCH  11  16
ATOM     16  C   UNL     1      -4.084   3.015  22.796  0.00  0.00    +0.137 C 
BRANCH  16   7
ATOM      4  O   UNL     1      -5.330   0.813  24.153  0.00  0.00    -0.270 OA
ATOM      7  N   UNL     1      -3.450   1.804  23.221  0.00  0.00    -0.309 N 
ATOM     21  C   UNL     1      -4.133   0.782  23.875  0.00  0.00    +0.244 C 
ATOM     35  H   UNL     1      -2.446   1.746  23.085  0.00  0.00    +0.149 HD
BRANCH  21  24
ATOM      8  N   UNL     1      -0.037  -1.540  25.574  0.00  0.00    -0.344 N 
ATOM      9  N   UNL     1      -0.918  -3.576  25.432  0.00  0.00    -0.236 NA
ATOM     24  C   UNL     1      -3.326  -0.400  24.274  0.00  0.00    +0.039 A 
ATOM     28  C   UNL     1      -2.019  -0.211  24.734  0.00  0.00    +0.040 A 
ATOM     29  C   UNL     1      -3.885  -1.677  24.182  0.00  0.00    +0.015 A 
ATOM     30  C   UNL     1      -1.308  -1.356  25.094  0.00  0.00    +0.067 A 
ATOM     31  C   UNL     1      -3.153  -2.812  24.549  0.00  0.00    +0.030 A 
ATOM     32  C   UNL     1      -1.837  -2.641  25.014  0.00  0.00    +0.089 A 
ATOM     33  C   UNL     1       0.148  -2.882  25.759  0.00  0.00    +0.197 A 
ATOM     37  H   UNL     1       0.642  -0.813  25.758  0.00  0.00    +0.167 HD
ENDBRANCH  21  24
ENDBRANCH  16   7
ENDBRANCH  11  16
BRANCH  13  19
ATOM     19  C   UNL     1      -5.935   4.503  26.386  0.00  0.00    +0.190 C 
BRANCH  19   3
ATOM      3  O   UNL     1      -6.498   3.303  25.883  0.00  0.00    -0.392 OA
ATOM     36  H   UNL     1      -7.032   2.914  26.597  0.00  0.00    +0.210 HD
ENDBRANCH  19   3
ENDBRANCH  13  19
TORSDOF 8
ENDMDL
MODEL 3
REMARK VINA RESULT:       5.6      3.110      7.240
REMARK  Name = 51136974
REMARK  8 active torsions:
REMARK  status: ('A' for Active; 'I' for Inactive)
REMARK    1  A    between atoms: O_2  and  C_12
REMARK    2  A    between atoms: O_3  and  C_19
REMARK    3  A    between atoms: N_5  and  C_10
REMARK    4  A    between atoms: N_6  and  C_20
REMARK    5  A    between atoms: N_7  and  C_16
REMARK    6  A    between atoms: C_11  and  C_16
REMARK    7  A    between atoms: C_13  and  C_19
REMARK    8  A    between atoms: C_21  and  C_24
REMARK                            x       y       z     vdW  Elec       q    Type
REMARK                         _______ _______ _______ _____ _____    ______ ____
ROOT
ATOM      1  O   UNL     1      -5.264   4.048  25.066  0.00  0.00    -0.365 OA
ATOM     10  C   UNL     1      -2.934   4.150  25.543  0.00  0.00    +0.118 C 
ATOM     11  C   UNL     1      -3.991   4.336  24.446  0.00  0.00    +0.155 C 
ATOM     12  C   UNL     1      -3.595   3.161  26.491  0.00  0.00    +0.165 C 
ATOM     13  C   UNL     1      -5.042   3.636  26.428  0.00  0.00    +0.174 C 
ENDROOT
BRANCH  10   5
ATOM      5  N   UNL     1      -1.602   3.783  25.095  0.00  0.00    -0.292 NA
ATOM      6  N   UNL     1       0.383   2.091  23.929  0.00  0.00    -0.327 N 
ATOM     14  C   UNL     1      -1.596   3.532  23.648  0.00  0.00    +0.104 C 
ATOM     15  C   UNL     1      -1.129   2.591  25.811  0.00  0.00    +0.104 C 
ATOM     17  C   UNL     1      -0.186   3.199  23.154  0.00  0.00    +0.120 C 
ATOM     18  C   UNL     1       0.297   2.227  25.389  0.00  0.00    +0.120 C 
BRANCH   6  20
ATOM     20  C   UNL     1       1.441   1.346  23.400  0.00  0.00    +0.030 A 
ATOM     22  C   UNL     1       1.189   0.133  22.759  0.00  0.00    +0.023 A 
ATOM     23  C   UNL     1       2.750   1.815  23.514  0.00  0.00    +0.023 A 
ATOM     25  C   UNL     1       2.245  -0.610  22.231  0.00  0.00    +0.002 A 
ATOM     26  C   UNL     1       3.806   1.072  22.986  0.00  0.00    +0.002 A 
ATOM     27  C   UNL     1       3.554  -0.141  22.345  0.00  0.00    +0.000 A 
ENDBRANCH   6  20
ENDBRANCH  10   5
BRANCH  12   2
ATOM      2  O   UNL     1      -3.489   1.828  26.011  0.00  0.00    -0.388 OA
ATOM     34  H   UNL     1      -2.554   1.663  25.803  0.00  0.00    +0.210 HD
ENDBRANCH  12   2
BRANCH  11  16
ATOM     16  C   UNL     1      -3.871   3.437  23.221  0.00  0.00    +0.137 C 
BRANCH  16   7
ATOM      4  O   UNL     1      -5.281   0.985  23.713  0.00  0.00    -0.270 OA
ATOM      7  N   UNL     1      -3.293   2.173  23.564  0.00  0.00    -0.309 N 
ATOM     21  C   UNL     1      -4.055   1.028  23.786  0.00  0.00    +0.244 C 
ATOM     35  H   UNL     1      -2.290   2.157  23.711  0.00  0.00    +0.149 HD
BRANCH  21  24
ATOM      8  N   UNL     1      -0.048  -1.533  25.347  0.00  0.00    -0.344 N 
ATOM      9  N   UNL     1      -1.055  -3.513  25.244  0.00  0.00    -0.236 NA
ATOM     24  C   UNL     1      -3.307  -0.200  24.161  0.00  0.00    +0.039 A 
ATOM     28  C   UNL     1      -1.975  -0.089  24.573  0.00  0.00    +0.040 A 
ATOM     29  C   UNL     1      -3.945  -1.440  24.094  0.00  0.00    +0.015 A 
ATOM     30  C   UNL     1      -1.322  -1.274  24.911  0.00  0.00    +0.067 A 
ATOM     31  C   UNL     1      -3.269  -2.617  24.439  0.00  0.00    +0.030 A 
ATOM     32  C   UNL     1      -1.930  -2.524  24.856  0.00  0.00    +0.089 A 
ATOM     33  C   UNL     1       0.063  -2.883  25.531  0.00  0.00    +0.197 A 
ATOM     37  H   UNL     1       0.679  -0.849  25.503  0.00  0.00    +0.167 HD
ENDBRANCH  21  24
ENDBRANCH  16   7
ENDBRANCH  11  16
BRANCH  13  19
ATOM     19  C   UNL     1      -6.085   2.605  26.816  0.00  0.00    +0.190 C 
BRANCH  19   3
ATOM      3  O   UNL     1      -6.660   2.067  25.637  0.00  0.00    -0.392 OA
ATOM     36  H   UNL     1      -7.129   2.792  25.189  0.00  0.00    +0.210 HD
ENDBRANCH  19   3
ENDBRANCH  13  19
TORSDOF 8
ENDMDL
MODEL 4
REMARK VINA RESULT:       5.7      2.906      7.179
REMARK  Name = 51136974
REMARK  8 active torsions:
REMARK  status: ('A' for Active; 'I' for Inactive)
REMARK    1  A    between atoms: O_2  and  C_12
REMARK    2  A    between atoms: O_3  and  C_19
REMARK    3  A    between atoms: N_5  and  C_10
REMARK    4  A    between atoms: N_6  and  C_20
REMARK    5  A    between atoms: N_7  and  C_16
REMARK    6  A    between atoms: C_11  and  C_16
REMARK    7  A    between atoms: C_13  and  C_19
REMARK    8  A    between atoms: C_21  and  C_24
REMARK                            x       y       z     vdW  Elec       q    Type
REMARK                         _______ _______ _______ _____ _____    ______ ____
ROOT
ATOM      1  O   UNL     1      -5.015   4.726  24.932  0.00  0.00    -0.365 OA
ATOM     10  C   UNL     1      -2.752   4.535  25.646  0.00  0.00    +0.118 C 
ATOM     11  C   UNL     1      -3.658   4.843  24.447  0.00  0.00    +0.155 C 
ATOM     12  C   UNL     1      -3.628   3.648  26.518  0.00  0.00    +0.165 C 
ATOM     13  C   UNL     1      -4.988   4.303  26.308  0.00  0.00    +0.174 C 
ENDROOT
BRANCH  10   5
ATOM      5  N   UNL     1      -1.439   3.996  25.337  0.00  0.00    -0.292 NA
ATOM      6  N   UNL     1       0.426   2.228  24.090  0.00  0.00    -0.327 N 
ATOM     14  C   UNL     1      -1.166   4.099  23.898  0.00  0.00    +0.104 C 
ATOM     15  C   UNL     1      -1.344   2.594  25.766  0.00  0.00    +0.104 C 
ATOM     17  C   UNL     1       0.238   3.585  23.567  0.00  0.00    +0.120 C 
ATOM     18  C   UNL     1       0.053   2.031  25.496  0.00  0.00    +0.120 C 
BRANCH   6  20
ATOM     20  C   UNL     1       1.428   1.412  23.556  0.00  0.00    +0.030 A 
ATOM     22  C   UNL     1       2.715   1.916  23.373  0.00  0.00    +0.023 A 
ATOM     23  C   UNL     1       1.140   0.093  23.205  0.00  0.00    +0.023 A 
ATOM     25  C   UNL     1       3.715   1.102  22.840  0.00  0.00    +0.002 A 
ATOM     26  C   UNL     1       2.139  -0.722  22.673  0.00  0.00    +0.002 A 
ATOM     27  C   UNL     1       3.427  -0.218  22.490  0.00  0.00    +0.000 A 
ENDBRANCH   6  20
ENDBRANCH  10   5
BRANCH  12   2
ATOM      2  O   UNL     1      -3.645   2.307  26.047  0.00  0.00    -0.388 OA
ATOM     34  H   UNL     1      -2.849   1.865  26.387  0.00  0.00    +0.210 HD
ENDBRANCH  12   2
BRANCH  11  16
ATOM     16  C   UNL     1      -3.529   3.924  23.238  0.00  0.00    +0.137 C 
BRANCH  16   7
ATOM      4  O   UNL     1      -2.430   1.716  21.767  0.00  0.00    -0.270 OA
ATOM      7  N   UNL     1      -3.529   2.548  23.635  0.00  0.00    -0.309 N 
ATOM     21  C   UNL     1      -2.970   1.537  22.856  0.00  0.00    +0.244 C 
ATOM     35  H   UNL     1      -4.023   2.323  24.491  0.00  0.00    +0.149 HD
BRANCH  21  24
ATOM      8  N   UNL     1      -1.238  -2.594  25.091  0.00  0.00    -0.344 N 
ATOM      9  N   UNL     1      -3.169  -3.688  24.957  0.00  0.00    -0.236 NA
ATOM     24  C   UNL     1      -3.074   0.156  23.396  0.00  0.00    +0.039 A 
ATOM     28  C   UNL     1      -1.950  -0.435  23.981  0.00  0.00    +0.040 A 
ATOM     29  C   UNL     1      -4.290  -0.526  23.309  0.00  0.00    +0.015 A 
ATOM     30  C   UNL     1      -2.105  -1.732  24.470  0.00  0.00    +0.067 A 
ATOM     31  C   UNL     1      -4.423  -1.828  23.807  0.00  0.00    +0.030 A 
ATOM     32  C   UNL     1      -3.303  -2.437  24.399  0.00  0.00    +0.089 A 
ATOM     33  C   UNL     1      -1.920  -3.748  25.361  0.00  0.00    +0.197 A 
ATOM     37  H   UNL     1      -0.269  -2.410  25.309  0.00  0.00    +0.167 HD
ENDBRANCH  21  24
ENDBRANCH  16   7
ENDBRANCH  11  16
BRANCH  13  19
ATOM     19  C   UNL     1      -6.189   3.417  26.583  0.00  0.00    +0.190 C 
BRANCH  19   3
ATOM      3  O   UNL     1      -6.303   2.462  25.541  0.00  0.00    -0.392 OA
ATOM     36  H   UNL     1      -6.874   2.850  24.856  0.00  0.00    +0.210 HD
ENDBRANCH  19   3
ENDBRANCH  13  19
TORSDOF 8
ENDMDL
MODEL 5
REMARK VINA RESULT:       6.5      2.544      6.158
REMARK  Name = 51136974
REMARK  8 active torsions:
REMARK  status: ('A' for Active; 'I' for Inactive)
REMARK    1  A    between atoms: O_2  and  C_12
REMARK    2  A    between atoms: O_3  and  C_19
REMARK    3  A    between atoms: N_5  and  C_10
REMARK    4  A    between atoms: N_6  and  C_20
REMARK    5  A    between atoms: N_7  and  C_16
REMARK    6  A    between atoms: C_11  and  C_16
REMARK    7  A    between atoms: C_13  and  C_19
REMARK    8  A    between atoms: C_21  and  C_24
REMARK                            x       y       z     vdW  Elec       q    Type
REMARK                         _______ _______ _______ _____ _____    ______ ____
ROOT
ATOM      1  O   UNL     1      -2.247   5.358  25.986  0.00  0.00    -0.365 OA
ATOM     10  C   UNL     1      -3.743   4.023  24.702  0.00  0.00    +0.118 C 
ATOM     11  C   UNL     1      -3.147   4.234  26.100  0.00  0.00    +0.155 C 
ATOM     12  C   UNL     1      -2.675   4.598  23.785  0.00  0.00    +0.165 C 
ATOM     13  C   UNL     1      -2.206   5.790  24.612  0.00  0.00    +0.174 C 
ENDROOT
BRANCH  10   5
ATOM      5  N   UNL     1      -4.172   2.672  24.383  0.00  0.00    -0.292 NA
ATOM      6  N   UNL     1      -3.992  -0.178  24.340  0.00  0.00    -0.327 N 
ATOM     14  C   UNL     1      -4.383   1.896  25.611  0.00  0.00    +0.104 C 
ATOM     15  C   UNL     1      -3.177   2.005  23.534  0.00  0.00    +0.104 C 
ATOM     17  C   UNL     1      -4.889   0.487  25.291  0.00  0.00    +0.120 C 
ATOM     18  C   UNL     1      -3.643   0.600  23.144  0.00  0.00    +0.120 C 
BRANCH   6  20
ATOM     20  C   UNL     1      -4.001  -1.573  24.237  0.00  0.00    +0.030 A 
ATOM     22  C   UNL     1      -3.259  -2.343  25.132  0.00  0.00    +0.023 A 
ATOM     23  C   UNL     1      -4.752  -2.194  23.239  0.00  0.00    +0.023 A 
ATOM     25  C   UNL     1      -3.268  -3.734  25.029  0.00  0.00    +0.002 A 
ATOM     26  C   UNL     1      -4.761  -3.584  23.136  0.00  0.00    +0.002 A 
ATOM     27  C   UNL     1      -4.019  -4.355  24.031  0.00  0.00    +0.000 A 
ENDBRANCH   6  20
ENDBRANCH  10   5
BRANCH  12   2
ATOM      2  O   UNL     1      -1.608   3.681  23.588  0.00  0.00    -0.388 OA
ATOM     34  H   UNL     1      -0.973   4.093  22.978  0.00  0.00    +0.210 HD
ENDBRANCH  12   2
BRANCH  11  16
ATOM     16  C   UNL     1      -2.350   3.073  26.686  0.00  0.00    +0.137 C 
BRANCH  16   7
ATOM      4  O   UNL     1      -1.447   0.354  26.506  0.00  0.00    -0.270 OA
ATOM      7  N   UNL     1      -1.437   2.538  25.722  0.00  0.00    -0.309 N 
ATOM     21  C   UNL     1      -1.051   1.200  25.707  0.00  0.00    +0.244 C 
ATOM     35  H   UNL     1      -1.018   3.200  25.078  0.00  0.00    +0.149 HD
BRANCH  21  24
ATOM      8  N   UNL     1       3.187   1.626  23.078  0.00  0.00    -0.344 N 
ATOM      9  N   UNL     1       2.769  -0.134  21.786  0.00  0.00    -0.236 NA
ATOM     24  C   UNL     1      -0.075   0.807  24.659  0.00  0.00    +0.039 A 
ATOM     28  C   UNL     1       1.096   1.555  24.500  0.00  0.00    +0.040 A 
ATOM     29  C   UNL     1      -0.343  -0.300  23.850  0.00  0.00    +0.015 A 
ATOM     30  C   UNL     1       1.976   1.141  23.500  0.00  0.00    +0.067 A 
ATOM     31  C   UNL     1       0.555  -0.698  22.852  0.00  0.00    +0.030 A 
ATOM     32  C   UNL     1       1.737   0.043  22.679  0.00  0.00    +0.089 A 
ATOM     33  C   UNL     1       3.619   0.832  22.052  0.00  0.00    +0.197 A 
ATOM     37  H   UNL     1       3.672   2.428  23.456  0.00  0.00    +0.167 HD
ENDBRANCH  21  24
ENDBRANCH  16   7
ENDBRANCH  11  16
BRANCH  13  19
ATOM     19  C   UNL     1      -0.814   6.301  24.289  0.00  0.00    +0.190 C 
BRANCH  19   3
ATOM      3  O   UNL     1       0.134   5.309  24.648  0.00  0.00    -0.392 OA
ATOM     36  H   UNL     1       0.201   5.313  25.618  0.00  0.00    +0.210 HD
ENDBRANCH  19   3
ENDBRANCH  13  19
TORSDOF 8
ENDMDL
MODEL 6
REMARK VINA RESULT:       7.1      2.272      6.100
REMARK  Name = 51136974
REMARK  8 active torsions:
REMARK  status: ('A' for Active; 'I' for Inactive)
REMARK    1  A    between atoms: O_2  and  C_12
REMARK    2  A    between atoms: O_3  and  C_19
REMARK    3  A    between atoms: N_5  and  C_10
REMARK    4  A    between atoms: N_6  and  C_20
REMARK    5  A    between atoms: N_7  and  C_16
REMARK    6  A    between atoms: C_11  and  C_16
REMARK    7  A    between atoms: C_13  and  C_19
REMARK    8  A    between atoms: C_21  and  C_24
REMARK                            x       y       z     vdW  Elec       q    Type
REMARK                         _______ _______ _______ _____ _____    ______ ____
ROOT
ATOM      1  O   UNL     1      -3.986  -1.117  25.927  0.00  0.00    -0.365 OA
ATOM     10  C   UNL     1      -2.418  -1.972  24.352  0.00  0.00    +0.118 C 
ATOM     11  C   UNL     1      -2.647  -1.652  25.836  0.00  0.00    +0.155 C 
ATOM     12  C   UNL     1      -3.362  -1.011  23.646  0.00  0.00    +0.165 C 
ATOM     13  C   UNL     1      -4.548  -1.027  24.604  0.00  0.00    +0.174 C 
ENDROOT
BRANCH  10   5
ATOM      5  N   UNL     1      -1.040  -1.937  23.893  0.00  0.00    -0.292 NA
ATOM      6  N   UNL     1       1.615  -0.905  23.691  0.00  0.00    -0.327 N 
ATOM     14  C   UNL     1      -0.116  -2.038  25.029  0.00  0.00    +0.104 C 
ATOM     15  C   UNL     1      -0.780  -0.702  23.143  0.00  0.00    +0.104 C 
ATOM     17  C   UNL     1       1.339  -2.058  24.554  0.00  0.00    +0.120 C 
ATOM     18  C   UNL     1       0.653  -0.679  22.605  0.00  0.00    +0.120 C 
BRANCH   6  20
ATOM     20  C   UNL     1       2.934  -0.483  23.499  0.00  0.00    +0.030 A 
ATOM     22  C   UNL     1       3.993  -1.283  23.928  0.00  0.00    +0.023 A 
ATOM     23  C   UNL     1       3.192   0.739  22.877  0.00  0.00    +0.023 A 
ATOM     25  C   UNL     1       5.309  -0.862  23.735  0.00  0.00    +0.002 A 
ATOM     26  C   UNL     1       4.507   1.160  22.684  0.00  0.00    +0.002 A 
ATOM     27  C   UNL     1       5.567   0.360  23.114  0.00  0.00    +0.000 A 
ENDBRANCH   6  20
ENDBRANCH  10   5
BRANCH  12   2
ATOM      2  O   UNL     1      -2.809   0.295  23.562  0.00  0.00    -0.388 OA
ATOM     34  H   UNL     1      -1.843   0.203  23.505  0.00  0.00    +0.210 HD
ENDBRANCH  12   2
BRANCH  11  16
ATOM     16  C   UNL     1      -1.707  -0.632  26.468  0.00  0.00    +0.137 C 
BRANCH  16   7
ATOM      4  O   UNL     1       0.247   1.399  25.917  0.00  0.00    -0.270 OA
ATOM      7  N   UNL     1      -1.961   0.684  25.963  0.00  0.00    -0.309 N 
ATOM     21  C   UNL     1      -0.948   1.610  25.723  0.00  0.00    +0.244 C 
ATOM     35  H   UNL     1      -2.934   0.946  25.849  0.00  0.00    +0.149 HD
BRANCH  21  24
ATOM      8  N   UNL     1      -4.129   4.837  23.595  0.00  0.00    -0.344 N 
ATOM      9  N   UNL     1      -2.756   6.577  23.770  0.00  0.00    -0.236 NA
ATOM     24  C   UNL     1      -1.378   2.941  25.223  0.00  0.00    +0.039 A 
ATOM     28  C   UNL     1      -2.645   3.078  24.647  0.00  0.00    +0.040 A 
ATOM     29  C   UNL     1      -0.511   4.030  25.335  0.00  0.00    +0.015 A 
ATOM     30  C   UNL     1      -2.996   4.351  24.195  0.00  0.00    +0.067 A 
ATOM     31  C   UNL     1      -0.884   5.299  24.874  0.00  0.00    +0.030 A 
ATOM     32  C   UNL     1      -2.155   5.455  24.293  0.00  0.00    +0.089 A 
ATOM     33  C   UNL     1      -3.936   6.170  23.361  0.00  0.00    +0.197 A 
ATOM     37  H   UNL     1      -4.957   4.305  23.367  0.00  0.00    +0.167 HD
ENDBRANCH  21  24
ENDBRANCH  16   7
ENDBRANCH  11  16
BRANCH  13  19
ATOM     19  C   UNL     1      -5.463   0.181  24.529  0.00  0.00    +0.190 C 
BRANCH  19   3
ATOM      3  O   UNL     1      -5.035   1.140  25.482  0.00  0.00    -0.392 OA
ATOM     36  H   UNL     1      -4.143   1.428  25.221  0.00  0.00    +0.210 HD
ENDBRANCH  19   3
ENDBRANCH  13  19
TORSDOF 8
ENDMDL
MODEL 7
REMARK VINA RESULT:       7.8      2.734      6.988
REMARK  Name = 51136974
REMARK  8 active torsions:
REMARK  status: ('A' for Active; 'I' for Inactive)
REMARK    1  A    between atoms: O_2  and  C_12
REMARK    2  A    between atoms: O_3  and  C_19
REMARK    3  A    between atoms: N_5  and  C_10
REMARK    4  A    between atoms: N_6  and  C_20
REMARK    5  A    between atoms: N_7  and  C_16
REMARK    6  A    between atoms: C_11  and  C_16
REMARK    7  A    between atoms: C_13  and  C_19
REMARK    8  A    between atoms: C_21  and  C_24
REMARK                            x       y       z     vdW  Elec       q    Type
REMARK                         _______ _______ _______ _____ _____    ______ ____
ROOT
ATOM      1  O   UNL     1      -0.756   5.340  24.577  0.00  0.00    -0.365 OA
ATOM     10  C   UNL     1      -1.972   3.701  25.802  0.00  0.00    +0.118 C 
ATOM     11  C   UNL     1      -0.708   3.950  24.970  0.00  0.00    +0.155 C 
ATOM     12  C   UNL     1      -2.939   4.753  25.280  0.00  0.00    +0.165 C 
ATOM     13  C   UNL     1      -1.985   5.921  25.052  0.00  0.00    +0.174 C 
ENDROOT
BRANCH  10   5
ATOM      5  N   UNL     1      -2.481   2.340  25.805  0.00  0.00    -0.292 NA
ATOM      6  N   UNL     1      -2.882  -0.296  24.780  0.00  0.00    -0.327 N 
ATOM     14  C   UNL     1      -1.374   1.376  25.780  0.00  0.00    +0.104 C 
ATOM     15  C   UNL     1      -3.364   2.119  24.653  0.00  0.00    +0.104 C 
ATOM     17  C   UNL     1      -1.895  -0.062  25.840  0.00  0.00    +0.120 C 
ATOM     18  C   UNL     1      -3.951   0.705  24.675  0.00  0.00    +0.120 C 
BRANCH   6  20
ATOM     20  C   UNL     1      -3.164  -1.603  24.371  0.00  0.00    +0.030 A 
ATOM     22  C   UNL     1      -2.163  -2.573  24.396  0.00  0.00    +0.023 A 
ATOM     23  C   UNL     1      -4.447  -1.937  23.938  0.00  0.00    +0.023 A 
ATOM     25  C   UNL     1      -2.444  -3.877  23.988  0.00  0.00    +0.002 A 
ATOM     26  C   UNL     1      -4.729  -3.240  23.530  0.00  0.00    +0.002 A 
ATOM     27  C   UNL     1      -3.727  -4.211  23.554  0.00  0.00    +0.000 A 
ENDBRANCH   6  20
ENDBRANCH  10   5
BRANCH  12   2
ATOM      2  O   UNL     1      -3.534   4.352  24.054  0.00  0.00    -0.388 OA
ATOM     34  H   UNL     1      -3.188   4.933  23.355  0.00  0.00    +0.210 HD
ENDBRANCH  12   2
BRANCH  11  16
ATOM     16  C   UNL     1      -0.553   3.126  23.696  0.00  0.00    +0.137 C 
BRANCH  16   7
ATOM      4  O   UNL     1       0.065   0.403  23.026  0.00  0.00    -0.270 OA
ATOM      7  N   UNL     1       0.751   2.540  23.617  0.00  0.00    -0.309 N 
ATOM     21  C   UNL     1       0.961   1.204  23.283  0.00  0.00    +0.244 C 
ATOM     35  H   UNL     1       1.530   3.130  23.888  0.00  0.00    +0.149 HD
BRANCH  21  24
ATOM      8  N   UNL     1       4.652  -2.097  24.012  0.00  0.00    -0.344 N 
ATOM      9  N   UNL     1       6.254  -0.726  23.308  0.00  0.00    -0.236 NA
ATOM     24  C   UNL     1       2.372   0.743  23.270  0.00  0.00    +0.039 A 
ATOM     28  C   UNL     1       2.672  -0.553  23.704  0.00  0.00    +0.040 A 
ATOM     29  C   UNL     1       3.375   1.608  22.826  0.00  0.00    +0.015 A 
ATOM     30  C   UNL     1       4.014  -0.933  23.671  0.00  0.00    +0.067 A 
ATOM     31  C   UNL     1       4.716   1.206  22.801  0.00  0.00    +0.030 A 
ATOM     32  C   UNL     1       5.034  -0.094  23.234  0.00  0.00    +0.089 A 
ATOM     33  C   UNL     1       5.988  -1.924  23.778  0.00  0.00    +0.197 A 
ATOM     37  H   UNL     1       4.213  -2.933  24.373  0.00  0.00    +0.167 HD
ENDBRANCH  21  24
ENDBRANCH  16   7
ENDBRANCH  11  16
BRANCH  13  19
ATOM     19  C   UNL     1      -2.461   6.967  24.060  0.00  0.00    +0.190 C 
BRANCH  19   3
ATOM      3  O   UNL     1      -3.549   6.437  23.321  0.00  0.00    -0.392 OA
ATOM     36  H   UNL     1      -4.097   5.926  23.941  0.00  0.00    +0.210 HD
ENDBRANCH  19   3
ENDBRANCH  13  19
TORSDOF 8
ENDMDL
