MODEL 1
REMARK VINA RESULT:      -3.1      0.000      0.000
REMARK  Name = 11881998
REMARK  12 active torsions:
REMARK  status: ('A' for Active; 'I' for Inactive)
REMARK    1  A    between atoms: S_1  and  C_21
REMARK    2  A    between atoms: S_1  and  C_25
REMARK    3  A    between atoms: O_2  and  C_12
REMARK    4  A    between atoms: O_3  and  C_14
REMARK    5  A    between atoms: N_9  and  C_13
REMARK    6  A    between atoms: N_10  and  C_19
REMARK    7  A    between atoms: C_16  and  C_18
REMARK    8  A    between atoms: C_19  and  C_20
REMARK    9  A    between atoms: C_19  and  C_23
REMARK   10  A    between atoms: C_20  and  C_21
REMARK   11  A    between atoms: C_22  and  C_24
REMARK   12  A    between atoms: C_30  and  C_31
REMARK                            x       y       z     vdW  Elec       q    Type
REMARK                         _______ _______ _______ _____ _____    ______ ____
ROOT
ATOM     12  C   UNL     1      -1.378  -2.281  24.933  0.00  0.00    +0.167 C 
ATOM     13  C   UNL     1      -0.943  -1.294  23.833  0.00  0.00    +0.128 C 
ATOM     14  C   UNL     1      -2.906  -2.348  25.057  0.00  0.00    +0.149 C 
ATOM     15  C   UNL     1      -3.527  -0.963  25.309  0.00  0.00    +0.074 C 
ATOM     16  C   UNL     1      -2.861   0.139  24.535  0.00  0.00    +0.015 C 
ATOM     17  C   UNL     1      -1.709   0.002  23.862  0.00  0.00    +0.006 C 
ENDROOT
BRANCH  16  18
ATOM      4  O   UNL     1      -3.927   1.915  23.427  0.00  0.00    -0.271 OA
ATOM     10  N   UNL     1      -3.614   2.047  25.733  0.00  0.00    -0.300 N 
ATOM     18  C   UNL     1      -3.521   1.446  24.490  0.00  0.00    +0.241 C 
ATOM     33  H   UNL     1      -3.239   1.566  26.547  0.00  0.00    +0.150 HD
BRANCH  10  19
ATOM     19  C   UNL     1      -4.223   3.342  25.941  0.00  0.00    +0.160 C 
BRANCH  19  23
ATOM      8  O   UNL     1      -6.275   2.113  25.517  0.00  0.00    -0.274 OA
ATOM     11  N   UNL     1      -6.379   4.402  25.668  0.00  0.00    -0.328 N 
ATOM     23  C   UNL     1      -5.714   3.195  25.671  0.00  0.00    +0.231 C 
ATOM     36  H   UNL     1      -7.380   4.444  25.509  0.00  0.00    +0.145 HD
ATOM     37  H   UNL     1      -5.911   5.287  25.839  0.00  0.00    +0.145 HD
ENDBRANCH  19  23
BRANCH  19  20
ATOM     20  C   UNL     1      -3.616   4.414  25.033  0.00  0.00    +0.054 C 
BRANCH  20  21
ATOM     21  C   UNL     1      -2.291   4.943  25.566  0.00  0.00    +0.168 C 
BRANCH  21   1
ATOM      1  S   UNL     1      -0.922   4.178  24.754  0.00  0.00    -0.034 S 
ATOM      6  O   UNL     1      -1.433   3.406  23.634  0.00  0.00    -0.175 OA
ATOM      7  O   UNL     1       0.107   5.184  24.552  0.00  0.00    -0.175 OA
ATOM     25  C   UNL     1      -0.316   3.027  25.967  0.00  0.00    +0.194 C 
ENDBRANCH  21   1
ENDBRANCH  20  21
ENDBRANCH  19  20
ENDBRANCH  10  19
ENDBRANCH  16  18
BRANCH  13   9
ATOM      5  O   UNL     1       0.733  -0.381  21.689  0.00  0.00    -0.270 OA
ATOM      9  N   UNL     1       0.467  -1.004  23.907  0.00  0.00    -0.302 N 
ATOM     22  C   UNL     1       1.197  -0.565  22.811  0.00  0.00    +0.245 C 
ATOM     32  H   UNL     1       0.940  -1.227  24.778  0.00  0.00    +0.150 HD
BRANCH  22  24
ATOM     24  C   UNL     1       2.646  -0.335  23.044  0.00  0.00    +0.037 A 
ATOM     26  C   UNL     1       3.232   0.870  22.660  0.00  0.00    +0.013 A 
ATOM     27  C   UNL     1       3.420  -1.327  23.648  0.00  0.00    +0.013 A 
ATOM     28  C   UNL     1       4.592   1.086  22.879  0.00  0.00    +0.004 A 
ATOM     29  C   UNL     1       4.782  -1.111  23.866  0.00  0.00    +0.004 A 
ATOM     30  C   UNL     1       5.367   0.095  23.483  0.00  0.00    -0.050 A 
ATOM     31  C   UNL     1       6.821   0.326  23.717  0.00  0.00    +0.044 C 
ENDBRANCH  22  24
ENDBRANCH  13   9
BRANCH  12   2
ATOM      2  O   UNL     1      -0.833  -1.872  26.189  0.00  0.00    -0.387 OA
ATOM     34  H   UNL     1      -0.874  -0.902  26.223  0.00  0.00    +0.210 HD
ENDBRANCH  12   2
BRANCH  14   3
ATOM      3  O   UNL     1      -3.469  -2.931  23.883  0.00  0.00    -0.389 OA
ATOM     35  H   UNL     1      -3.404  -2.274  23.169  0.00  0.00    +0.210 HD
ENDBRANCH  14   3
TORSDOF 10
ENDMDL
MODEL 2
REMARK VINA RESULT:      -1.1      1.599      2.953
REMARK  Name = 11881998
REMARK  12 active torsions:
REMARK  status: ('A' for Active; 'I' for Inactive)
REMARK    1  A    between atoms: S_1  and  C_21
REMARK    2  A    between atoms: S_1  and  C_25
REMARK    3  A    between atoms: O_2  and  C_12
REMARK    4  A    between atoms: O_3  and  C_14
REMARK    5  A    between atoms: N_9  and  C_13
REMARK    6  A    between atoms: N_10  and  C_19
REMARK    7  A    between atoms: C_16  and  C_18
REMARK    8  A    between atoms: C_19  and  C_20
REMARK    9  A    between atoms: C_19  and  C_23
REMARK   10  A    between atoms: C_20  and  C_21
REMARK   11  A    between atoms: C_22  and  C_24
REMARK   12  A    between atoms: C_30  and  C_31
REMARK                            x       y       z     vdW  Elec       q    Type
REMARK                         _______ _______ _______ _____ _____    ______ ____
ROOT
ATOM     12  C   UNL     1      -1.095  -2.114  25.018  0.00  0.00    +0.167 C 
ATOM     13  C   UNL     1      -0.569  -1.330  23.801  0.00  0.00    +0.128 C 
ATOM     14  C   UNL     1      -2.625  -2.047  25.111  0.00  0.00    +0.149 C 
ATOM     15  C   UNL     1      -3.140  -0.598  25.149  0.00  0.00    +0.074 C 
ATOM     16  C   UNL     1      -2.378   0.329  24.244  0.00  0.00    +0.015 C 
ATOM     17  C   UNL     1      -1.230   0.011  23.626  0.00  0.00    +0.006 C 
ENDROOT
BRANCH  16  18
ATOM      4  O   UNL     1      -3.641   1.883  23.015  0.00  0.00    -0.271 OA
ATOM     10  N   UNL     1      -2.567   2.586  24.961  0.00  0.00    -0.300 N 
ATOM     18  C   UNL     1      -2.932   1.663  23.997  0.00  0.00    +0.241 C 
ATOM     33  H   UNL     1      -1.971   2.291  25.731  0.00  0.00    +0.150 HD
BRANCH  10  19
ATOM     19  C   UNL     1      -2.989   3.968  24.931  0.00  0.00    +0.160 C 
BRANCH  19  23
ATOM      8  O   UNL     1      -1.768   6.058  25.152  0.00  0.00    -0.274 OA
ATOM     11  N   UNL     1      -0.608   4.084  25.340  0.00  0.00    -0.328 N 
ATOM     23  C   UNL     1      -1.749   4.829  25.132  0.00  0.00    +0.231 C 
ATOM     36  H   UNL     1       0.286   4.537  25.497  0.00  0.00    +0.145 HD
ATOM     37  H   UNL     1      -0.612   3.069  25.364  0.00  0.00    +0.145 HD
ENDBRANCH  19  23
BRANCH  19  20
ATOM     20  C   UNL     1      -4.034   4.273  26.007  0.00  0.00    +0.054 C 
BRANCH  20  21
ATOM     21  C   UNL     1      -5.453   3.980  25.537  0.00  0.00    +0.168 C 
BRANCH  21   1
ATOM      1  S   UNL     1      -5.955   2.350  25.992  0.00  0.00    -0.034 S 
ATOM      6  O   UNL     1      -4.761   1.541  26.174  0.00  0.00    -0.175 OA
ATOM      7  O   UNL     1      -6.945   2.458  27.050  0.00  0.00    -0.175 OA
ATOM     25  C   UNL     1      -6.788   1.756  24.537  0.00  0.00    +0.194 C 
ENDBRANCH  21   1
ENDBRANCH  20  21
ENDBRANCH  19  20
ENDBRANCH  10  19
ENDBRANCH  16  18
BRANCH  13   9
ATOM      5  O   UNL     1       1.064   0.079  21.906  0.00  0.00    -0.270 OA
ATOM      9  N   UNL     1       0.859  -1.140  23.868  0.00  0.00    -0.302 N 
ATOM     22  C   UNL     1       1.565  -0.440  22.900  0.00  0.00    +0.245 C 
ATOM     32  H   UNL     1       1.356  -1.625  24.609  0.00  0.00    +0.150 HD
BRANCH  22  24
ATOM     24  C   UNL     1       3.035  -0.356  23.100  0.00  0.00    +0.037 A 
ATOM     26  C   UNL     1       3.735   0.768  22.664  0.00  0.00    +0.013 A 
ATOM     27  C   UNL     1       3.714  -1.402  23.725  0.00  0.00    +0.013 A 
ATOM     28  C   UNL     1       5.114   0.848  22.853  0.00  0.00    +0.004 A 
ATOM     29  C   UNL     1       5.095  -1.323  23.913  0.00  0.00    +0.004 A 
ATOM     30  C   UNL     1       5.794  -0.198  23.477  0.00  0.00    -0.050 A 
ATOM     31  C   UNL     1       7.269  -0.111  23.679  0.00  0.00    +0.044 C 
ENDBRANCH  22  24
ENDBRANCH  13   9
BRANCH  12   2
ATOM      2  O   UNL     1      -0.537  -1.572  26.217  0.00  0.00    -0.387 OA
ATOM     34  H   UNL     1       0.180  -2.165  26.499  0.00  0.00    +0.210 HD
ENDBRANCH  12   2
BRANCH  14   3
ATOM      3  O   UNL     1      -3.215  -2.748  24.018  0.00  0.00    -0.389 OA
ATOM     35  H   UNL     1      -3.258  -2.134  23.265  0.00  0.00    +0.210 HD
ENDBRANCH  14   3
TORSDOF 10
ENDMDL
