MODEL 1
REMARK VINA RESULT:      -0.8      0.000      0.000
REMARK  Name = 75536097
REMARK  9 active torsions:
REMARK  status: ('A' for Active; 'I' for Inactive)
REMARK    1  A    between atoms: S_1  and  N_7
REMARK    2  A    between atoms: S_1  and  C_17
REMARK    3  A    between atoms: O_2  and  C_11
REMARK    4  A    between atoms: O_3  and  C_13
REMARK    5  A    between atoms: O_6  and  C_20
REMARK    6  A    between atoms: O_6  and  C_26
REMARK    7  A    between atoms: N_7  and  C_9
REMARK    8  A    between atoms: C_10  and  C_14
REMARK    9  A    between atoms: C_25  and  C_27
REMARK                            x       y       z     vdW  Elec       q    Type
REMARK                         _______ _______ _______ _____ _____    ______ ____
ROOT
ATOM      9  C   UNL     1      -3.358   3.272  25.197  0.00  0.00    +0.115 C 
ATOM     10  C   UNL     1      -4.353   2.403  24.378  0.00  0.00    +0.043 C 
ATOM     11  C   UNL     1      -4.221   4.264  25.988  0.00  0.00    +0.162 C 
ATOM     12  C   UNL     1      -5.753   2.848  24.832  0.00  0.00    +0.043 C 
ATOM     13  C   UNL     1      -5.543   4.301  25.227  0.00  0.00    +0.145 C 
ENDROOT
BRANCH  10  14
ATOM     14  C   UNL     1      -4.129   0.913  24.518  0.00  0.00    -0.042 A 
ATOM     15  C   UNL     1      -4.163   0.319  25.780  0.00  0.00    +0.007 A 
ATOM     16  C   UNL     1      -3.891   0.135  23.386  0.00  0.00    +0.007 A 
ATOM     18  C   UNL     1      -3.958  -1.055  25.908  0.00  0.00    +0.046 A 
ATOM     19  C   UNL     1      -3.686  -1.238  23.515  0.00  0.00    +0.046 A 
ATOM     20  C   UNL     1      -3.719  -1.833  24.776  0.00  0.00    +0.120 A 
BRANCH  20   6
ATOM      6  O   UNL     1      -3.519  -3.174  24.902  0.00  0.00    -0.495 OA
ATOM     26  C   UNL     1      -3.120  -3.883  23.730  0.00  0.00    +0.277 C 
ENDBRANCH  20   6
ENDBRANCH  10  14
BRANCH  11   2
ATOM      2  O   UNL     1      -4.411   3.736  27.300  0.00  0.00    -0.388 OA
ATOM     29  H   UNL     1      -5.346   3.483  27.380  0.00  0.00    +0.210 HD
ENDBRANCH  11   2
BRANCH  13   3
ATOM      3  O   UNL     1      -6.612   4.786  26.012  0.00  0.00    -0.389 OA
ATOM     30  H   UNL     1      -7.045   4.018  26.423  0.00  0.00    +0.210 HD
ENDBRANCH  13   3
BRANCH   9   7
ATOM      7  N   UNL     1      -2.477   4.019  24.263  0.00  0.00    -0.184 NA
ATOM     28  H   UNL     1      -2.909   4.450  23.438  0.00  0.00    +0.148 HD
BRANCH   7   1
ATOM      1  S   UNL     1      -0.790   3.856  24.377  0.00  0.00    +0.059 S 
ATOM      4  O   UNL     1      -0.319   4.528  25.573  0.00  0.00    -0.153 OA
ATOM      5  O   UNL     1      -0.202   4.164  23.088  0.00  0.00    -0.153 OA
BRANCH   1  17
ATOM     17  C   UNL     1      -0.609   2.115  24.623  0.00  0.00    +0.105 A 
ATOM     21  C   UNL     1      -0.776   1.570  25.896  0.00  0.00    +0.030 A 
ATOM     22  C   UNL     1      -0.299   1.287  23.544  0.00  0.00    +0.030 A 
ATOM     23  C   UNL     1      -0.634   0.196  26.090  0.00  0.00    +0.021 A 
ATOM     24  C   UNL     1      -0.156  -0.088  23.739  0.00  0.00    +0.021 A 
ATOM     25  C   UNL     1      -0.324  -0.632  25.012  0.00  0.00    +0.052 A 
BRANCH  25  27
ATOM      8  N   UNL     1      -0.056  -3.182  25.374  0.00  0.00    -0.191 NA
ATOM     27  C   UNL     1      -0.176  -2.040  25.212  0.00  0.00    +0.099 C 
ENDBRANCH  25  27
ENDBRANCH   1  17
ENDBRANCH   7   1
ENDBRANCH   9   7
TORSDOF 8
ENDMDL
MODEL 2
REMARK VINA RESULT:      -0.0      1.868      2.496
REMARK  Name = 75536097
REMARK  9 active torsions:
REMARK  status: ('A' for Active; 'I' for Inactive)
REMARK    1  A    between atoms: S_1  and  N_7
REMARK    2  A    between atoms: S_1  and  C_17
REMARK    3  A    between atoms: O_2  and  C_11
REMARK    4  A    between atoms: O_3  and  C_13
REMARK    5  A    between atoms: O_6  and  C_20
REMARK    6  A    between atoms: O_6  and  C_26
REMARK    7  A    between atoms: N_7  and  C_9
REMARK    8  A    between atoms: C_10  and  C_14
REMARK    9  A    between atoms: C_25  and  C_27
REMARK                            x       y       z     vdW  Elec       q    Type
REMARK                         _______ _______ _______ _____ _____    ______ ____
ROOT
ATOM      9  C   UNL     1      -4.425   2.490  25.487  0.00  0.00    +0.115 C 
ATOM     10  C   UNL     1      -4.399   1.420  24.362  0.00  0.00    +0.043 C 
ATOM     11  C   UNL     1      -5.907   2.749  25.788  0.00  0.00    +0.162 C 
ATOM     12  C   UNL     1      -5.868   1.014  24.151  0.00  0.00    +0.043 C 
ATOM     13  C   UNL     1      -6.632   2.271  24.532  0.00  0.00    +0.145 C 
ENDROOT
BRANCH  10  14
ATOM     14  C   UNL     1      -3.494   0.243  24.651  0.00  0.00    -0.042 A 
ATOM     15  C   UNL     1      -3.586  -0.914  23.876  0.00  0.00    +0.007 A 
ATOM     16  C   UNL     1      -2.567   0.315  25.690  0.00  0.00    +0.007 A 
ATOM     18  C   UNL     1      -2.750  -1.998  24.142  0.00  0.00    +0.046 A 
ATOM     19  C   UNL     1      -1.732  -0.769  25.956  0.00  0.00    +0.046 A 
ATOM     20  C   UNL     1      -1.824  -1.927  25.182  0.00  0.00    +0.120 A 
BRANCH  20   6
ATOM      6  O   UNL     1      -1.008  -2.985  25.441  0.00  0.00    -0.495 OA
ATOM     26  C   UNL     1       0.393  -2.725  25.501  0.00  0.00    +0.277 C 
ENDBRANCH  20   6
ENDBRANCH  10  14
BRANCH  11   2
ATOM      2  O   UNL     1      -6.275   1.954  26.914  0.00  0.00    -0.388 OA
ATOM     29  H   UNL     1      -5.477   1.831  27.457  0.00  0.00    +0.210 HD
ENDBRANCH  11   2
BRANCH  13   3
ATOM      3  O   UNL     1      -7.999   1.999  24.762  0.00  0.00    -0.389 OA
ATOM     30  H   UNL     1      -8.111   1.033  24.747  0.00  0.00    +0.210 HD
ENDBRANCH  13   3
BRANCH   9   7
ATOM      7  N   UNL     1      -3.796   3.741  24.988  0.00  0.00    -0.184 NA
ATOM     28  H   UNL     1      -4.187   4.168  24.141  0.00  0.00    +0.148 HD
BRANCH   7   1
ATOM      1  S   UNL     1      -2.285   4.229  25.592  0.00  0.00    +0.059 S 
ATOM      4  O   UNL     1      -2.242   4.004  27.025  0.00  0.00    -0.153 OA
ATOM      5  O   UNL     1      -1.964   5.534  25.049  0.00  0.00    -0.153 OA
BRANCH   1  17
ATOM     17  C   UNL     1      -1.195   3.068  24.826  0.00  0.00    +0.105 A 
ATOM     21  C   UNL     1      -0.069   2.611  25.511  0.00  0.00    +0.030 A 
ATOM     22  C   UNL     1      -1.461   2.609  23.535  0.00  0.00    +0.030 A 
ATOM     23  C   UNL     1       0.790   1.694  24.905  0.00  0.00    +0.021 A 
ATOM     24  C   UNL     1      -0.600   1.693  22.929  0.00  0.00    +0.021 A 
ATOM     25  C   UNL     1       0.525   1.235  23.615  0.00  0.00    +0.052 A 
BRANCH  25  27
ATOM      8  N   UNL     1       2.124  -0.465  22.492  0.00  0.00    -0.191 NA
ATOM     27  C   UNL     1       1.407   0.297  22.995  0.00  0.00    +0.099 C 
ENDBRANCH  25  27
ENDBRANCH   1  17
ENDBRANCH   7   1
ENDBRANCH   9   7
TORSDOF 8
ENDMDL
MODEL 3
REMARK VINA RESULT:       0.3      2.283      4.255
REMARK  Name = 75536097
REMARK  9 active torsions:
REMARK  status: ('A' for Active; 'I' for Inactive)
REMARK    1  A    between atoms: S_1  and  N_7
REMARK    2  A    between atoms: S_1  and  C_17
REMARK    3  A    between atoms: O_2  and  C_11
REMARK    4  A    between atoms: O_3  and  C_13
REMARK    5  A    between atoms: O_6  and  C_20
REMARK    6  A    between atoms: O_6  and  C_26
REMARK    7  A    between atoms: N_7  and  C_9
REMARK    8  A    between atoms: C_10  and  C_14
REMARK    9  A    between atoms: C_25  and  C_27
REMARK                            x       y       z     vdW  Elec       q    Type
REMARK                         _______ _______ _______ _____ _____    ______ ____
ROOT
ATOM      9  C   UNL     1      -3.665   3.418  25.003  0.00  0.00    +0.115 C 
ATOM     10  C   UNL     1      -2.228   3.215  25.557  0.00  0.00    +0.043 C 
ATOM     11  C   UNL     1      -3.797   4.919  24.717  0.00  0.00    +0.162 C 
ATOM     12  C   UNL     1      -1.550   4.591  25.446  0.00  0.00    +0.043 C 
ATOM     13  C   UNL     1      -2.713   5.561  25.579  0.00  0.00    +0.145 C 
ENDROOT
BRANCH  10  14
ATOM     14  C   UNL     1      -1.452   2.114  24.869  0.00  0.00    -0.042 A 
ATOM     15  C   UNL     1      -1.474   2.010  23.478  0.00  0.00    +0.007 A 
ATOM     16  C   UNL     1      -0.714   1.204  25.625  0.00  0.00    +0.007 A 
ATOM     18  C   UNL     1      -0.757   0.995  22.844  0.00  0.00    +0.046 A 
ATOM     19  C   UNL     1       0.003   0.190  24.991  0.00  0.00    +0.046 A 
ATOM     20  C   UNL     1      -0.020   0.085  23.600  0.00  0.00    +0.120 A 
BRANCH  20   6
ATOM      6  O   UNL     1       0.679  -0.905  22.980  0.00  0.00    -0.495 OA
ATOM     26  C   UNL     1       1.724  -0.505  22.094  0.00  0.00    +0.277 C 
ENDBRANCH  20   6
ENDBRANCH  10  14
BRANCH  11   2
ATOM      2  O   UNL     1      -3.530   5.131  23.332  0.00  0.00    -0.388 OA
ATOM     29  H   UNL     1      -3.539   4.261  22.898  0.00  0.00    +0.210 HD
ENDBRANCH  11   2
BRANCH  13   3
ATOM      3  O   UNL     1      -2.362   6.857  25.139  0.00  0.00    -0.389 OA
ATOM     30  H   UNL     1      -2.525   6.894  24.181  0.00  0.00    +0.210 HD
ENDBRANCH  13   3
BRANCH   9   7
ATOM      7  N   UNL     1      -4.651   3.024  26.043  0.00  0.00    -0.184 NA
ATOM     28  H   UNL     1      -4.495   3.355  27.001  0.00  0.00    +0.148 HD
BRANCH   7   1
ATOM      1  S   UNL     1      -5.776   1.792  25.721  0.00  0.00    +0.059 S 
ATOM      4  O   UNL     1      -6.571   2.155  24.563  0.00  0.00    -0.153 OA
ATOM      5  O   UNL     1      -6.424   1.414  26.961  0.00  0.00    -0.153 OA
BRANCH   1  17
ATOM     17  C   UNL     1      -4.723   0.450  25.259  0.00  0.00    +0.105 A 
ATOM     21  C   UNL     1      -4.035  -0.265  26.238  0.00  0.00    +0.030 A 
ATOM     22  C   UNL     1      -4.582   0.106  23.914  0.00  0.00    +0.030 A 
ATOM     23  C   UNL     1      -3.204  -1.326  25.873  0.00  0.00    +0.021 A 
ATOM     24  C   UNL     1      -3.750  -0.954  23.549  0.00  0.00    +0.021 A 
ATOM     25  C   UNL     1      -3.062  -1.670  24.529  0.00  0.00    +0.052 A 
BRANCH  25  27
ATOM      8  N   UNL     1      -1.517  -3.634  23.853  0.00  0.00    -0.191 NA
ATOM     27  C   UNL     1      -2.210  -2.754  24.156  0.00  0.00    +0.099 C 
ENDBRANCH  25  27
ENDBRANCH   1  17
ENDBRANCH   7   1
ENDBRANCH   9   7
TORSDOF 8
ENDMDL
MODEL 4
REMARK VINA RESULT:       0.6      2.412      6.046
REMARK  Name = 75536097
REMARK  9 active torsions:
REMARK  status: ('A' for Active; 'I' for Inactive)
REMARK    1  A    between atoms: S_1  and  N_7
REMARK    2  A    between atoms: S_1  and  C_17
REMARK    3  A    between atoms: O_2  and  C_11
REMARK    4  A    between atoms: O_3  and  C_13
REMARK    5  A    between atoms: O_6  and  C_20
REMARK    6  A    between atoms: O_6  and  C_26
REMARK    7  A    between atoms: N_7  and  C_9
REMARK    8  A    between atoms: C_10  and  C_14
REMARK    9  A    between atoms: C_25  and  C_27
REMARK                            x       y       z     vdW  Elec       q    Type
REMARK                         _______ _______ _______ _____ _____    ______ ____
ROOT
ATOM      9  C   UNL     1      -3.918  -0.564  25.049  0.00  0.00    +0.115 C 
ATOM     10  C   UNL     1      -2.674  -0.281  24.162  0.00  0.00    +0.043 C 
ATOM     11  C   UNL     1      -4.104  -2.087  25.037  0.00  0.00    +0.162 C 
ATOM     12  C   UNL     1      -2.121  -1.665  23.781  0.00  0.00    +0.043 C 
ATOM     13  C   UNL     1      -3.360  -2.545  23.786  0.00  0.00    +0.145 C 
ENDROOT
BRANCH  10  14
ATOM     14  C   UNL     1      -1.642   0.611  24.815  0.00  0.00    -0.042 A 
ATOM     15  C   UNL     1      -1.534   0.653  26.205  0.00  0.00    +0.007 A 
ATOM     16  C   UNL     1      -0.797   1.392  24.026  0.00  0.00    +0.007 A 
ATOM     18  C   UNL     1      -0.582   1.475  26.806  0.00  0.00    +0.046 A 
ATOM     19  C   UNL     1       0.156   2.214  24.627  0.00  0.00    +0.046 A 
ATOM     20  C   UNL     1       0.263   2.256  26.018  0.00  0.00    +0.120 A 
BRANCH  20   6
ATOM      6  O   UNL     1       1.192   3.058  26.605  0.00  0.00    -0.495 OA
ATOM     26  C   UNL     1       1.516   2.786  27.968  0.00  0.00    +0.277 C 
ENDBRANCH  20   6
ENDBRANCH  10  14
BRANCH  11   2
ATOM      2  O   UNL     1      -3.490  -2.616  26.210  0.00  0.00    -0.388 OA
ATOM     29  H   UNL     1      -2.732  -2.046  26.425  0.00  0.00    +0.210 HD
ENDBRANCH  11   2
BRANCH  13   3
ATOM      3  O   UNL     1      -3.023  -3.917  23.823  0.00  0.00    -0.389 OA
ATOM     30  H   UNL     1      -2.502  -4.067  24.631  0.00  0.00    +0.210 HD
ENDBRANCH  13   3
BRANCH   9   7
ATOM      7  N   UNL     1      -5.110   0.085  24.443  0.00  0.00    -0.184 NA
ATOM     28  H   UNL     1      -5.351  -0.163  23.477  0.00  0.00    +0.148 HD
BRANCH   7   1
ATOM      1  S   UNL     1      -5.816   1.433  25.198  0.00  0.00    +0.059 S 
ATOM      4  O   UNL     1      -6.053   1.133  26.597  0.00  0.00    -0.153 OA
ATOM      5  O   UNL     1      -6.895   1.924  24.363  0.00  0.00    -0.153 OA
BRANCH   1  17
ATOM     17  C   UNL     1      -4.512   2.623  25.109  0.00  0.00    +0.105 A 
ATOM     21  C   UNL     1      -4.024   3.031  23.869  0.00  0.00    +0.030 A 
ATOM     22  C   UNL     1      -3.973   3.155  26.281  0.00  0.00    +0.030 A 
ATOM     23  C   UNL     1      -2.995   3.972  23.800  0.00  0.00    +0.021 A 
ATOM     24  C   UNL     1      -2.944   4.095  26.212  0.00  0.00    +0.021 A 
ATOM     25  C   UNL     1      -2.456   4.503  24.971  0.00  0.00    +0.052 A 
BRANCH  25  27
ATOM      8  N   UNL     1      -0.544   6.245  24.840  0.00  0.00    -0.191 NA
ATOM     27  C   UNL     1      -1.401   5.465  24.899  0.00  0.00    +0.099 C 
ENDBRANCH  25  27
ENDBRANCH   1  17
ENDBRANCH   7   1
ENDBRANCH   9   7
TORSDOF 8
ENDMDL
MODEL 5
REMARK VINA RESULT:       0.6      2.476      5.906
REMARK  Name = 75536097
REMARK  9 active torsions:
REMARK  status: ('A' for Active; 'I' for Inactive)
REMARK    1  A    between atoms: S_1  and  N_7
REMARK    2  A    between atoms: S_1  and  C_17
REMARK    3  A    between atoms: O_2  and  C_11
REMARK    4  A    between atoms: O_3  and  C_13
REMARK    5  A    between atoms: O_6  and  C_20
REMARK    6  A    between atoms: O_6  and  C_26
REMARK    7  A    between atoms: N_7  and  C_9
REMARK    8  A    between atoms: C_10  and  C_14
REMARK    9  A    between atoms: C_25  and  C_27
REMARK                            x       y       z     vdW  Elec       q    Type
REMARK                         _______ _______ _______ _____ _____    ______ ____
ROOT
ATOM      9  C   UNL     1      -3.444  -0.450  25.135  0.00  0.00    +0.115 C 
ATOM     10  C   UNL     1      -2.499  -1.045  24.055  0.00  0.00    +0.043 C 
ATOM     11  C   UNL     1      -3.852  -1.628  26.030  0.00  0.00    +0.162 C 
ATOM     12  C   UNL     1      -2.302  -2.518  24.451  0.00  0.00    +0.043 C 
ATOM     13  C   UNL     1      -3.599  -2.860  25.165  0.00  0.00    +0.145 C 
ENDROOT
BRANCH  10  14
ATOM     14  C   UNL     1      -1.195  -0.295  23.895  0.00  0.00    -0.042 A 
ATOM     15  C   UNL     1      -0.167  -0.839  23.125  0.00  0.00    +0.007 A 
ATOM     16  C   UNL     1      -1.023   0.942  24.515  0.00  0.00    +0.007 A 
ATOM     18  C   UNL     1       1.034  -0.146  22.978  0.00  0.00    +0.046 A 
ATOM     19  C   UNL     1       0.179   1.635  24.368  0.00  0.00    +0.046 A 
ATOM     20  C   UNL     1       1.207   1.091  23.599  0.00  0.00    +0.120 A 
BRANCH  20   6
ATOM      6  O   UNL     1       2.380   1.766  23.454  0.00  0.00    -0.495 OA
ATOM     26  C   UNL     1       3.439   1.090  22.778  0.00  0.00    +0.277 C 
ENDBRANCH  20   6
ENDBRANCH  10  14
BRANCH  11   2
ATOM      2  O   UNL     1      -2.999  -1.631  27.173  0.00  0.00    -0.388 OA
ATOM     29  H   UNL     1      -3.320  -2.324  27.775  0.00  0.00    +0.210 HD
ENDBRANCH  11   2
BRANCH  13   3
ATOM      3  O   UNL     1      -3.477  -4.044  25.926  0.00  0.00    -0.389 OA
ATOM     30  H   UNL     1      -3.282  -3.784  26.842  0.00  0.00    +0.210 HD
ENDBRANCH  13   3
BRANCH   9   7
ATOM      7  N   UNL     1      -4.651   0.111  24.475  0.00  0.00    -0.184 NA
ATOM     28  H   UNL     1      -4.871  -0.210  23.525  0.00  0.00    +0.148 HD
BRANCH   7   1
ATOM      1  S   UNL     1      -5.416   1.479  25.130  0.00  0.00    +0.059 S 
ATOM      4  O   UNL     1      -5.723   1.238  26.527  0.00  0.00    -0.153 OA
ATOM      5  O   UNL     1      -6.457   1.914  24.219  0.00  0.00    -0.153 OA
BRANCH   1  17
ATOM     17  C   UNL     1      -4.128   2.686  25.056  0.00  0.00    +0.105 A 
ATOM     21  C   UNL     1      -3.635   3.254  26.231  0.00  0.00    +0.030 A 
ATOM     22  C   UNL     1      -3.603   3.071  23.821  0.00  0.00    +0.030 A 
ATOM     23  C   UNL     1      -2.618   4.207  26.172  0.00  0.00    +0.021 A 
ATOM     24  C   UNL     1      -2.586   4.025  23.763  0.00  0.00    +0.021 A 
ATOM     25  C   UNL     1      -2.093   4.592  24.938  0.00  0.00    +0.052 A 
BRANCH  25  27
ATOM      8  N   UNL     1      -0.206   6.362  24.830  0.00  0.00    -0.191 NA
ATOM     27  C   UNL     1      -1.052   5.569  24.879  0.00  0.00    +0.099 C 
ENDBRANCH  25  27
ENDBRANCH   1  17
ENDBRANCH   7   1
ENDBRANCH   9   7
TORSDOF 8
ENDMDL
MODEL 6
REMARK VINA RESULT:       1.3      2.497      6.784
REMARK  Name = 75536097
REMARK  9 active torsions:
REMARK  status: ('A' for Active; 'I' for Inactive)
REMARK    1  A    between atoms: S_1  and  N_7
REMARK    2  A    between atoms: S_1  and  C_17
REMARK    3  A    between atoms: O_2  and  C_11
REMARK    4  A    between atoms: O_3  and  C_13
REMARK    5  A    between atoms: O_6  and  C_20
REMARK    6  A    between atoms: O_6  and  C_26
REMARK    7  A    between atoms: N_7  and  C_9
REMARK    8  A    between atoms: C_10  and  C_14
REMARK    9  A    between atoms: C_25  and  C_27
REMARK                            x       y       z     vdW  Elec       q    Type
REMARK                         _______ _______ _______ _____ _____    ______ ____
ROOT
ATOM      9  C   UNL     1      -1.110  -0.968  24.538  0.00  0.00    +0.115 C 
ATOM     10  C   UNL     1      -0.513   0.230  23.749  0.00  0.00    +0.043 C 
ATOM     11  C   UNL     1       0.069  -1.907  24.831  0.00  0.00    +0.162 C 
ATOM     12  C   UNL     1       1.006  -0.008  23.732  0.00  0.00    +0.043 C 
ATOM     13  C   UNL     1       1.119  -1.523  23.792  0.00  0.00    +0.145 C 
ENDROOT
BRANCH  10  14
ATOM     14  C   UNL     1      -0.895   1.584  24.303  0.00  0.00    -0.042 A 
ATOM     15  C   UNL     1      -0.968   2.689  23.455  0.00  0.00    +0.007 A 
ATOM     16  C   UNL     1      -1.176   1.728  25.661  0.00  0.00    +0.007 A 
ATOM     18  C   UNL     1      -1.321   3.938  23.966  0.00  0.00    +0.046 A 
ATOM     19  C   UNL     1      -1.529   2.976  26.173  0.00  0.00    +0.046 A 
ATOM     20  C   UNL     1      -1.601   4.082  25.325  0.00  0.00    +0.120 A 
BRANCH  20   6
ATOM      6  O   UNL     1      -1.946   5.300  25.823  0.00  0.00    -0.495 OA
ATOM     26  C   UNL     1      -1.839   6.416  24.940  0.00  0.00    +0.277 C 
ENDBRANCH  20   6
ENDBRANCH  10  14
BRANCH  11   2
ATOM      2  O   UNL     1       0.539  -1.628  26.148  0.00  0.00    -0.388 OA
ATOM     29  H   UNL     1      -0.229  -1.359  26.681  0.00  0.00    +0.210 HD
ENDBRANCH  11   2
BRANCH  13   3
ATOM      3  O   UNL     1       2.421  -1.933  24.155  0.00  0.00    -0.389 OA
ATOM     30  H   UNL     1       2.973  -1.134  24.214  0.00  0.00    +0.210 HD
ENDBRANCH  13   3
BRANCH   9   7
ATOM      7  N   UNL     1      -2.102  -1.672  23.685  0.00  0.00    -0.184 NA
ATOM     28  H   UNL     1      -1.875  -1.801  22.693  0.00  0.00    +0.148 HD
BRANCH   7   1
ATOM      1  S   UNL     1      -3.682  -1.926  24.256  0.00  0.00    +0.059 S 
ATOM      4  O   UNL     1      -3.631  -2.644  25.515  0.00  0.00    -0.153 OA
ATOM      5  O   UNL     1      -4.499  -2.421  23.166  0.00  0.00    -0.153 OA
BRANCH   1  17
ATOM     17  C   UNL     1      -4.216  -0.275  24.593  0.00  0.00    +0.105 A 
ATOM     21  C   UNL     1      -4.801   0.032  25.821  0.00  0.00    +0.030 A 
ATOM     22  C   UNL     1      -4.051   0.721  23.630  0.00  0.00    +0.030 A 
ATOM     23  C   UNL     1      -5.222   1.335  26.087  0.00  0.00    +0.021 A 
ATOM     24  C   UNL     1      -4.473   2.025  23.896  0.00  0.00    +0.021 A 
ATOM     25  C   UNL     1      -5.057   2.331  25.125  0.00  0.00    +0.052 A 
BRANCH  25  27
ATOM      8  N   UNL     1      -5.842   4.749  25.618  0.00  0.00    -0.191 NA
ATOM     27  C   UNL     1      -5.490   3.666  25.397  0.00  0.00    +0.099 C 
ENDBRANCH  25  27
ENDBRANCH   1  17
ENDBRANCH   7   1
ENDBRANCH   9   7
TORSDOF 8
ENDMDL
MODEL 7
REMARK VINA RESULT:       1.5      3.503      6.645
REMARK  Name = 75536097
REMARK  9 active torsions:
REMARK  status: ('A' for Active; 'I' for Inactive)
REMARK    1  A    between atoms: S_1  and  N_7
REMARK    2  A    between atoms: S_1  and  C_17
REMARK    3  A    between atoms: O_2  and  C_11
REMARK    4  A    between atoms: O_3  and  C_13
REMARK    5  A    between atoms: O_6  and  C_20
REMARK    6  A    between atoms: O_6  and  C_26
REMARK    7  A    between atoms: N_7  and  C_9
REMARK    8  A    between atoms: C_10  and  C_14
REMARK    9  A    between atoms: C_25  and  C_27
REMARK                            x       y       z     vdW  Elec       q    Type
REMARK                         _______ _______ _______ _____ _____    ______ ____
ROOT
ATOM      9  C   UNL     1       0.543   1.175  24.265  0.00  0.00    +0.115 C 
ATOM     10  C   UNL     1       1.171   0.351  23.108  0.00  0.00    +0.043 C 
ATOM     11  C   UNL     1      -0.695   0.389  24.716  0.00  0.00    +0.162 C 
ATOM     12  C   UNL     1       0.339  -0.941  23.028  0.00  0.00    +0.043 C 
ATOM     13  C   UNL     1      -1.029  -0.501  23.522  0.00  0.00    +0.145 C 
ENDROOT
BRANCH  10  14
ATOM     14  C   UNL     1       2.653   0.093  23.269  0.00  0.00    -0.042 A 
ATOM     15  C   UNL     1       3.571   1.103  22.982  0.00  0.00    +0.007 A 
ATOM     16  C   UNL     1       3.100  -1.154  23.705  0.00  0.00    +0.007 A 
ATOM     18  C   UNL     1       4.937   0.865  23.132  0.00  0.00    +0.046 A 
ATOM     19  C   UNL     1       4.466  -1.391  23.854  0.00  0.00    +0.046 A 
ATOM     20  C   UNL     1       5.385  -0.382  23.567  0.00  0.00    +0.120 A 
BRANCH  20   6
ATOM      6  O   UNL     1       6.718  -0.613  23.713  0.00  0.00    -0.495 OA
ATOM     26  C   UNL     1       7.495  -0.707  22.519  0.00  0.00    +0.277 C 
ENDBRANCH  20   6
ENDBRANCH  10  14
BRANCH  11   2
ATOM      2  O   UNL     1      -0.330  -0.401  25.846  0.00  0.00    -0.388 OA
ATOM     29  H   UNL     1      -1.040  -0.316  26.504  0.00  0.00    +0.210 HD
ENDBRANCH  11   2
BRANCH  13   3
ATOM      3  O   UNL     1      -1.834  -1.608  23.874  0.00  0.00    -0.389 OA
ATOM     30  H   UNL     1      -1.313  -2.169  24.473  0.00  0.00    +0.210 HD
ENDBRANCH  13   3
BRANCH   9   7
ATOM      7  N   UNL     1       0.123   2.504  23.749  0.00  0.00    -0.184 NA
ATOM     28  H   UNL     1       0.439   2.775  22.811  0.00  0.00    +0.148 HD
BRANCH   7   1
ATOM      1  S   UNL     1      -0.545   3.652  24.808  0.00  0.00    +0.059 S 
ATOM      4  O   UNL     1      -0.431   4.974  24.222  0.00  0.00    -0.153 OA
ATOM      5  O   UNL     1      -0.045   3.401  26.146  0.00  0.00    -0.153 OA
BRANCH   1  17
ATOM     17  C   UNL     1      -2.254   3.200  24.803  0.00  0.00    +0.105 A 
ATOM     21  C   UNL     1      -3.078   3.579  25.862  0.00  0.00    +0.030 A 
ATOM     22  C   UNL     1      -2.778   2.465  23.739  0.00  0.00    +0.030 A 
ATOM     23  C   UNL     1      -4.428   3.224  25.857  0.00  0.00    +0.021 A 
ATOM     24  C   UNL     1      -4.127   2.108  23.735  0.00  0.00    +0.021 A 
ATOM     25  C   UNL     1      -4.951   2.488  24.794  0.00  0.00    +0.052 A 
BRANCH  25  27
ATOM      8  N   UNL     1      -7.455   1.826  24.789  0.00  0.00    -0.191 NA
ATOM     27  C   UNL     1      -6.333   2.122  24.791  0.00  0.00    +0.099 C 
ENDBRANCH  25  27
ENDBRANCH   1  17
ENDBRANCH   7   1
ENDBRANCH   9   7
TORSDOF 8
ENDMDL
MODEL 8
REMARK VINA RESULT:       1.7      2.284      5.636
REMARK  Name = 75536097
REMARK  9 active torsions:
REMARK  status: ('A' for Active; 'I' for Inactive)
REMARK    1  A    between atoms: S_1  and  N_7
REMARK    2  A    between atoms: S_1  and  C_17
REMARK    3  A    between atoms: O_2  and  C_11
REMARK    4  A    between atoms: O_3  and  C_13
REMARK    5  A    between atoms: O_6  and  C_20
REMARK    6  A    between atoms: O_6  and  C_26
REMARK    7  A    between atoms: N_7  and  C_9
REMARK    8  A    between atoms: C_10  and  C_14
REMARK    9  A    between atoms: C_25  and  C_27
REMARK                            x       y       z     vdW  Elec       q    Type
REMARK                         _______ _______ _______ _____ _____    ______ ____
ROOT
ATOM      9  C   UNL     1      -3.043  -1.031  23.779  0.00  0.00    +0.115 C 
ATOM     10  C   UNL     1      -3.085  -0.405  25.200  0.00  0.00    +0.043 C 
ATOM     11  C   UNL     1      -3.278  -2.534  23.976  0.00  0.00    +0.162 C 
ATOM     12  C   UNL     1      -3.470  -1.557  26.143  0.00  0.00    +0.043 C 
ATOM     13  C   UNL     1      -2.913  -2.782  25.437  0.00  0.00    +0.145 C 
ENDROOT
BRANCH  10  14
ATOM     14  C   UNL     1      -4.002   0.792  25.319  0.00  0.00    -0.042 A 
ATOM     15  C   UNL     1      -5.346   0.679  24.960  0.00  0.00    +0.007 A 
ATOM     16  C   UNL     1      -3.506   2.007  25.790  0.00  0.00    +0.007 A 
ATOM     18  C   UNL     1      -6.191   1.782  25.071  0.00  0.00    +0.046 A 
ATOM     19  C   UNL     1      -4.352   3.110  25.900  0.00  0.00    +0.046 A 
ATOM     20  C   UNL     1      -5.695   2.998  25.540  0.00  0.00    +0.120 A 
BRANCH  20   6
ATOM      6  O   UNL     1      -6.521   4.074  25.648  0.00  0.00    -0.495 OA
ATOM     26  C   UNL     1      -5.958   5.355  25.369  0.00  0.00    +0.277 C 
ENDBRANCH  20   6
ENDBRANCH  10  14
BRANCH  11   2
ATOM      2  O   UNL     1      -4.662  -2.798  23.751  0.00  0.00    -0.388 OA
ATOM     29  H   UNL     1      -4.862  -2.544  22.834  0.00  0.00    +0.210 HD
ENDBRANCH  11   2
BRANCH  13   3
ATOM      3  O   UNL     1      -3.474  -3.975  25.945  0.00  0.00    -0.389 OA
ATOM     30  H   UNL     1      -4.322  -4.116  25.490  0.00  0.00    +0.210 HD
ENDBRANCH  13   3
BRANCH   9   7
ATOM      7  N   UNL     1      -1.696  -0.815  23.188  0.00  0.00    -0.184 NA
ATOM     28  H   UNL     1      -1.544  -1.119  22.220  0.00  0.00    +0.148 HD
BRANCH   7   1
ATOM      1  S   UNL     1      -0.385  -0.414  24.191  0.00  0.00    +0.059 S 
ATOM      4  O   UNL     1       0.856  -0.609  23.466  0.00  0.00    -0.153 OA
ATOM      5  O   UNL     1      -0.579  -1.037  25.486  0.00  0.00    -0.153 OA
BRANCH   1  17
ATOM     17  C   UNL     1      -0.617   1.324  24.415  0.00  0.00    +0.105 A 
ATOM     21  C   UNL     1      -0.184   1.940  25.589  0.00  0.00    +0.030 A 
ATOM     22  C   UNL     1      -1.232   2.079  23.416  0.00  0.00    +0.030 A 
ATOM     23  C   UNL     1      -0.366   3.312  25.765  0.00  0.00    +0.021 A 
ATOM     24  C   UNL     1      -1.416   3.452  23.593  0.00  0.00    +0.021 A 
ATOM     25  C   UNL     1      -0.982   4.067  24.767  0.00  0.00    +0.052 A 
BRANCH  25  27
ATOM      8  N   UNL     1      -1.322   6.613  25.096  0.00  0.00    -0.191 NA
ATOM     27  C   UNL     1      -1.170   5.472  24.949  0.00  0.00    +0.099 C 
ENDBRANCH  25  27
ENDBRANCH   1  17
ENDBRANCH   7   1
ENDBRANCH   9   7
TORSDOF 8
ENDMDL
MODEL 9
REMARK VINA RESULT:       2.2      2.347      5.292
REMARK  Name = 75536097
REMARK  9 active torsions:
REMARK  status: ('A' for Active; 'I' for Inactive)
REMARK    1  A    between atoms: S_1  and  N_7
REMARK    2  A    between atoms: S_1  and  C_17
REMARK    3  A    between atoms: O_2  and  C_11
REMARK    4  A    between atoms: O_3  and  C_13
REMARK    5  A    between atoms: O_6  and  C_20
REMARK    6  A    between atoms: O_6  and  C_26
REMARK    7  A    between atoms: N_7  and  C_9
REMARK    8  A    between atoms: C_10  and  C_14
REMARK    9  A    between atoms: C_25  and  C_27
REMARK                            x       y       z     vdW  Elec       q    Type
REMARK                         _______ _______ _______ _____ _____    ______ ____
ROOT
ATOM      9  C   UNL     1       0.388   0.946  23.881  0.00  0.00    +0.115 C 
ATOM     10  C   UNL     1       0.304  -0.351  24.733  0.00  0.00    +0.043 C 
ATOM     11  C   UNL     1       1.649   0.801  23.019  0.00  0.00    +0.162 C 
ATOM     12  C   UNL     1       1.451  -1.244  24.230  0.00  0.00    +0.043 C 
ATOM     13  C   UNL     1       2.488  -0.240  23.755  0.00  0.00    +0.145 C 
ENDROOT
BRANCH  10  14
ATOM     14  C   UNL     1      -1.045  -1.034  24.684  0.00  0.00    -0.042 A 
ATOM     15  C   UNL     1      -2.134  -0.474  25.353  0.00  0.00    +0.007 A 
ATOM     16  C   UNL     1      -1.199  -2.221  23.971  0.00  0.00    +0.007 A 
ATOM     18  C   UNL     1      -3.378  -1.103  25.307  0.00  0.00    +0.046 A 
ATOM     19  C   UNL     1      -2.443  -2.851  23.925  0.00  0.00    +0.046 A 
ATOM     20  C   UNL     1      -3.532  -2.292  24.593  0.00  0.00    +0.120 A 
BRANCH  20   6
ATOM      6  O   UNL     1      -4.746  -2.905  24.549  0.00  0.00    -0.495 OA
ATOM     26  C   UNL     1      -5.244  -3.266  23.261  0.00  0.00    +0.277 C 
ENDBRANCH  20   6
ENDBRANCH  10  14
BRANCH  11   2
ATOM      2  O   UNL     1       1.254   0.314  21.738  0.00  0.00    -0.388 OA
ATOM     29  H   UNL     1       1.524   0.976  21.078  0.00  0.00    +0.210 HD
ENDBRANCH  11   2
BRANCH  13   3
ATOM      3  O   UNL     1       3.456  -0.847  22.924  0.00  0.00    -0.389 OA
ATOM     30  H   UNL     1       3.016  -1.091  22.093  0.00  0.00    +0.210 HD
ENDBRANCH  13   3
BRANCH   9   7
ATOM      7  N   UNL     1       0.540   2.116  24.785  0.00  0.00    -0.184 NA
ATOM     28  H   UNL     1       0.942   1.955  25.715  0.00  0.00    +0.148 HD
BRANCH   7   1
ATOM      1  S   UNL     1      -0.249   3.576  24.419  0.00  0.00    +0.059 S 
ATOM      4  O   UNL     1       0.021   3.938  23.040  0.00  0.00    -0.153 OA
ATOM      5  O   UNL     1       0.005   4.525  25.485  0.00  0.00    -0.153 OA
BRANCH   1  17
ATOM     17  C   UNL     1      -1.950   3.111  24.537  0.00  0.00    +0.105 A 
ATOM     21  C   UNL     1      -2.681   3.424  25.682  0.00  0.00    +0.030 A 
ATOM     22  C   UNL     1      -2.561   2.430  23.483  0.00  0.00    +0.030 A 
ATOM     23  C   UNL     1      -4.024   3.057  25.774  0.00  0.00    +0.021 A 
ATOM     24  C   UNL     1      -3.904   2.062  23.576  0.00  0.00    +0.021 A 
ATOM     25  C   UNL     1      -4.635   2.376  24.722  0.00  0.00    +0.052 A 
BRANCH  25  27
ATOM      8  N   UNL     1      -7.126   1.692  24.895  0.00  0.00    -0.191 NA
ATOM     27  C   UNL     1      -6.010   1.999  24.818  0.00  0.00    +0.099 C 
ENDBRANCH  25  27
ENDBRANCH   1  17
ENDBRANCH   7   1
ENDBRANCH   9   7
TORSDOF 8
ENDMDL
MODEL 10
REMARK VINA RESULT:       2.4      2.523      6.275
REMARK  Name = 75536097
REMARK  9 active torsions:
REMARK  status: ('A' for Active; 'I' for Inactive)
REMARK    1  A    between atoms: S_1  and  N_7
REMARK    2  A    between atoms: S_1  and  C_17
REMARK    3  A    between atoms: O_2  and  C_11
REMARK    4  A    between atoms: O_3  and  C_13
REMARK    5  A    between atoms: O_6  and  C_20
REMARK    6  A    between atoms: O_6  and  C_26
REMARK    7  A    between atoms: N_7  and  C_9
REMARK    8  A    between atoms: C_10  and  C_14
REMARK    9  A    between atoms: C_25  and  C_27
REMARK                            x       y       z     vdW  Elec       q    Type
REMARK                         _______ _______ _______ _____ _____    ______ ____
ROOT
ATOM      9  C   UNL     1       0.384   0.140  24.360  0.00  0.00    +0.115 C 
ATOM     10  C   UNL     1      -0.757   0.371  23.330  0.00  0.00    +0.043 C 
ATOM     11  C   UNL     1       1.669  -0.011  23.535  0.00  0.00    +0.162 C 
ATOM     12  C   UNL     1      -0.059   0.471  21.963  0.00  0.00    +0.043 C 
ATOM     13  C   UNL     1       1.177  -0.395  22.142  0.00  0.00    +0.145 C 
ENDROOT
BRANCH  10  14
ATOM     14  C   UNL     1      -1.632   1.566  23.638  0.00  0.00    -0.042 A 
ATOM     15  C   UNL     1      -1.372   2.350  24.762  0.00  0.00    +0.007 A 
ATOM     16  C   UNL     1      -2.698   1.884  22.797  0.00  0.00    +0.007 A 
ATOM     18  C   UNL     1      -2.179   3.451  25.045  0.00  0.00    +0.046 A 
ATOM     19  C   UNL     1      -3.505   2.986  23.080  0.00  0.00    +0.046 A 
ATOM     20  C   UNL     1      -3.245   3.769  24.205  0.00  0.00    +0.120 A 
BRANCH  20   6
ATOM      6  O   UNL     1      -4.032   4.845  24.481  0.00  0.00    -0.495 OA
ATOM     26  C   UNL     1      -5.155   4.625  25.333  0.00  0.00    +0.277 C 
ENDBRANCH  20   6
ENDBRANCH  10  14
BRANCH  11   2
ATOM      2  O   UNL     1       2.326   1.254  23.505  0.00  0.00    -0.388 OA
ATOM     29  H   UNL     1       2.941   1.282  24.258  0.00  0.00    +0.210 HD
ENDBRANCH  11   2
BRANCH  13   3
ATOM      3  O   UNL     1       2.137  -0.146  21.136  0.00  0.00    -0.389 OA
ATOM     30  H   UNL     1       2.945  -0.630  21.378  0.00  0.00    +0.210 HD
ENDBRANCH  13   3
BRANCH   9   7
ATOM      7  N   UNL     1       0.124  -1.119  25.105  0.00  0.00    -0.184 NA
ATOM     28  H   UNL     1       0.817  -1.416  25.801  0.00  0.00    +0.148 HD
BRANCH   7   1
ATOM      1  S   UNL     1      -1.082  -2.188  24.566  0.00  0.00    +0.059 S 
ATOM      4  O   UNL     1      -1.156  -3.325  25.465  0.00  0.00    -0.153 OA
ATOM      5  O   UNL     1      -0.921  -2.396  23.140  0.00  0.00    -0.153 OA
BRANCH   1  17
ATOM     17  C   UNL     1      -2.547  -1.224  24.785  0.00  0.00    +0.105 A 
ATOM     21  C   UNL     1      -3.549  -1.248  23.815  0.00  0.00    +0.030 A 
ATOM     22  C   UNL     1      -2.701  -0.440  25.929  0.00  0.00    +0.030 A 
ATOM     23  C   UNL     1      -4.706  -0.487  23.988  0.00  0.00    +0.021 A 
ATOM     24  C   UNL     1      -3.858   0.321  26.102  0.00  0.00    +0.021 A 
ATOM     25  C   UNL     1      -4.860   0.297  25.131  0.00  0.00    +0.052 A 
BRANCH  25  27
ATOM      8  N   UNL     1      -7.006   1.710  25.451  0.00  0.00    -0.191 NA
ATOM     27  C   UNL     1      -6.044   1.077  25.307  0.00  0.00    +0.099 C 
ENDBRANCH  25  27
ENDBRANCH   1  17
ENDBRANCH   7   1
ENDBRANCH   9   7
TORSDOF 8
ENDMDL
