MODEL 1
REMARK VINA RESULT:       5.6      0.000      0.000
REMARK  Name = 11912431
REMARK  4 active torsions:
REMARK  status: ('A' for Active; 'I' for Inactive)
REMARK    1  A    between atoms: O_7  and  C_33
REMARK    2  A    between atoms: O_7  and  C_34
REMARK    3  A    between atoms: C_19  and  C_22
REMARK    4  A    between atoms: C_20  and  C_23
REMARK                            x       y       z     vdW  Elec       q    Type
REMARK                         _______ _______ _______ _____ _____    ______ ____
ROOT
ATOM      5  O   UNL     1       0.055   2.555  25.360  0.00  0.00    -0.267 OA
ATOM      6  O   UNL     1      -3.778  -0.207  27.294  0.00  0.00    -0.270 OA
ATOM      8  N   UNL     1      -4.710   1.175  25.653  0.00  0.00    -0.297 N 
ATOM      9  N   UNL     1      -2.124   2.599  24.532  0.00  0.00    -0.311 N 
ATOM     10  C   UNL     1      -4.085   3.572  25.864  0.00  0.00    +0.027 C 
ATOM     11  C   UNL     1      -4.478   2.603  23.635  0.00  0.00    +0.054 C 
ATOM     12  C   UNL     1      -4.697   3.847  24.495  0.00  0.00    +0.018 C 
ATOM     13  C   UNL     1      -4.761   2.353  26.518  0.00  0.00    +0.113 C 
ATOM     14  C   UNL     1      -2.573   3.374  25.698  0.00  0.00    +0.130 C 
ATOM     15  C   UNL     1      -5.191   1.397  24.279  0.00  0.00    +0.117 C 
ATOM     16  C   UNL     1      -3.000   2.296  23.487  0.00  0.00    +0.027 A 
ATOM     17  C   UNL     1      -2.542   1.696  22.375  0.00  0.00    +0.022 A 
ATOM     18  C   UNL     1      -0.755   2.275  24.475  0.00  0.00    +0.259 A 
ATOM     19  C   UNL     1      -4.180  -0.019  26.147  0.00  0.00    +0.247 C 
ATOM     20  C   UNL     1      -0.282   1.561  23.239  0.00  0.00    +0.047 A 
ATOM     21  C   UNL     1      -1.163   1.319  22.256  0.00  0.00    +0.015 A 
ENDROOT
BRANCH  19  22
ATOM      1  F   UNL     1      -3.740  -4.351  22.639  0.00  0.00    -0.205 F 
ATOM     22  C   UNL     1      -4.063  -1.154  25.226  0.00  0.00    +0.037 A 
ATOM     24  C   UNL     1      -3.320  -2.273  25.595  0.00  0.00    +0.016 A 
ATOM     25  C   UNL     1      -4.698  -1.110  23.987  0.00  0.00    +0.016 A 
ATOM     28  C   UNL     1      -3.210  -3.354  24.720  0.00  0.00    +0.039 A 
ATOM     29  C   UNL     1      -4.588  -2.191  23.112  0.00  0.00    +0.039 A 
ATOM     32  C   UNL     1      -3.843  -3.313  23.479  0.00  0.00    +0.123 A 
ENDBRANCH  19  22
BRANCH  20  23
ATOM     23  C   UNL     1       1.116   1.114  23.104  0.00  0.00    -0.012 A 
ATOM     26  C   UNL     1       2.151   2.049  23.104  0.00  0.00    +0.012 A 
ATOM     27  C   UNL     1       1.404  -0.245  22.976  0.00  0.00    +0.012 A 
ATOM     30  C   UNL     1       3.473   1.625  22.976  0.00  0.00    +0.046 A 
ATOM     31  C   UNL     1       2.727  -0.668  22.847  0.00  0.00    +0.046 A 
ATOM     33  C   UNL     1       3.762   0.267  22.848  0.00  0.00    +0.130 A 
BRANCH  33   7
ATOM      7  O   UNL     1       5.053  -0.146  22.724  0.00  0.00    -0.406 OA
BRANCH   7  34
ATOM      2  F   UNL     1       5.534  -1.266  24.660  0.00  0.00    -0.133 F 
ATOM      3  F   UNL     1       5.642   0.917  24.626  0.00  0.00    -0.133 F 
ATOM      4  F   UNL     1       7.171  -0.245  23.582  0.00  0.00    -0.133 F 
ATOM     34  C   UNL     1       5.858  -0.201  23.896  0.00  0.00    +0.575 C 
ENDBRANCH   7  34
ENDBRANCH  33   7
ENDBRANCH  20  23
TORSDOF 4
ENDMDL
