MODEL 1
REMARK VINA RESULT:      -5.5      0.000      0.000
REMARK  Name = 38028556
REMARK  13 active torsions:
REMARK  status: ('A' for Active; 'I' for Inactive)
REMARK    1  A    between atoms: O_3  and  C_22
REMARK    2  A    between atoms: O_3  and  C_26
REMARK    3  A    between atoms: N_4  and  C_14
REMARK    4  A    between atoms: N_5  and  C_21
REMARK    5  A    between atoms: C_7  and  C_11
REMARK    6  A    between atoms: C_8  and  C_14
REMARK    7  A    between atoms: C_10  and  C_15
REMARK    8  A    between atoms: C_11  and  C_16
REMARK    9  A    between atoms: C_11  and  C_17
REMARK   10  A    between atoms: C_12  and  C_18
REMARK   11  A    between atoms: C_15  and  C_19
REMARK   12  A    between atoms: C_20  and  C_22
REMARK   13  A    between atoms: C_21  and  C_23
REMARK                            x       y       z     vdW  Elec       q    Type
REMARK                         _______ _______ _______ _____ _____    ______ ____
ROOT
ATOM      7  C   UNL     1      -1.113   0.392  24.601  0.00  0.00    +0.000 C 
ATOM      8  C   UNL     1      -0.291  -0.913  24.451  0.00  0.00    +0.032 C 
ATOM      9  C   UNL     1      -2.235   0.202  25.634  0.00  0.00    +0.012 C 
ATOM     10  C   UNL     1      -3.195  -0.939  25.247  0.00  0.00    +0.023 C 
ATOM     12  C   UNL     1      -2.446  -2.187  24.825  0.00  0.00    -0.073 C 
ATOM     13  C   UNL     1      -1.145  -2.158  24.486  0.00  0.00    -0.022 C 
ATOM     18  C   UNL     1      -3.216  -3.479  24.847  0.00  0.00    +0.039 C 
ENDROOT
BRANCH   7  11
ATOM     11  C   UNL     1      -0.231   1.576  25.006  0.00  0.00    -0.013 C 
ATOM     16  C   UNL     1      -0.435   2.744  24.046  0.00  0.00    +0.007 C 
ATOM     17  C   UNL     1      -0.530   1.997  26.441  0.00  0.00    +0.007 C 
ENDBRANCH   7  11
BRANCH   8  14
ATOM     14  C   UNL     1       0.538  -0.898  23.162  0.00  0.00    +0.112 C 
BRANCH  14   4
ATOM      2  O   UNL     1       2.463  -0.170  21.129  0.00  0.00    -0.273 OA
ATOM      4  N   UNL     1       1.743  -0.152  23.343  0.00  0.00    -0.313 N 
ATOM     20  C   UNL     1       2.619   0.158  22.303  0.00  0.00    +0.239 C 
ATOM     29  H   UNL     1       1.943   0.219  24.267  0.00  0.00    +0.149 HD
BRANCH  20  22
ATOM     22  C   UNL     1       3.813   0.958  22.777  0.00  0.00    +0.255 C 
BRANCH  22   3
ATOM      3  O   UNL     1       4.990   0.180  22.720  0.00  0.00    -0.374 OA
ATOM     26  C   UNL     1       5.410  -0.244  24.014  0.00  0.00    +0.194 C 
ENDBRANCH  22   3
ENDBRANCH  20  22
ENDBRANCH  14   4
ENDBRANCH   8  14
BRANCH  10  15
ATOM     15  C   UNL     1      -4.174  -0.491  24.156  0.00  0.00    +0.103 C 
BRANCH  15  19
ATOM      1  O   UNL     1      -3.730   1.735  23.316  0.00  0.00    -0.276 OA
ATOM      5  N   UNL     1      -5.213   1.452  25.083  0.00  0.00    -0.311 N 
ATOM     19  C   UNL     1      -4.325   1.013  24.112  0.00  0.00    +0.214 C 
ATOM     30  H   UNL     1      -5.661   0.776  25.696  0.00  0.00    +0.149 HD
BRANCH   5  21
ATOM     21  C   UNL     1      -5.551   2.844  25.272  0.00  0.00    +0.141 C 
BRANCH  21  23
ATOM      6  N   UNL     1      -2.876   5.274  24.161  0.00  0.00    -0.263 NA
ATOM     23  C   UNL     1      -4.332   3.720  25.305  0.00  0.00    -0.012 A 
ATOM     24  C   UNL     1      -3.540   3.804  26.444  0.00  0.00    +0.008 A 
ATOM     25  C   UNL     1      -3.961   4.468  24.199  0.00  0.00    +0.115 A 
ATOM     27  C   UNL     1      -2.415   4.622  26.443  0.00  0.00    +0.020 A 
ATOM     28  C   UNL     1      -2.129   5.330  25.287  0.00  0.00    +0.111 A 
ENDBRANCH  21  23
ENDBRANCH   5  21
ENDBRANCH  15  19
ENDBRANCH  10  15
TORSDOF 9
ENDMDL
MODEL 2
REMARK VINA RESULT:      -4.8      2.020      6.847
REMARK  Name = 38028556
REMARK  13 active torsions:
REMARK  status: ('A' for Active; 'I' for Inactive)
REMARK    1  A    between atoms: O_3  and  C_22
REMARK    2  A    between atoms: O_3  and  C_26
REMARK    3  A    between atoms: N_4  and  C_14
REMARK    4  A    between atoms: N_5  and  C_21
REMARK    5  A    between atoms: C_7  and  C_11
REMARK    6  A    between atoms: C_8  and  C_14
REMARK    7  A    between atoms: C_10  and  C_15
REMARK    8  A    between atoms: C_11  and  C_16
REMARK    9  A    between atoms: C_11  and  C_17
REMARK   10  A    between atoms: C_12  and  C_18
REMARK   11  A    between atoms: C_15  and  C_19
REMARK   12  A    between atoms: C_20  and  C_22
REMARK   13  A    between atoms: C_21  and  C_23
REMARK                            x       y       z     vdW  Elec       q    Type
REMARK                         _______ _______ _______ _____ _____    ______ ____
ROOT
ATOM      7  C   UNL     1      -3.283   1.116  23.643  0.00  0.00    +0.000 C 
ATOM      8  C   UNL     1      -4.581   0.543  24.267  0.00  0.00    +0.032 C 
ATOM      9  C   UNL     1      -2.392  -0.021  23.121  0.00  0.00    +0.012 C 
ATOM     10  C   UNL     1      -2.002  -1.013  24.232  0.00  0.00    +0.023 C 
ATOM     12  C   UNL     1      -3.199  -1.421  25.068  0.00  0.00    -0.073 C 
ATOM     13  C   UNL     1      -4.347  -0.721  25.059  0.00  0.00    -0.022 C 
ATOM     18  C   UNL     1      -3.062  -2.680  25.879  0.00  0.00    +0.039 C 
ENDROOT
BRANCH   7  11
ATOM     11  C   UNL     1      -3.584   2.101  22.510  0.00  0.00    -0.013 C 
ATOM     16  C   UNL     1      -3.642   3.528  23.047  0.00  0.00    +0.007 C 
ATOM     17  C   UNL     1      -2.538   1.980  21.407  0.00  0.00    +0.007 C 
ENDBRANCH   7  11
BRANCH   8  14
ATOM     14  C   UNL     1      -5.274   1.582  25.154  0.00  0.00    +0.112 C 
BRANCH  14   4
ATOM      2  O   UNL     1      -5.680   4.371  25.803  0.00  0.00    -0.273 OA
ATOM      4  N   UNL     1      -4.320   2.484  25.718  0.00  0.00    -0.313 N 
ATOM     20  C   UNL     1      -4.600   3.821  26.001  0.00  0.00    +0.239 C 
ATOM     29  H   UNL     1      -3.408   2.118  25.975  0.00  0.00    +0.149 HD
BRANCH  20  22
ATOM     22  C   UNL     1      -3.409   4.544  26.593  0.00  0.00    +0.255 C 
BRANCH  22   3
ATOM      3  O   UNL     1      -2.202   3.986  26.120  0.00  0.00    -0.374 OA
ATOM     26  C   UNL     1      -1.473   4.905  25.312  0.00  0.00    +0.194 C 
ENDBRANCH  22   3
ENDBRANCH  20  22
ENDBRANCH  14   4
ENDBRANCH   8  14
BRANCH  10  15
ATOM     15  C   UNL     1      -0.886  -0.444  25.115  0.00  0.00    +0.103 C 
BRANCH  15  19
ATOM      1  O   UNL     1       0.313   1.568  24.506  0.00  0.00    -0.276 OA
ATOM      5  N   UNL     1       0.738  -0.410  23.361  0.00  0.00    -0.311 N 
ATOM     19  C   UNL     1       0.107   0.372  24.318  0.00  0.00    +0.214 C 
ATOM     30  H   UNL     1       0.502  -1.395  23.283  0.00  0.00    +0.149 HD
BRANCH   5  21
ATOM     21  C   UNL     1       1.737   0.106  22.454  0.00  0.00    +0.141 C 
BRANCH  21  23
ATOM      6  N   UNL     1       4.764  -1.532  24.018  0.00  0.00    -0.263 NA
ATOM     23  C   UNL     1       3.129  -0.084  22.981  0.00  0.00    -0.012 A 
ATOM     24  C   UNL     1       4.058   0.950  22.942  0.00  0.00    +0.008 A 
ATOM     25  C   UNL     1       3.528  -1.294  23.524  0.00  0.00    +0.115 A 
ATOM     27  C   UNL     1       5.340   0.744  23.441  0.00  0.00    +0.020 A 
ATOM     28  C   UNL     1       5.640  -0.503  23.964  0.00  0.00    +0.111 A 
ENDBRANCH  21  23
ENDBRANCH   5  21
ENDBRANCH  15  19
ENDBRANCH  10  15
TORSDOF 9
ENDMDL
MODEL 3
REMARK VINA RESULT:      -4.6      1.661      3.478
REMARK  Name = 38028556
REMARK  13 active torsions:
REMARK  status: ('A' for Active; 'I' for Inactive)
REMARK    1  A    between atoms: O_3  and  C_22
REMARK    2  A    between atoms: O_3  and  C_26
REMARK    3  A    between atoms: N_4  and  C_14
REMARK    4  A    between atoms: N_5  and  C_21
REMARK    5  A    between atoms: C_7  and  C_11
REMARK    6  A    between atoms: C_8  and  C_14
REMARK    7  A    between atoms: C_10  and  C_15
REMARK    8  A    between atoms: C_11  and  C_16
REMARK    9  A    between atoms: C_11  and  C_17
REMARK   10  A    between atoms: C_12  and  C_18
REMARK   11  A    between atoms: C_15  and  C_19
REMARK   12  A    between atoms: C_20  and  C_22
REMARK   13  A    between atoms: C_21  and  C_23
REMARK                            x       y       z     vdW  Elec       q    Type
REMARK                         _______ _______ _______ _____ _____    ______ ____
ROOT
ATOM      7  C   UNL     1      -3.447  -0.766  25.045  0.00  0.00    +0.000 C 
ATOM      8  C   UNL     1      -2.231  -0.039  24.418  0.00  0.00    +0.032 C 
ATOM      9  C   UNL     1      -4.709  -0.526  24.201  0.00  0.00    +0.012 C 
ATOM     10  C   UNL     1      -5.047   0.972  24.072  0.00  0.00    +0.023 C 
ATOM     12  C   UNL     1      -3.827   1.796  23.716  0.00  0.00    -0.073 C 
ATOM     13  C   UNL     1      -2.577   1.323  23.864  0.00  0.00    -0.022 C 
ATOM     18  C   UNL     1      -4.077   3.163  23.139  0.00  0.00    +0.039 C 
ENDROOT
BRANCH   7  11
ATOM     11  C   UNL     1      -3.199  -2.270  25.189  0.00  0.00    -0.013 C 
ATOM     16  C   UNL     1      -4.061  -3.049  24.200  0.00  0.00    +0.007 C 
ATOM     17  C   UNL     1      -1.721  -2.587  24.984  0.00  0.00    +0.007 C 
ENDBRANCH   7  11
BRANCH   8  14
ATOM     14  C   UNL     1      -1.087   0.096  25.428  0.00  0.00    +0.112 C 
BRANCH  14   4
ATOM      2  O   UNL     1       0.343  -0.795  23.077  0.00  0.00    -0.273 OA
ATOM      4  N   UNL     1       0.052   0.715  24.825  0.00  0.00    -0.313 N 
ATOM     20  C   UNL     1       0.683   0.217  23.686  0.00  0.00    +0.239 C 
ATOM     29  H   UNL     1       0.383   1.592  25.215  0.00  0.00    +0.149 HD
BRANCH  20  22
ATOM     22  C   UNL     1       1.861   1.069  23.263  0.00  0.00    +0.255 C 
BRANCH  22   3
ATOM      3  O   UNL     1       2.806   0.297  22.553  0.00  0.00    -0.374 OA
ATOM     26  C   UNL     1       4.137   0.754  22.773  0.00  0.00    +0.194 C 
ENDBRANCH  22   3
ENDBRANCH  20  22
ENDBRANCH  14   4
ENDBRANCH   8  14
BRANCH  10  15
ATOM     15  C   UNL     1      -5.711   1.499  25.349  0.00  0.00    +0.103 C 
BRANCH  15  19
ATOM      1  O   UNL     1      -5.842   3.914  25.451  0.00  0.00    -0.276 OA
ATOM      5  N   UNL     1      -4.002   2.828  26.364  0.00  0.00    -0.311 N 
ATOM     19  C   UNL     1      -5.225   2.885  25.711  0.00  0.00    +0.214 C 
ATOM     30  H   UNL     1      -3.568   1.925  26.538  0.00  0.00    +0.149 HD
BRANCH   5  21
ATOM     21  C   UNL     1      -3.299   4.002  26.827  0.00  0.00    +0.141 C 
BRANCH  21  23
ATOM      6  N   UNL     1       0.043   3.686  25.085  0.00  0.00    -0.263 NA
ATOM     23  C   UNL     1      -2.118   4.329  25.959  0.00  0.00    -0.012 A 
ATOM     24  C   UNL     1      -2.060   5.521  25.247  0.00  0.00    +0.008 A 
ATOM     25  C   UNL     1      -1.051   3.453  25.846  0.00  0.00    +0.115 A 
ATOM     27  C   UNL     1      -0.952   5.798  24.454  0.00  0.00    +0.020 A 
ATOM     28  C   UNL     1       0.063   4.856  24.407  0.00  0.00    +0.111 A 
ENDBRANCH  21  23
ENDBRANCH   5  21
ENDBRANCH  15  19
ENDBRANCH  10  15
TORSDOF 9
ENDMDL
MODEL 4
REMARK VINA RESULT:      -4.3      1.688      4.776
REMARK  Name = 38028556
REMARK  13 active torsions:
REMARK  status: ('A' for Active; 'I' for Inactive)
REMARK    1  A    between atoms: O_3  and  C_22
REMARK    2  A    between atoms: O_3  and  C_26
REMARK    3  A    between atoms: N_4  and  C_14
REMARK    4  A    between atoms: N_5  and  C_21
REMARK    5  A    between atoms: C_7  and  C_11
REMARK    6  A    between atoms: C_8  and  C_14
REMARK    7  A    between atoms: C_10  and  C_15
REMARK    8  A    between atoms: C_11  and  C_16
REMARK    9  A    between atoms: C_11  and  C_17
REMARK   10  A    between atoms: C_12  and  C_18
REMARK   11  A    between atoms: C_15  and  C_19
REMARK   12  A    between atoms: C_20  and  C_22
REMARK   13  A    between atoms: C_21  and  C_23
REMARK                            x       y       z     vdW  Elec       q    Type
REMARK                         _______ _______ _______ _____ _____    ______ ____
ROOT
ATOM      7  C   UNL     1      -2.265   2.093  23.660  0.00  0.00    +0.000 C 
ATOM      8  C   UNL     1      -0.891   2.766  23.912  0.00  0.00    +0.032 C 
ATOM      9  C   UNL     1      -3.331   3.154  23.344  0.00  0.00    +0.012 C 
ATOM     10  C   UNL     1      -3.489   4.179  24.483  0.00  0.00    +0.023 C 
ATOM     12  C   UNL     1      -2.149   4.691  24.971  0.00  0.00    -0.073 C 
ATOM     13  C   UNL     1      -0.998   4.053  24.694  0.00  0.00    -0.022 C 
ATOM     18  C   UNL     1      -2.157   5.980  25.745  0.00  0.00    +0.039 C 
ENDROOT
BRANCH   7  11
ATOM     11  C   UNL     1      -2.197   1.070  22.523  0.00  0.00    -0.013 C 
ATOM     16  C   UNL     1      -3.344   0.071  22.638  0.00  0.00    +0.007 C 
ATOM     17  C   UNL     1      -2.228   1.775  21.171  0.00  0.00    +0.007 C 
ENDBRANCH   7  11
BRANCH   8  14
ATOM     14  C   UNL     1       0.069   1.810  24.628  0.00  0.00    +0.112 C 
BRANCH  14   4
ATOM      2  O   UNL     1       0.680  -0.572  23.105  0.00  0.00    -0.273 OA
ATOM      4  N   UNL     1       1.232   1.570  23.833  0.00  0.00    -0.313 N 
ATOM     20  C   UNL     1       1.448   0.387  23.127  0.00  0.00    +0.239 C 
ATOM     29  H   UNL     1       1.908   2.321  23.733  0.00  0.00    +0.149 HD
BRANCH  20  22
ATOM     22  C   UNL     1       2.759   0.402  22.369  0.00  0.00    +0.255 C 
BRANCH  22   3
ATOM      3  O   UNL     1       3.731   1.151  23.070  0.00  0.00    -0.374 OA
ATOM     26  C   UNL     1       4.916   0.395  23.303  0.00  0.00    +0.194 C 
ENDBRANCH  22   3
ENDBRANCH  20  22
ENDBRANCH  14   4
ENDBRANCH   8  14
BRANCH  10  15
ATOM     15  C   UNL     1      -4.307   3.595  25.640  0.00  0.00    +0.103 C 
BRANCH  15  19
ATOM      1  O   UNL     1      -5.944   2.166  24.574  0.00  0.00    -0.276 OA
ATOM      5  N   UNL     1      -4.244   1.214  25.840  0.00  0.00    -0.311 N 
ATOM     19  C   UNL     1      -4.942   2.272  25.276  0.00  0.00    +0.214 C 
ATOM     30  H   UNL     1      -3.421   1.401  26.406  0.00  0.00    +0.149 HD
BRANCH   5  21
ATOM     21  C   UNL     1      -4.625  -0.168  25.661  0.00  0.00    +0.141 C 
BRANCH  21  23
ATOM      6  N   UNL     1      -1.064  -1.440  25.663  0.00  0.00    -0.263 NA
ATOM     23  C   UNL     1      -3.437  -1.052  25.412  0.00  0.00    -0.012 A 
ATOM     24  C   UNL     1      -3.570  -2.256  24.729  0.00  0.00    +0.008 A 
ATOM     25  C   UNL     1      -2.175  -0.692  25.855  0.00  0.00    +0.115 A 
ATOM     27  C   UNL     1      -2.450  -3.052  24.512  0.00  0.00    +0.020 A 
ATOM     28  C   UNL     1      -1.232  -2.603  24.994  0.00  0.00    +0.111 A 
ENDBRANCH  21  23
ENDBRANCH   5  21
ENDBRANCH  15  19
ENDBRANCH  10  15
TORSDOF 9
ENDMDL
MODEL 5
REMARK VINA RESULT:      -3.9      1.709      7.552
REMARK  Name = 38028556
REMARK  13 active torsions:
REMARK  status: ('A' for Active; 'I' for Inactive)
REMARK    1  A    between atoms: O_3  and  C_22
REMARK    2  A    between atoms: O_3  and  C_26
REMARK    3  A    between atoms: N_4  and  C_14
REMARK    4  A    between atoms: N_5  and  C_21
REMARK    5  A    between atoms: C_7  and  C_11
REMARK    6  A    between atoms: C_8  and  C_14
REMARK    7  A    between atoms: C_10  and  C_15
REMARK    8  A    between atoms: C_11  and  C_16
REMARK    9  A    between atoms: C_11  and  C_17
REMARK   10  A    between atoms: C_12  and  C_18
REMARK   11  A    between atoms: C_15  and  C_19
REMARK   12  A    between atoms: C_20  and  C_22
REMARK   13  A    between atoms: C_21  and  C_23
REMARK                            x       y       z     vdW  Elec       q    Type
REMARK                         _______ _______ _______ _____ _____    ______ ____
ROOT
ATOM      7  C   UNL     1      -2.911  -1.190  24.506  0.00  0.00    +0.000 C 
ATOM      8  C   UNL     1      -3.529  -0.198  25.523  0.00  0.00    +0.032 C 
ATOM      9  C   UNL     1      -1.417  -1.398  24.800  0.00  0.00    +0.012 C 
ATOM     10  C   UNL     1      -0.623  -0.079  24.741  0.00  0.00    +0.023 C 
ATOM     12  C   UNL     1      -1.316   1.030  25.507  0.00  0.00    -0.073 C 
ATOM     13  C   UNL     1      -2.611   0.953  25.859  0.00  0.00    -0.022 C 
ATOM     18  C   UNL     1      -0.472   2.211  25.900  0.00  0.00    +0.039 C 
ENDROOT
BRANCH   7  11
ATOM     11  C   UNL     1      -3.634  -2.540  24.517  0.00  0.00    -0.013 C 
ATOM     16  C   UNL     1      -4.739  -2.560  23.465  0.00  0.00    +0.007 C 
ATOM     17  C   UNL     1      -2.644  -3.676  24.282  0.00  0.00    +0.007 C 
ENDBRANCH   7  11
BRANCH   8  14
ATOM     14  C   UNL     1      -4.870   0.347  25.019  0.00  0.00    +0.112 C 
BRANCH  14   4
ATOM      2  O   UNL     1      -6.178   2.288  26.718  0.00  0.00    -0.273 OA
ATOM      4  N   UNL     1      -4.824   1.770  24.897  0.00  0.00    -0.313 N 
ATOM     20  C   UNL     1      -5.488   2.638  25.764  0.00  0.00    +0.239 C 
ATOM     29  H   UNL     1      -4.233   2.171  24.174  0.00  0.00    +0.149 HD
BRANCH  20  22
ATOM     22  C   UNL     1      -5.266   4.091  25.403  0.00  0.00    +0.255 C 
BRANCH  22   3
ATOM      3  O   UNL     1      -3.951   4.292  24.929  0.00  0.00    -0.374 OA
ATOM     26  C   UNL     1      -3.037   4.546  25.992  0.00  0.00    +0.194 C 
ENDBRANCH  22   3
ENDBRANCH  20  22
ENDBRANCH  14   4
ENDBRANCH   8  14
BRANCH  10  15
ATOM     15  C   UNL     1      -0.355   0.340  23.292  0.00  0.00    +0.103 C 
BRANCH  15  19
ATOM      1  O   UNL     1       1.683   1.561  23.751  0.00  0.00    -0.276 OA
ATOM      5  N   UNL     1       1.636   0.026  22.007  0.00  0.00    -0.311 N 
ATOM     19  C   UNL     1       1.089   0.729  23.071  0.00  0.00    +0.214 C 
ATOM     30  H   UNL     1       1.064  -0.647  21.504  0.00  0.00    +0.149 HD
BRANCH   5  21
ATOM     21  C   UNL     1       3.002   0.195  21.568  0.00  0.00    +0.141 C 
BRANCH  21  23
ATOM      6  N   UNL     1       4.885  -1.685  24.254  0.00  0.00    -0.263 NA
ATOM     23  C   UNL     1       3.986  -0.104  22.661  0.00  0.00    -0.012 A 
ATOM     24  C   UNL     1       4.884   0.862  23.102  0.00  0.00    +0.008 A 
ATOM     25  C   UNL     1       4.027  -1.350  23.264  0.00  0.00    +0.115 A 
ATOM     27  C   UNL     1       5.782   0.556  24.118  0.00  0.00    +0.020 A 
ATOM     28  C   UNL     1       5.742  -0.720  24.656  0.00  0.00    +0.111 A 
ENDBRANCH  21  23
ENDBRANCH   5  21
ENDBRANCH  15  19
ENDBRANCH  10  15
TORSDOF 9
ENDMDL
MODEL 6
REMARK VINA RESULT:      -2.9      2.478      5.499
REMARK  Name = 38028556
REMARK  13 active torsions:
REMARK  status: ('A' for Active; 'I' for Inactive)
REMARK    1  A    between atoms: O_3  and  C_22
REMARK    2  A    between atoms: O_3  and  C_26
REMARK    3  A    between atoms: N_4  and  C_14
REMARK    4  A    between atoms: N_5  and  C_21
REMARK    5  A    between atoms: C_7  and  C_11
REMARK    6  A    between atoms: C_8  and  C_14
REMARK    7  A    between atoms: C_10  and  C_15
REMARK    8  A    between atoms: C_11  and  C_16
REMARK    9  A    between atoms: C_11  and  C_17
REMARK   10  A    between atoms: C_12  and  C_18
REMARK   11  A    between atoms: C_15  and  C_19
REMARK   12  A    between atoms: C_20  and  C_22
REMARK   13  A    between atoms: C_21  and  C_23
REMARK                            x       y       z     vdW  Elec       q    Type
REMARK                         _______ _______ _______ _____ _____    ______ ____
ROOT
ATOM      7  C   UNL     1      -3.480   2.313  24.027  0.00  0.00    +0.000 C 
ATOM      8  C   UNL     1      -4.151   3.489  24.781  0.00  0.00    +0.032 C 
ATOM      9  C   UNL     1      -4.510   1.218  23.715  0.00  0.00    +0.012 C 
ATOM     10  C   UNL     1      -5.177   0.664  24.989  0.00  0.00    +0.023 C 
ATOM     12  C   UNL     1      -5.629   1.775  25.915  0.00  0.00    -0.073 C 
ATOM     13  C   UNL     1      -5.170   3.034  25.798  0.00  0.00    -0.022 C 
ATOM     18  C   UNL     1      -6.658   1.416  26.951  0.00  0.00    +0.039 C 
ENDROOT
BRANCH   7  11
ATOM     11  C   UNL     1      -2.808   2.778  22.732  0.00  0.00    -0.013 C 
ATOM     16  C   UNL     1      -2.295   1.580  21.939  0.00  0.00    +0.007 C 
ATOM     17  C   UNL     1      -3.779   3.603  21.895  0.00  0.00    +0.007 C 
ENDBRANCH   7  11
BRANCH   8  14
ATOM     14  C   UNL     1      -3.106   4.376  25.465  0.00  0.00    +0.112 C 
BRANCH  14   4
ATOM      2  O   UNL     1      -0.246   4.062  25.173  0.00  0.00    -0.273 OA
ATOM      4  N   UNL     1      -2.236   3.594  26.286  0.00  0.00    -0.313 N 
ATOM     20  C   UNL     1      -0.861   3.497  26.074  0.00  0.00    +0.239 C 
ATOM     29  H   UNL     1      -2.633   3.128  27.097  0.00  0.00    +0.149 HD
BRANCH  20  22
ATOM     22  C   UNL     1      -0.186   2.603  27.092  0.00  0.00    +0.255 C 
BRANCH  22   3
ATOM      3  O   UNL     1       1.199   2.872  27.151  0.00  0.00    -0.374 OA
ATOM     26  C   UNL     1       1.713   2.723  28.471  0.00  0.00    +0.194 C 
ENDBRANCH  22   3
ENDBRANCH  20  22
ENDBRANCH  14   4
ENDBRANCH   8  14
BRANCH  10  15
ATOM     15  C   UNL     1      -4.249  -0.313  25.717  0.00  0.00    +0.103 C 
BRANCH  15  19
ATOM      1  O   UNL     1      -3.917  -1.953  23.968  0.00  0.00    -0.276 OA
ATOM      5  N   UNL     1      -2.077  -0.868  24.885  0.00  0.00    -0.311 N 
ATOM     19  C   UNL     1      -3.431  -1.144  24.754  0.00  0.00    +0.214 C 
ATOM     30  H   UNL     1      -1.770  -0.177  25.564  0.00  0.00    +0.149 HD
BRANCH   5  21
ATOM     21  C   UNL     1      -1.059  -1.516  24.091  0.00  0.00    +0.141 C 
BRANCH  21  23
ATOM      6  N   UNL     1       1.133   1.565  24.041  0.00  0.00    -0.263 NA
ATOM     23  C   UNL     1       0.055  -0.577  23.729  0.00  0.00    -0.012 A 
ATOM     24  C   UNL     1       1.015  -0.931  22.788  0.00  0.00    +0.008 A 
ATOM     25  C   UNL     1       0.158   0.671  24.322  0.00  0.00    +0.115 A 
ATOM     27  C   UNL     1       2.034  -0.039  22.472  0.00  0.00    +0.020 A 
ATOM     28  C   UNL     1       2.048   1.185  23.121  0.00  0.00    +0.111 A 
ENDBRANCH  21  23
ENDBRANCH   5  21
ENDBRANCH  15  19
ENDBRANCH  10  15
TORSDOF 9
ENDMDL
MODEL 7
REMARK VINA RESULT:      -2.4      2.055      5.185
REMARK  Name = 38028556
REMARK  13 active torsions:
REMARK  status: ('A' for Active; 'I' for Inactive)
REMARK    1  A    between atoms: O_3  and  C_22
REMARK    2  A    between atoms: O_3  and  C_26
REMARK    3  A    between atoms: N_4  and  C_14
REMARK    4  A    between atoms: N_5  and  C_21
REMARK    5  A    between atoms: C_7  and  C_11
REMARK    6  A    between atoms: C_8  and  C_14
REMARK    7  A    between atoms: C_10  and  C_15
REMARK    8  A    between atoms: C_11  and  C_16
REMARK    9  A    between atoms: C_11  and  C_17
REMARK   10  A    between atoms: C_12  and  C_18
REMARK   11  A    between atoms: C_15  and  C_19
REMARK   12  A    between atoms: C_20  and  C_22
REMARK   13  A    between atoms: C_21  and  C_23
REMARK                            x       y       z     vdW  Elec       q    Type
REMARK                         _______ _______ _______ _____ _____    ______ ____
ROOT
ATOM      7  C   UNL     1      -3.122   2.097  24.390  0.00  0.00    +0.000 C 
ATOM      8  C   UNL     1      -2.270   2.447  23.144  0.00  0.00    +0.032 C 
ATOM      9  C   UNL     1      -3.497   3.373  25.159  0.00  0.00    +0.012 C 
ATOM     10  C   UNL     1      -2.256   4.161  25.621  0.00  0.00    +0.023 C 
ATOM     12  C   UNL     1      -1.241   4.316  24.506  0.00  0.00    -0.073 C 
ATOM     13  C   UNL     1      -1.272   3.550  23.401  0.00  0.00    -0.022 C 
ATOM     18  C   UNL     1      -0.216   5.405  24.670  0.00  0.00    +0.039 C 
ENDROOT
BRANCH   7  11
ATOM     11  C   UNL     1      -4.391   1.326  24.014  0.00  0.00    -0.013 C 
ATOM     16  C   UNL     1      -4.034  -0.054  23.472  0.00  0.00    +0.007 C 
ATOM     17  C   UNL     1      -5.320   1.211  25.218  0.00  0.00    +0.007 C 
ENDBRANCH   7  11
BRANCH   8  14
ATOM     14  C   UNL     1      -1.540   1.211  22.608  0.00  0.00    +0.112 C 
BRANCH  14   4
ATOM      2  O   UNL     1       0.577  -0.546  21.715  0.00  0.00    -0.273 OA
ATOM      4  N   UNL     1      -0.193   1.172  23.085  0.00  0.00    -0.313 N 
ATOM     20  C   UNL     1       0.769   0.289  22.596  0.00  0.00    +0.239 C 
ATOM     29  H   UNL     1       0.091   1.860  23.775  0.00  0.00    +0.149 HD
BRANCH  20  22
ATOM     22  C   UNL     1       2.109   0.466  23.278  0.00  0.00    +0.255 C 
BRANCH  22   3
ATOM      3  O   UNL     1       3.162   0.356  22.344  0.00  0.00    -0.374 OA
ATOM     26  C   UNL     1       4.431   0.597  22.944  0.00  0.00    +0.194 C 
ENDBRANCH  22   3
ENDBRANCH  20  22
ENDBRANCH  14   4
ENDBRANCH   8  14
BRANCH  10  15
ATOM     15  C   UNL     1      -1.620   3.516  26.856  0.00  0.00    +0.103 C 
BRANCH  15  19
ATOM      1  O   UNL     1       0.570   2.644  26.307  0.00  0.00    -0.276 OA
ATOM      5  N   UNL     1      -1.253   1.203  26.372  0.00  0.00    -0.311 N 
ATOM     19  C   UNL     1      -0.627   2.437  26.485  0.00  0.00    +0.214 C 
ATOM     30  H   UNL     1      -2.252   1.131  26.541  0.00  0.00    +0.149 HD
BRANCH   5  21
ATOM     21  C   UNL     1      -0.549  -0.010  26.027  0.00  0.00    +0.141 C 
BRANCH  21  23
ATOM      6  N   UNL     1      -1.917  -2.957  24.093  0.00  0.00    -0.263 NA
ATOM     23  C   UNL     1      -1.483  -1.093  25.570  0.00  0.00    -0.012 A 
ATOM     24  C   UNL     1      -2.734  -1.253  26.153  0.00  0.00    +0.008 A 
ATOM     25  C   UNL     1      -1.124  -1.963  24.553  0.00  0.00    +0.115 A 
ATOM     27  C   UNL     1      -3.579  -2.264  25.707  0.00  0.00    +0.020 A 
ATOM     28  C   UNL     1      -3.127  -3.081  24.683  0.00  0.00    +0.111 A 
ENDBRANCH  21  23
ENDBRANCH   5  21
ENDBRANCH  15  19
ENDBRANCH  10  15
TORSDOF 9
ENDMDL
MODEL 8
REMARK VINA RESULT:      -2.1      2.780      5.500
REMARK  Name = 38028556
REMARK  13 active torsions:
REMARK  status: ('A' for Active; 'I' for Inactive)
REMARK    1  A    between atoms: O_3  and  C_22
REMARK    2  A    between atoms: O_3  and  C_26
REMARK    3  A    between atoms: N_4  and  C_14
REMARK    4  A    between atoms: N_5  and  C_21
REMARK    5  A    between atoms: C_7  and  C_11
REMARK    6  A    between atoms: C_8  and  C_14
REMARK    7  A    between atoms: C_10  and  C_15
REMARK    8  A    between atoms: C_11  and  C_16
REMARK    9  A    between atoms: C_11  and  C_17
REMARK   10  A    between atoms: C_12  and  C_18
REMARK   11  A    between atoms: C_15  and  C_19
REMARK   12  A    between atoms: C_20  and  C_22
REMARK   13  A    between atoms: C_21  and  C_23
REMARK                            x       y       z     vdW  Elec       q    Type
REMARK                         _______ _______ _______ _____ _____    ______ ____
ROOT
ATOM      7  C   UNL     1      -2.002   2.168  23.712  0.00  0.00    +0.000 C 
ATOM      8  C   UNL     1      -0.627   2.878  23.624  0.00  0.00    +0.032 C 
ATOM      9  C   UNL     1      -3.141   3.175  23.489  0.00  0.00    +0.012 C 
ATOM     10  C   UNL     1      -3.115   4.322  24.518  0.00  0.00    +0.023 C 
ATOM     12  C   UNL     1      -1.724   4.899  24.683  0.00  0.00    -0.073 C 
ATOM     13  C   UNL     1      -0.626   4.245  24.265  0.00  0.00    -0.022 C 
ATOM     18  C   UNL     1      -1.627   6.268  25.299  0.00  0.00    +0.039 C 
ENDROOT
BRANCH   7  11
ATOM     11  C   UNL     1      -2.116   1.023  22.702  0.00  0.00    -0.013 C 
ATOM     16  C   UNL     1      -2.381   1.572  21.303  0.00  0.00    +0.007 C 
ATOM     17  C   UNL     1      -0.852   0.171  22.718  0.00  0.00    +0.007 C 
ENDBRANCH   7  11
BRANCH   8  14
ATOM     14  C   UNL     1       0.480   2.020  24.246  0.00  0.00    +0.112 C 
BRANCH  14   4
ATOM      2  O   UNL     1      -1.019   1.266  26.601  0.00  0.00    -0.273 OA
ATOM      4  N   UNL     1       0.733   2.420  25.594  0.00  0.00    -0.313 N 
ATOM     20  C   UNL     1      -0.043   2.007  26.677  0.00  0.00    +0.239 C 
ATOM     29  H   UNL     1       1.554   2.990  25.779  0.00  0.00    +0.149 HD
BRANCH  20  22
ATOM     22  C   UNL     1       0.451   2.580  27.988  0.00  0.00    +0.255 C 
BRANCH  22   3
ATOM      3  O   UNL     1       1.854   2.736  27.967  0.00  0.00    -0.374 OA
ATOM     26  C   UNL     1       2.415   2.667  29.274  0.00  0.00    +0.194 C 
ENDBRANCH  22   3
ENDBRANCH  20  22
ENDBRANCH  14   4
ENDBRANCH   8  14
BRANCH  10  15
ATOM     15  C   UNL     1      -3.683   3.866  25.866  0.00  0.00    +0.103 C 
BRANCH  15  19
ATOM      1  O   UNL     1      -5.934   2.993  25.696  0.00  0.00    -0.276 OA
ATOM      5  N   UNL     1      -4.129   1.535  25.576  0.00  0.00    -0.311 N 
ATOM     19  C   UNL     1      -4.725   2.781  25.706  0.00  0.00    +0.214 C 
ATOM     30  H   UNL     1      -3.115   1.460  25.593  0.00  0.00    +0.149 HD
BRANCH   5  21
ATOM     21  C   UNL     1      -4.881   0.313  25.409  0.00  0.00    +0.141 C 
BRANCH  21  23
ATOM      6  N   UNL     1      -1.941  -2.064  25.356  0.00  0.00    -0.263 NA
ATOM     23  C   UNL     1      -4.002  -0.843  25.028  0.00  0.00    -0.012 A 
ATOM     24  C   UNL     1      -4.386  -1.741  24.040  0.00  0.00    +0.008 A 
ATOM     25  C   UNL     1      -2.781  -1.046  25.651  0.00  0.00    +0.115 A 
ATOM     27  C   UNL     1      -3.549  -2.800  23.707  0.00  0.00    +0.020 A 
ATOM     28  C   UNL     1      -2.348  -2.916  24.389  0.00  0.00    +0.111 A 
ENDBRANCH  21  23
ENDBRANCH   5  21
ENDBRANCH  15  19
ENDBRANCH  10  15
TORSDOF 9
ENDMDL
