MODEL 1
REMARK VINA RESULT:       2.7      0.000      0.000
REMARK  Name = 45783297
REMARK  4 active torsions:
REMARK  status: ('A' for Active; 'I' for Inactive)
REMARK    1  A    between atoms: N_3  and  C_13
REMARK    2  A    between atoms: C_9  and  C_14
REMARK    3  A    between atoms: C_13  and  C_15
REMARK    4  A    between atoms: C_16  and  C_21
REMARK                            x       y       z     vdW  Elec       q    Type
REMARK                         _______ _______ _______ _____ _____    ______ ____
ROOT
ATOM      1  O   UNL     1      -2.261  -0.747  25.922  0.00  0.00    -0.336 OA
ATOM      4  N   UNL     1      -2.106   0.582  24.125  0.00  0.00    -0.190 NA
ATOM      6  N   UNL     1      -1.072  -1.104  25.274  0.00  0.00    -0.056 NA
ATOM     14  C   UNL     1      -2.807   0.252  25.180  0.00  0.00    +0.245 A 
ATOM     16  C   UNL     1      -1.051  -0.277  24.225  0.00  0.00    +0.202 A 
ENDROOT
BRANCH  16  21
ATOM      2  O   UNL     1       6.379  -0.429  23.795  0.00  0.00    -0.377 OA
ATOM      5  N   UNL     1       3.651  -0.279  23.138  0.00  0.00    -0.311 N 
ATOM      8  N   UNL     1       2.073  -0.300  21.374  0.00  0.00    -0.240 NA
ATOM     17  C   UNL     1       4.151  -1.372  23.980  0.00  0.00    +0.134 C 
ATOM     18  C   UNL     1       4.657   0.361  22.281  0.00  0.00    +0.134 C 
ATOM     21  C   UNL     1       0.009  -0.284  23.258  0.00  0.00    +0.027 A 
ATOM     22  C   UNL     1       2.322  -0.287  22.702  0.00  0.00    +0.122 A 
ATOM     23  C   UNL     1       5.406  -0.920  24.717  0.00  0.00    +0.178 C 
ATOM     24  C   UNL     1       5.886   0.721  23.109  0.00  0.00    +0.178 C 
ATOM     25  C   UNL     1       1.335  -0.278  23.675  0.00  0.00    +0.055 A 
ATOM     27  C   UNL     1      -0.286  -0.298  21.899  0.00  0.00    +0.031 A 
ATOM     28  C   UNL     1       0.773  -0.305  21.006  0.00  0.00    +0.113 A 
ENDBRANCH  16  21
BRANCH  14   9
ATOM      3  N   UNL     1      -4.287   2.248  25.333  0.00  0.00    -0.287 NA
ATOM      9  C   UNL     1      -4.119   0.821  25.679  0.00  0.00    +0.146 C 
ATOM     10  C   UNL     1      -5.343   0.123  25.059  0.00  0.00    +0.030 C 
ATOM     11  C   UNL     1      -6.171   1.242  24.442  0.00  0.00    +0.017 C 
ATOM     12  C   UNL     1      -5.725   2.475  25.202  0.00  0.00    +0.085 C 
BRANCH   3  13
ATOM     13  C   UNL     1      -3.674   3.148  26.301  0.00  0.00    +0.121 C 
BRANCH  13  15
ATOM      7  N   UNL     1      -0.037   3.568  25.337  0.00  0.00    -0.263 NA
ATOM     15  C   UNL     1      -2.408   3.765  25.770  0.00  0.00    -0.015 A 
ATOM     19  C   UNL     1      -2.404   5.050  25.239  0.00  0.00    +0.008 A 
ATOM     20  C   UNL     1      -1.208   3.072  25.796  0.00  0.00    +0.115 A 
ATOM     26  C   UNL     1      -1.219   5.595  24.758  0.00  0.00    +0.020 A 
ATOM     29  C   UNL     1      -0.073   4.820  24.829  0.00  0.00    +0.111 A 
ENDBRANCH  13  15
ENDBRANCH   3  13
ENDBRANCH  14   9
TORSDOF 4
ENDMDL
MODEL 2
REMARK VINA RESULT:       2.8      1.553      3.509
REMARK  Name = 45783297
REMARK  4 active torsions:
REMARK  status: ('A' for Active; 'I' for Inactive)
REMARK    1  A    between atoms: N_3  and  C_13
REMARK    2  A    between atoms: C_9  and  C_14
REMARK    3  A    between atoms: C_13  and  C_15
REMARK    4  A    between atoms: C_16  and  C_21
REMARK                            x       y       z     vdW  Elec       q    Type
REMARK                         _______ _______ _______ _____ _____    ______ ____
ROOT
ATOM      1  O   UNL     1      -1.404   2.355  25.471  0.00  0.00    -0.336 OA
ATOM      4  N   UNL     1      -1.696   1.620  23.376  0.00  0.00    -0.190 NA
ATOM      6  N   UNL     1      -0.194   1.758  25.095  0.00  0.00    -0.056 NA
ATOM     14  C   UNL     1      -2.233   2.231  24.401  0.00  0.00    +0.245 A 
ATOM     16  C   UNL     1      -0.446   1.349  23.849  0.00  0.00    +0.202 A 
ENDROOT
BRANCH  16  21
ATOM      2  O   UNL     1       6.749  -0.563  23.892  0.00  0.00    -0.377 OA
ATOM      5  N   UNL     1       4.078  -0.161  23.113  0.00  0.00    -0.311 N 
ATOM      8  N   UNL     1       2.430  -0.668  21.492  0.00  0.00    -0.240 NA
ATOM     17  C   UNL     1       4.387  -0.812  24.392  0.00  0.00    +0.134 C 
ATOM     18  C   UNL     1       5.144  -0.226  22.104  0.00  0.00    +0.134 C 
ATOM     21  C   UNL     1       0.530   0.666  23.049  0.00  0.00    +0.027 A 
ATOM     22  C   UNL     1       2.754  -0.088  22.669  0.00  0.00    +0.122 A 
ATOM     23  C   UNL     1       5.751  -0.346  24.889  0.00  0.00    +0.178 C 
ATOM     24  C   UNL     1       6.468   0.209  22.725  0.00  0.00    +0.178 C 
ATOM     25  C   UNL     1       1.851   0.584  23.477  0.00  0.00    +0.055 A 
ATOM     27  C   UNL     1       0.159   0.082  21.843  0.00  0.00    +0.031 A 
ATOM     28  C   UNL     1       1.138  -0.567  21.109  0.00  0.00    +0.113 A 
ENDBRANCH  16  21
BRANCH  14   9
ATOM      3  N   UNL     1      -4.504   1.954  25.381  0.00  0.00    -0.287 NA
ATOM      9  C   UNL     1      -3.624   2.808  24.557  0.00  0.00    +0.146 C 
ATOM     10  C   UNL     1      -3.626   4.172  25.271  0.00  0.00    +0.030 C 
ATOM     11  C   UNL     1      -4.579   4.007  26.445  0.00  0.00    +0.017 C 
ATOM     12  C   UNL     1      -5.463   2.849  26.027  0.00  0.00    +0.085 C 
BRANCH   3  13
ATOM     13  C   UNL     1      -5.163   0.902  24.617  0.00  0.00    +0.121 C 
BRANCH  13  15
ATOM      7  N   UNL     1      -2.979  -1.859  26.010  0.00  0.00    -0.263 NA
ATOM     15  C   UNL     1      -4.444  -0.415  24.738  0.00  0.00    -0.015 A 
ATOM     19  C   UNL     1      -4.552  -1.384  23.749  0.00  0.00    +0.008 A 
ATOM     20  C   UNL     1      -3.652  -0.698  25.840  0.00  0.00    +0.115 A 
ATOM     26  C   UNL     1      -3.875  -2.591  23.887  0.00  0.00    +0.020 A 
ATOM     29  C   UNL     1      -3.109  -2.777  25.026  0.00  0.00    +0.111 A 
ENDBRANCH  13  15
ENDBRANCH   3  13
ENDBRANCH  14   9
TORSDOF 4
ENDMDL
MODEL 3
REMARK VINA RESULT:       3.9      2.133      7.248
REMARK  Name = 45783297
REMARK  4 active torsions:
REMARK  status: ('A' for Active; 'I' for Inactive)
REMARK    1  A    between atoms: N_3  and  C_13
REMARK    2  A    between atoms: C_9  and  C_14
REMARK    3  A    between atoms: C_13  and  C_15
REMARK    4  A    between atoms: C_16  and  C_21
REMARK                            x       y       z     vdW  Elec       q    Type
REMARK                         _______ _______ _______ _____ _____    ______ ____
ROOT
ATOM      1  O   UNL     1       1.122  -1.617  24.196  0.00  0.00    -0.336 OA
ATOM      4  N   UNL     1      -0.298  -0.139  23.294  0.00  0.00    -0.190 NA
ATOM      6  N   UNL     1      -0.154  -1.972  24.654  0.00  0.00    -0.056 NA
ATOM     14  C   UNL     1       0.946  -0.529  23.402  0.00  0.00    +0.245 A 
ATOM     16  C   UNL     1      -0.936  -1.055  24.079  0.00  0.00    +0.202 A 
ENDROOT
BRANCH  16  21
ATOM      2  O   UNL     1      -6.426   3.640  25.878  0.00  0.00    -0.377 OA
ATOM      5  N   UNL     1      -4.974   1.321  25.234  0.00  0.00    -0.311 N 
ATOM      8  N   UNL     1      -5.128  -0.963  24.634  0.00  0.00    -0.240 NA
ATOM     17  C   UNL     1      -4.866   2.520  24.395  0.00  0.00    +0.134 C 
ATOM     18  C   UNL     1      -6.199   1.230  26.040  0.00  0.00    +0.134 C 
ATOM     21  C   UNL     1      -2.358  -1.024  24.268  0.00  0.00    +0.027 A 
ATOM     22  C   UNL     1      -4.360   0.130  24.833  0.00  0.00    +0.122 A 
ATOM     23  C   UNL     1      -5.160   3.761  25.230  0.00  0.00    +0.178 C 
ATOM     24  C   UNL     1      -6.422   2.540  26.788  0.00  0.00    +0.178 C 
ATOM     25  C   UNL     1      -2.984   0.152  24.665  0.00  0.00    +0.055 A 
ATOM     27  C   UNL     1      -3.116  -2.169  24.054  0.00  0.00    +0.031 A 
ATOM     28  C   UNL     1      -4.484  -2.087  24.249  0.00  0.00    +0.113 A 
ENDBRANCH  16  21
BRANCH  14   9
ATOM      3  N   UNL     1       2.736   1.194  23.544  0.00  0.00    -0.287 NA
ATOM      9  C   UNL     1       2.195   0.056  22.775  0.00  0.00    +0.146 C 
ATOM     10  C   UNL     1       3.354  -0.955  22.707  0.00  0.00    +0.030 C 
ATOM     11  C   UNL     1       4.520  -0.274  23.408  0.00  0.00    +0.017 C 
ATOM     12  C   UNL     1       4.180   1.200  23.313  0.00  0.00    +0.085 C 
BRANCH   3  13
ATOM     13  C   UNL     1       2.120   2.467  23.196  0.00  0.00    +0.121 C 
BRANCH  13  15
ATOM      7  N   UNL     1      -0.322   2.335  26.086  0.00  0.00    -0.263 NA
ATOM     15  C   UNL     1       0.921   2.764  24.057  0.00  0.00    -0.015 A 
ATOM     19  C   UNL     1      -0.032   3.696  23.662  0.00  0.00    +0.008 A 
ATOM     20  C   UNL     1       0.731   2.116  25.268  0.00  0.00    +0.115 A 
ATOM     26  C   UNL     1      -1.131   3.948  24.477  0.00  0.00    +0.020 A 
ATOM     29  C   UNL     1      -1.228   3.248  25.668  0.00  0.00    +0.111 A 
ENDBRANCH  13  15
ENDBRANCH   3  13
ENDBRANCH  14   9
TORSDOF 4
ENDMDL
