MODEL 1
REMARK VINA RESULT:      -6.1      0.000      0.000
REMARK  Name = 56775621
REMARK  10 active torsions:
REMARK  status: ('A' for Active; 'I' for Inactive)
REMARK    1  A    between atoms: N_3  and  C_6
REMARK    2  A    between atoms: N_3  and  C_8
REMARK    3  A    between atoms: N_5  and  C_20
REMARK    4  A    between atoms: N_5  and  C_21
REMARK    5  A    between atoms: N_5  and  C_22
REMARK    6  A    between atoms: C_6  and  C_13
REMARK    7  A    between atoms: C_7  and  C_8
REMARK    8  A    between atoms: C_13  and  C_17
REMARK    9  A    between atoms: C_19  and  C_20
REMARK   10  A    between atoms: C_21  and  C_23
REMARK                            x       y       z     vdW  Elec       q    Type
REMARK                         _______ _______ _______ _____ _____    ______ ____
ROOT
ATOM      2  O   UNL     1      -0.062   3.424  23.986  0.00  0.00    -0.358 OA
ATOM      4  N   UNL     1      -1.135   4.096  24.559  0.00  0.00    -0.083 NA
ATOM     17  C   UNL     1      -1.692   3.212  25.392  0.00  0.00    +0.086 A 
ATOM     18  C   UNL     1      -1.019   1.978  25.388  0.00  0.00    +0.072 A 
ATOM     19  C   UNL     1      -0.003   2.164  24.488  0.00  0.00    +0.151 A 
ENDROOT
BRANCH  17  13
ATOM     13  C   UNL     1      -2.908   3.604  26.206  0.00  0.00    +0.085 C 
BRANCH  13   6
ATOM      1  O   UNL     1      -6.120   4.138  25.760  0.00  0.00    -0.376 OA
ATOM      6  C   UNL     1      -4.168   3.334  25.441  0.00  0.00    +0.072 C 
ATOM     11  C   UNL     1      -5.429   2.949  26.206  0.00  0.00    +0.184 C 
ATOM     12  C   UNL     1      -4.992   4.513  24.936  0.00  0.00    +0.184 C 
BRANCH   6   3
ATOM      3  N   UNL     1      -3.976   2.385  24.338  0.00  0.00    -0.306 NA
ATOM     29  H   UNL     1      -4.213   2.766  23.422  0.00  0.00    +0.123 HD
BRANCH   3   8
ATOM      8  C   UNL     1      -4.765   1.188  24.584  0.00  0.00    +0.085 C 
BRANCH   8   7
ATOM      7  C   UNL     1      -3.884  -0.060  24.554  0.00  0.00    +0.003 C 
ATOM      9  C   UNL     1      -4.565  -1.184  23.761  0.00  0.00    +0.005 C 
ATOM     10  C   UNL     1      -3.550  -0.522  25.979  0.00  0.00    +0.005 C 
ATOM     14  C   UNL     1      -3.728  -2.461  23.762  0.00  0.00    +0.000 C 
ATOM     15  C   UNL     1      -2.714  -1.799  25.975  0.00  0.00    +0.000 C 
ATOM     16  C   UNL     1      -3.389  -2.912  25.179  0.00  0.00    +0.000 C 
ENDBRANCH   8   7
ENDBRANCH   3   8
ENDBRANCH   6   3
ENDBRANCH  13   6
ENDBRANCH  17  13
BRANCH  19  20
ATOM     20  C   UNL     1       1.081   1.310  23.987  0.00  0.00    +0.161 C 
BRANCH  20   5
ATOM      5  N   UNL     1       0.604   0.207  23.136  0.00  0.00    -0.294 NA
ATOM     22  C   UNL     1       0.228  -0.936  23.961  0.00  0.00    +0.105 C 
BRANCH   5  21
ATOM     21  C   UNL     1       1.637  -0.165  22.175  0.00  0.00    +0.119 C 
BRANCH  21  23
ATOM     23  C   UNL     1       3.007  -0.175  22.799  0.00  0.00    -0.033 A 
ATOM     24  C   UNL     1       3.482  -1.329  23.421  0.00  0.00    +0.005 A 
ATOM     25  C   UNL     1       3.801   0.971  22.756  0.00  0.00    +0.005 A 
ATOM     26  C   UNL     1       4.751  -1.338  24.000  0.00  0.00    +0.000 A 
ATOM     27  C   UNL     1       5.071   0.962  23.334  0.00  0.00    +0.000 A 
ATOM     28  C   UNL     1       5.546  -0.192  23.956  0.00  0.00    +0.000 A 
ENDBRANCH  21  23
ENDBRANCH   5  21
ENDBRANCH  20   5
ENDBRANCH  19  20
TORSDOF 9
ENDMDL
MODEL 2
REMARK VINA RESULT:      -5.0      1.385      6.952
REMARK  Name = 56775621
REMARK  10 active torsions:
REMARK  status: ('A' for Active; 'I' for Inactive)
REMARK    1  A    between atoms: N_3  and  C_6
REMARK    2  A    between atoms: N_3  and  C_8
REMARK    3  A    between atoms: N_5  and  C_20
REMARK    4  A    between atoms: N_5  and  C_21
REMARK    5  A    between atoms: N_5  and  C_22
REMARK    6  A    between atoms: C_6  and  C_13
REMARK    7  A    between atoms: C_7  and  C_8
REMARK    8  A    between atoms: C_13  and  C_17
REMARK    9  A    between atoms: C_19  and  C_20
REMARK   10  A    between atoms: C_21  and  C_23
REMARK                            x       y       z     vdW  Elec       q    Type
REMARK                         _______ _______ _______ _____ _____    ______ ____
ROOT
ATOM      2  O   UNL     1      -3.129   4.162  25.636  0.00  0.00    -0.358 OA
ATOM      4  N   UNL     1      -1.769   4.234  25.360  0.00  0.00    -0.083 NA
ATOM     17  C   UNL     1      -1.574   3.376  24.354  0.00  0.00    +0.086 A 
ATOM     18  C   UNL     1      -2.763   2.740  23.957  0.00  0.00    +0.072 A 
ATOM     19  C   UNL     1      -3.711   3.269  24.794  0.00  0.00    +0.151 A 
ENDROOT
BRANCH  17  13
ATOM     13  C   UNL     1      -0.186   3.190  23.779  0.00  0.00    +0.085 C 
BRANCH  13   6
ATOM      1  O   UNL     1      -0.710   0.154  24.925  0.00  0.00    -0.376 OA
ATOM      6  C   UNL     1       0.323   1.807  24.055  0.00  0.00    +0.072 C 
ATOM     11  C   UNL     1       0.129   1.211  25.445  0.00  0.00    +0.184 C 
ATOM     12  C   UNL     1      -0.490   0.612  23.571  0.00  0.00    +0.184 C 
BRANCH   6   3
ATOM      3  N   UNL     1       1.721   1.622  23.651  0.00  0.00    -0.306 NA
ATOM     29  H   UNL     1       2.132   2.441  23.202  0.00  0.00    +0.123 HD
BRANCH   3   8
ATOM      8  C   UNL     1       1.822   0.478  22.758  0.00  0.00    +0.085 C 
BRANCH   8   7
ATOM      7  C   UNL     1       3.232  -0.111  22.784  0.00  0.00    +0.003 C 
ATOM      9  C   UNL     1       3.305  -1.296  23.757  0.00  0.00    +0.005 C 
ATOM     10  C   UNL     1       4.261   0.965  23.154  0.00  0.00    +0.005 C 
ATOM     14  C   UNL     1       4.718  -1.868  23.841  0.00  0.00    +0.000 C 
ATOM     15  C   UNL     1       5.672   0.388  23.238  0.00  0.00    +0.000 C 
ATOM     16  C   UNL     1       5.741  -0.795  24.199  0.00  0.00    +0.000 C 
ENDBRANCH   8   7
ENDBRANCH   3   8
ENDBRANCH   6   3
ENDBRANCH  13   6
ENDBRANCH  17  13
BRANCH  19  20
ATOM     20  C   UNL     1      -5.157   3.069  24.949  0.00  0.00    +0.161 C 
BRANCH  20   5
ATOM      5  N   UNL     1      -5.512   1.701  25.364  0.00  0.00    -0.294 NA
ATOM     22  C   UNL     1      -6.632   1.736  26.297  0.00  0.00    +0.105 C 
BRANCH   5  21
ATOM     21  C   UNL     1      -4.356   1.045  25.964  0.00  0.00    +0.119 C 
BRANCH  21  23
ATOM     23  C   UNL     1      -4.111  -0.315  25.367  0.00  0.00    -0.033 A 
ATOM     24  C   UNL     1      -4.514  -0.586  24.059  0.00  0.00    +0.005 A 
ATOM     25  C   UNL     1      -3.480  -1.305  26.121  0.00  0.00    +0.005 A 
ATOM     26  C   UNL     1      -4.288  -1.847  23.506  0.00  0.00    +0.000 A 
ATOM     27  C   UNL     1      -3.252  -2.565  25.567  0.00  0.00    +0.000 A 
ATOM     28  C   UNL     1      -3.656  -2.836  24.260  0.00  0.00    +0.000 A 
ENDBRANCH  21  23
ENDBRANCH   5  21
ENDBRANCH  20   5
ENDBRANCH  19  20
TORSDOF 9
ENDMDL
MODEL 3
REMARK VINA RESULT:      -4.1     15.280     17.427
REMARK  Name = 56775621
REMARK  10 active torsions:
REMARK  status: ('A' for Active; 'I' for Inactive)
REMARK    1  A    between atoms: N_3  and  C_6
REMARK    2  A    between atoms: N_3  and  C_8
REMARK    3  A    between atoms: N_5  and  C_20
REMARK    4  A    between atoms: N_5  and  C_21
REMARK    5  A    between atoms: N_5  and  C_22
REMARK    6  A    between atoms: C_6  and  C_13
REMARK    7  A    between atoms: C_7  and  C_8
REMARK    8  A    between atoms: C_13  and  C_17
REMARK    9  A    between atoms: C_19  and  C_20
REMARK   10  A    between atoms: C_21  and  C_23
REMARK                            x       y       z     vdW  Elec       q    Type
REMARK                         _______ _______ _______ _____ _____    ______ ____
ROOT
ATOM      2  O   UNL     1      -4.224  -8.431  10.746  0.00  0.00    -0.358 OA
ATOM      4  N   UNL     1      -5.557  -8.583  10.386  0.00  0.00    -0.083 NA
ATOM     17  C   UNL     1      -5.573  -9.620   9.544  0.00  0.00    +0.086 A 
ATOM     18  C   UNL     1      -4.291 -10.158   9.337  0.00  0.00    +0.072 A 
ATOM     19  C   UNL     1      -3.479  -9.374  10.115  0.00  0.00    +0.151 A 
ENDROOT
BRANCH  17  13
ATOM     13  C   UNL     1      -6.882 -10.083   8.941  0.00  0.00    +0.085 C 
BRANCH  13   6
ATOM      1  O   UNL     1     -10.006  -9.535   9.804  0.00  0.00    -0.376 OA
ATOM      6  C   UNL     1      -7.961 -10.124   9.980  0.00  0.00    +0.072 C 
ATOM     11  C   UNL     1      -8.794  -8.871  10.232  0.00  0.00    +0.184 C 
ATOM     12  C   UNL     1      -9.293 -10.781   9.635  0.00  0.00    +0.184 C 
BRANCH   6   3
ATOM      3  N   UNL     1      -7.495 -10.648  11.269  0.00  0.00    -0.306 NA
ATOM     29  H   UNL     1      -7.905 -11.548  11.519  0.00  0.00    +0.123 HD
BRANCH   3   8
ATOM      8  C   UNL     1      -7.774  -9.679  12.317  0.00  0.00    +0.085 C 
BRANCH   8   7
ATOM      7  C   UNL     1      -8.429 -10.354  13.522  0.00  0.00    +0.003 C 
ATOM      9  C   UNL     1      -9.952 -10.161  13.489  0.00  0.00    +0.005 C 
ATOM     10  C   UNL     1      -7.838  -9.816  14.832  0.00  0.00    +0.005 C 
ATOM     14  C   UNL     1     -10.624 -10.781  14.711  0.00  0.00    +0.000 C 
ATOM     15  C   UNL     1      -8.515 -10.438  16.051  0.00  0.00    +0.000 C 
ATOM     16  C   UNL     1     -10.028 -10.252  16.011  0.00  0.00    +0.000 C 
ENDBRANCH   8   7
ENDBRANCH   3   8
ENDBRANCH   6   3
ENDBRANCH  13   6
ENDBRANCH  17  13
BRANCH  19  20
ATOM     20  C   UNL     1      -2.036  -9.359  10.384  0.00  0.00    +0.161 C 
BRANCH  20   5
ATOM      5  N   UNL     1      -1.714  -9.342  11.821  0.00  0.00    -0.294 NA
ATOM     22  C   UNL     1      -0.386  -8.777  12.030  0.00  0.00    +0.105 C 
BRANCH   5  21
ATOM     21  C   UNL     1      -1.795 -10.693  12.367  0.00  0.00    +0.119 C 
BRANCH  21  23
ATOM     23  C   UNL     1      -2.459 -10.712  13.718  0.00  0.00    -0.033 A 
ATOM     24  C   UNL     1      -3.851 -10.727  13.812  0.00  0.00    +0.005 A 
ATOM     25  C   UNL     1      -1.683 -10.715  14.877  0.00  0.00    +0.005 A 
ATOM     26  C   UNL     1      -4.466 -10.744  15.063  0.00  0.00    +0.000 A 
ATOM     27  C   UNL     1      -2.298 -10.733  16.129  0.00  0.00    +0.000 A 
ATOM     28  C   UNL     1      -3.690 -10.747  16.222  0.00  0.00    +0.000 A 
ENDBRANCH  21  23
ENDBRANCH   5  21
ENDBRANCH  20   5
ENDBRANCH  19  20
TORSDOF 9
ENDMDL
MODEL 4
REMARK VINA RESULT:      -3.9      1.653      3.851
REMARK  Name = 56775621
REMARK  10 active torsions:
REMARK  status: ('A' for Active; 'I' for Inactive)
REMARK    1  A    between atoms: N_3  and  C_6
REMARK    2  A    between atoms: N_3  and  C_8
REMARK    3  A    between atoms: N_5  and  C_20
REMARK    4  A    between atoms: N_5  and  C_21
REMARK    5  A    between atoms: N_5  and  C_22
REMARK    6  A    between atoms: C_6  and  C_13
REMARK    7  A    between atoms: C_7  and  C_8
REMARK    8  A    between atoms: C_13  and  C_17
REMARK    9  A    between atoms: C_19  and  C_20
REMARK   10  A    between atoms: C_21  and  C_23
REMARK                            x       y       z     vdW  Elec       q    Type
REMARK                         _______ _______ _______ _____ _____    ______ ____
ROOT
ATOM      2  O   UNL     1      -1.654  -0.888  25.899  0.00  0.00    -0.358 OA
ATOM      4  N   UNL     1      -3.008  -0.656  26.107  0.00  0.00    -0.083 NA
ATOM     17  C   UNL     1      -3.518  -0.463  24.887  0.00  0.00    +0.086 A 
ATOM     18  C   UNL     1      -2.543  -0.561  23.880  0.00  0.00    +0.072 A 
ATOM     19  C   UNL     1      -1.389  -0.829  24.569  0.00  0.00    +0.151 A 
ENDROOT
BRANCH  17  13
ATOM     13  C   UNL     1      -4.996  -0.181  24.722  0.00  0.00    +0.085 C 
BRANCH  13   6
ATOM      1  O   UNL     1      -7.021   2.037  26.057  0.00  0.00    -0.376 OA
ATOM      6  C   UNL     1      -5.307   1.245  25.062  0.00  0.00    +0.072 C 
ATOM     11  C   UNL     1      -6.665   1.819  24.672  0.00  0.00    +0.184 C 
ATOM     12  C   UNL     1      -5.715   1.592  26.489  0.00  0.00    +0.184 C 
BRANCH   6   3
ATOM      3  N   UNL     1      -4.258   2.176  24.630  0.00  0.00    -0.306 NA
ATOM     29  H   UNL     1      -3.326   1.763  24.604  0.00  0.00    +0.123 HD
BRANCH   3   8
ATOM      8  C   UNL     1      -4.248   3.337  25.508  0.00  0.00    +0.085 C 
BRANCH   8   7
ATOM      7  C   UNL     1      -2.819   3.805  25.776  0.00  0.00    +0.003 C 
ATOM      9  C   UNL     1      -2.400   4.876  24.758  0.00  0.00    +0.005 C 
ATOM     10  C   UNL     1      -1.847   2.617  25.751  0.00  0.00    +0.005 C 
ATOM     14  C   UNL     1      -0.956   5.321  24.972  0.00  0.00    +0.000 C 
ATOM     15  C   UNL     1      -0.403   3.068  25.964  0.00  0.00    +0.000 C 
ATOM     16  C   UNL     1       0.007   4.137  24.957  0.00  0.00    +0.000 C 
ENDBRANCH   8   7
ENDBRANCH   3   8
ENDBRANCH   6   3
ENDBRANCH  13   6
ENDBRANCH  17  13
BRANCH  19  20
ATOM     20  C   UNL     1       0.006  -1.052  24.168  0.00  0.00    +0.161 C 
BRANCH  20   5
ATOM      5  N   UNL     1       0.631   0.132  23.556  0.00  0.00    -0.294 NA
ATOM     22  C   UNL     1      -0.395   1.025  23.031  0.00  0.00    +0.105 C 
BRANCH   5  21
ATOM     21  C   UNL     1       1.552  -0.278  22.500  0.00  0.00    +0.119 C 
BRANCH  21  23
ATOM     23  C   UNL     1       2.984  -0.243  22.962  0.00  0.00    -0.033 A 
ATOM     24  C   UNL     1       3.743   0.915  22.794  0.00  0.00    +0.005 A 
ATOM     25  C   UNL     1       3.553  -1.369  23.557  0.00  0.00    +0.005 A 
ATOM     26  C   UNL     1       5.071   0.947  23.221  0.00  0.00    +0.000 A 
ATOM     27  C   UNL     1       4.881  -1.336  23.985  0.00  0.00    +0.000 A 
ATOM     28  C   UNL     1       5.640  -0.179  23.817  0.00  0.00    +0.000 A 
ENDBRANCH  21  23
ENDBRANCH   5  21
ENDBRANCH  20   5
ENDBRANCH  19  20
TORSDOF 9
ENDMDL
MODEL 5
REMARK VINA RESULT:      -3.1     18.417     19.772
REMARK  Name = 56775621
REMARK  10 active torsions:
REMARK  status: ('A' for Active; 'I' for Inactive)
REMARK    1  A    between atoms: N_3  and  C_6
REMARK    2  A    between atoms: N_3  and  C_8
REMARK    3  A    between atoms: N_5  and  C_20
REMARK    4  A    between atoms: N_5  and  C_21
REMARK    5  A    between atoms: N_5  and  C_22
REMARK    6  A    between atoms: C_6  and  C_13
REMARK    7  A    between atoms: C_7  and  C_8
REMARK    8  A    between atoms: C_13  and  C_17
REMARK    9  A    between atoms: C_19  and  C_20
REMARK   10  A    between atoms: C_21  and  C_23
REMARK                            x       y       z     vdW  Elec       q    Type
REMARK                         _______ _______ _______ _____ _____    ______ ____
ROOT
ATOM      2  O   UNL     1      15.454  -6.090  27.744  0.00  0.00    -0.358 OA
ATOM      4  N   UNL     1      14.848  -6.868  28.723  0.00  0.00    -0.083 NA
ATOM     17  C   UNL     1      15.566  -7.994  28.763  0.00  0.00    +0.086 A 
ATOM     18  C   UNL     1      16.626  -7.984  27.840  0.00  0.00    +0.072 A 
ATOM     19  C   UNL     1      16.512  -6.765  27.226  0.00  0.00    +0.151 A 
ENDROOT
BRANCH  17  13
ATOM     13  C   UNL     1      15.191  -9.094  29.734  0.00  0.00    +0.085 C 
BRANCH  13   6
ATOM      1  O   UNL     1      14.218  -9.087  32.873  0.00  0.00    -0.376 OA
ATOM      6  C   UNL     1      15.397  -8.646  31.149  0.00  0.00    +0.072 C 
ATOM     11  C   UNL     1      14.231  -8.015  31.903  0.00  0.00    +0.184 C 
ATOM     12  C   UNL     1      15.383  -9.687  32.263  0.00  0.00    +0.184 C 
BRANCH   6   3
ATOM      3  N   UNL     1      16.581  -7.794  31.313  0.00  0.00    -0.306 NA
ATOM     29  H   UNL     1      17.399  -8.291  31.667  0.00  0.00    +0.123 HD
BRANCH   3   8
ATOM      8  C   UNL     1      16.264  -6.687  32.202  0.00  0.00    +0.085 C 
BRANCH   8   7
ATOM      7  C   UNL     1      16.052  -5.397  31.411  0.00  0.00    +0.003 C 
ATOM      9  C   UNL     1      17.252  -5.122  30.494  0.00  0.00    +0.005 C 
ATOM     10  C   UNL     1      15.805  -4.215  32.358  0.00  0.00    +0.005 C 
ATOM     14  C   UNL     1      17.089  -3.809  29.732  0.00  0.00    +0.000 C 
ATOM     15  C   UNL     1      15.644  -2.904  31.591  0.00  0.00    +0.000 C 
ATOM     16  C   UNL     1      16.834  -2.638  30.675  0.00  0.00    +0.000 C 
ENDBRANCH   8   7
ENDBRANCH   3   8
ENDBRANCH   6   3
ENDBRANCH  13   6
ENDBRANCH  17  13
BRANCH  19  20
ATOM     20  C   UNL     1      17.271  -6.083  26.170  0.00  0.00    +0.161 C 
BRANCH  20   5
ATOM      5  N   UNL     1      16.665  -6.223  24.836  0.00  0.00    -0.294 NA
ATOM     22  C   UNL     1      16.638  -7.627  24.442  0.00  0.00    +0.105 C 
BRANCH   5  21
ATOM     21  C   UNL     1      17.405  -5.426  23.864  0.00  0.00    +0.119 C 
BRANCH  21  23
ATOM     23  C   UNL     1      17.142  -3.953  24.031  0.00  0.00    -0.033 A 
ATOM     24  C   UNL     1      17.023  -3.405  25.308  0.00  0.00    +0.005 A 
ATOM     25  C   UNL     1      17.018  -3.135  22.908  0.00  0.00    +0.005 A 
ATOM     26  C   UNL     1      16.778  -2.041  25.462  0.00  0.00    +0.000 A 
ATOM     27  C   UNL     1      16.774  -1.770  23.062  0.00  0.00    +0.000 A 
ATOM     28  C   UNL     1      16.654  -1.223  24.339  0.00  0.00    +0.000 A 
ENDBRANCH  21  23
ENDBRANCH   5  21
ENDBRANCH  20   5
ENDBRANCH  19  20
TORSDOF 9
ENDMDL
MODEL 6
REMARK VINA RESULT:      -3.1     17.160     18.763
REMARK  Name = 56775621
REMARK  10 active torsions:
REMARK  status: ('A' for Active; 'I' for Inactive)
REMARK    1  A    between atoms: N_3  and  C_6
REMARK    2  A    between atoms: N_3  and  C_8
REMARK    3  A    between atoms: N_5  and  C_20
REMARK    4  A    between atoms: N_5  and  C_21
REMARK    5  A    between atoms: N_5  and  C_22
REMARK    6  A    between atoms: C_6  and  C_13
REMARK    7  A    between atoms: C_7  and  C_8
REMARK    8  A    between atoms: C_13  and  C_17
REMARK    9  A    between atoms: C_19  and  C_20
REMARK   10  A    between atoms: C_21  and  C_23
REMARK                            x       y       z     vdW  Elec       q    Type
REMARK                         _______ _______ _______ _____ _____    ______ ____
ROOT
ATOM      2  O   UNL     1      15.448  -6.596  26.755  0.00  0.00    -0.358 OA
ATOM      4  N   UNL     1      15.102  -7.282  27.914  0.00  0.00    -0.083 NA
ATOM     17  C   UNL     1      16.117  -7.069  28.757  0.00  0.00    +0.086 A 
ATOM     18  C   UNL     1      17.121  -6.264  28.191  0.00  0.00    +0.072 A 
ATOM     19  C   UNL     1      16.651  -5.995  26.933  0.00  0.00    +0.151 A 
ENDROOT
BRANCH  17  13
ATOM     13  C   UNL     1      16.083  -7.673  30.145  0.00  0.00    +0.085 C 
BRANCH  13   6
ATOM      1  O   UNL     1      16.000  -4.568  31.221  0.00  0.00    -0.376 OA
ATOM      6  C   UNL     1      15.614  -6.667  31.152  0.00  0.00    +0.072 C 
ATOM     11  C   UNL     1      16.633  -5.734  31.797  0.00  0.00    +0.184 C 
ATOM     12  C   UNL     1      14.948  -5.386  30.660  0.00  0.00    +0.184 C 
BRANCH   6   3
ATOM      3  N   UNL     1      14.781  -7.258  32.205  0.00  0.00    -0.306 NA
ATOM     29  H   UNL     1      14.673  -8.269  32.126  0.00  0.00    +0.123 HD
BRANCH   3   8
ATOM      8  C   UNL     1      13.469  -6.629  32.198  0.00  0.00    +0.085 C 
BRANCH   8   7
ATOM      7  C   UNL     1      12.388  -7.620  32.627  0.00  0.00    +0.003 C 
ATOM      9  C   UNL     1      12.661  -9.010  32.035  0.00  0.00    +0.005 C 
ATOM     10  C   UNL     1      10.997  -7.115  32.219  0.00  0.00    +0.005 C 
ATOM     14  C   UNL     1      11.565 -10.005  32.406  0.00  0.00    +0.000 C 
ATOM     15  C   UNL     1       9.904  -8.114  32.591  0.00  0.00    +0.000 C 
ATOM     16  C   UNL     1      10.183  -9.496  32.008  0.00  0.00    +0.000 C 
ENDBRANCH   8   7
ENDBRANCH   3   8
ENDBRANCH   6   3
ENDBRANCH  13   6
ENDBRANCH  17  13
BRANCH  19  20
ATOM     20  C   UNL     1      17.171  -5.221  25.798  0.00  0.00    +0.161 C 
BRANCH  20   5
ATOM      5  N   UNL     1      16.779  -5.774  24.491  0.00  0.00    -0.294 NA
ATOM     22  C   UNL     1      17.151  -7.182  24.410  0.00  0.00    +0.105 C 
BRANCH   5  21
ATOM     21  C   UNL     1      17.405  -5.010  23.417  0.00  0.00    +0.119 C 
BRANCH  21  23
ATOM     23  C   UNL     1      17.212  -3.528  23.597  0.00  0.00    -0.033 A 
ATOM     24  C   UNL     1      16.844  -3.018  24.843  0.00  0.00    +0.005 A 
ATOM     25  C   UNL     1      17.400  -2.664  22.519  0.00  0.00    +0.005 A 
ATOM     26  C   UNL     1      16.664  -1.645  25.010  0.00  0.00    +0.000 A 
ATOM     27  C   UNL     1      17.221  -1.290  22.686  0.00  0.00    +0.000 A 
ATOM     28  C   UNL     1      16.853  -0.781  23.931  0.00  0.00    +0.000 A 
ENDBRANCH  21  23
ENDBRANCH   5  21
ENDBRANCH  20   5
ENDBRANCH  19  20
TORSDOF 9
ENDMDL
MODEL 7
REMARK VINA RESULT:      -2.8      2.021      6.727
REMARK  Name = 56775621
REMARK  10 active torsions:
REMARK  status: ('A' for Active; 'I' for Inactive)
REMARK    1  A    between atoms: N_3  and  C_6
REMARK    2  A    between atoms: N_3  and  C_8
REMARK    3  A    between atoms: N_5  and  C_20
REMARK    4  A    between atoms: N_5  and  C_21
REMARK    5  A    between atoms: N_5  and  C_22
REMARK    6  A    between atoms: C_6  and  C_13
REMARK    7  A    between atoms: C_7  and  C_8
REMARK    8  A    between atoms: C_13  and  C_17
REMARK    9  A    between atoms: C_19  and  C_20
REMARK   10  A    between atoms: C_21  and  C_23
REMARK                            x       y       z     vdW  Elec       q    Type
REMARK                         _______ _______ _______ _____ _____    ______ ____
ROOT
ATOM      2  O   UNL     1      -0.050   3.144  25.605  0.00  0.00    -0.358 OA
ATOM      4  N   UNL     1       0.371   1.990  24.956  0.00  0.00    -0.083 NA
ATOM     17  C   UNL     1      -0.245   2.015  23.770  0.00  0.00    +0.086 A 
ATOM     18  C   UNL     1      -1.060   3.150  23.617  0.00  0.00    +0.072 A 
ATOM     19  C   UNL     1      -0.902   3.827  24.797  0.00  0.00    +0.151 A 
ENDROOT
BRANCH  17  13
ATOM     13  C   UNL     1      -0.017   0.895  22.777  0.00  0.00    +0.085 C 
BRANCH  13   6
ATOM      1  O   UNL     1       3.131   0.261  22.074  0.00  0.00    -0.376 OA
ATOM      6  C   UNL     1       1.253   0.162  23.085  0.00  0.00    +0.072 C 
ATOM     11  C   UNL     1       1.965  -0.588  21.965  0.00  0.00    +0.184 C 
ATOM     12  C   UNL     1       2.552   0.952  23.205  0.00  0.00    +0.184 C 
BRANCH   6   3
ATOM      3  N   UNL     1       1.132  -0.727  24.247  0.00  0.00    -0.306 NA
ATOM     29  H   UNL     1       2.022  -1.110  24.566  0.00  0.00    +0.123 HD
BRANCH   3   8
ATOM      8  C   UNL     1       0.221  -1.817  23.932  0.00  0.00    +0.085 C 
BRANCH   8   7
ATOM      7  C   UNL     1      -1.206  -1.473  24.359  0.00  0.00    +0.003 C 
ATOM      9  C   UNL     1      -1.225  -0.924  25.792  0.00  0.00    +0.005 C 
ATOM     10  C   UNL     1      -2.119  -2.700  24.232  0.00  0.00    +0.005 C 
ATOM     14  C   UNL     1      -2.646  -0.624  26.261  0.00  0.00    +0.000 C 
ATOM     15  C   UNL     1      -3.539  -2.395  24.703  0.00  0.00    +0.000 C 
ATOM     16  C   UNL     1      -3.554  -1.842  26.124  0.00  0.00    +0.000 C 
ENDBRANCH   8   7
ENDBRANCH   3   8
ENDBRANCH   6   3
ENDBRANCH  13   6
ENDBRANCH  17  13
BRANCH  19  20
ATOM     20  C   UNL     1      -1.446   5.081  25.331  0.00  0.00    +0.161 C 
BRANCH  20   5
ATOM      5  N   UNL     1      -2.839   4.960  25.792  0.00  0.00    -0.294 NA
ATOM     22  C   UNL     1      -2.942   3.917  26.807  0.00  0.00    +0.105 C 
BRANCH   5  21
ATOM     21  C   UNL     1      -3.717   4.673  24.663  0.00  0.00    +0.119 C 
BRANCH  21  23
ATOM     23  C   UNL     1      -4.469   3.382  24.851  0.00  0.00    -0.033 A 
ATOM     24  C   UNL     1      -5.583   3.339  25.690  0.00  0.00    +0.005 A 
ATOM     25  C   UNL     1      -4.052   2.229  24.186  0.00  0.00    +0.005 A 
ATOM     26  C   UNL     1      -6.279   2.143  25.865  0.00  0.00    +0.000 A 
ATOM     27  C   UNL     1      -4.749   1.033  24.360  0.00  0.00    +0.000 A 
ATOM     28  C   UNL     1      -5.862   0.989  25.200  0.00  0.00    +0.000 A 
ENDBRANCH  21  23
ENDBRANCH   5  21
ENDBRANCH  20   5
ENDBRANCH  19  20
TORSDOF 9
ENDMDL
MODEL 8
REMARK VINA RESULT:      -2.3      1.910      7.169
REMARK  Name = 56775621
REMARK  10 active torsions:
REMARK  status: ('A' for Active; 'I' for Inactive)
REMARK    1  A    between atoms: N_3  and  C_6
REMARK    2  A    between atoms: N_3  and  C_8
REMARK    3  A    between atoms: N_5  and  C_20
REMARK    4  A    between atoms: N_5  and  C_21
REMARK    5  A    between atoms: N_5  and  C_22
REMARK    6  A    between atoms: C_6  and  C_13
REMARK    7  A    between atoms: C_7  and  C_8
REMARK    8  A    between atoms: C_13  and  C_17
REMARK    9  A    between atoms: C_19  and  C_20
REMARK   10  A    between atoms: C_21  and  C_23
REMARK                            x       y       z     vdW  Elec       q    Type
REMARK                         _______ _______ _______ _____ _____    ______ ____
ROOT
ATOM      2  O   UNL     1       0.157   3.227  24.532  0.00  0.00    -0.358 OA
ATOM      4  N   UNL     1       0.461   1.887  24.740  0.00  0.00    -0.083 NA
ATOM     17  C   UNL     1      -0.488   1.442  25.570  0.00  0.00    +0.086 A 
ATOM     18  C   UNL     1      -1.409   2.446  25.915  0.00  0.00    +0.072 A 
ATOM     19  C   UNL     1      -0.958   3.548  25.236  0.00  0.00    +0.151 A 
ENDROOT
BRANCH  17  13
ATOM     13  C   UNL     1      -0.478  -0.003  26.022  0.00  0.00    +0.085 C 
BRANCH  13   6
ATOM      1  O   UNL     1      -2.346  -1.719  23.931  0.00  0.00    -0.376 OA
ATOM      6  C   UNL     1      -0.587  -0.928  24.848  0.00  0.00    +0.072 C 
ATOM     11  C   UNL     1      -1.450  -2.179  24.969  0.00  0.00    +0.184 C 
ATOM     12  C   UNL     1      -1.518  -0.556  23.699  0.00  0.00    +0.184 C 
BRANCH   6   3
ATOM      3  N   UNL     1       0.718  -1.306  24.294  0.00  0.00    -0.306 NA
ATOM     29  H   UNL     1       1.490  -1.202  24.953  0.00  0.00    +0.123 HD
BRANCH   3   8
ATOM      8  C   UNL     1       0.988  -0.516  23.103  0.00  0.00    +0.085 C 
BRANCH   8   7
ATOM      7  C   UNL     1       2.489  -0.442  22.827  0.00  0.00    +0.003 C 
ATOM      9  C   UNL     1       3.267  -1.301  23.834  0.00  0.00    +0.005 C 
ATOM     10  C   UNL     1       2.974   1.014  22.860  0.00  0.00    +0.005 C 
ATOM     14  C   UNL     1       4.774  -1.200  23.613  0.00  0.00    +0.000 C 
ATOM     15  C   UNL     1       4.482   1.109  22.639  0.00  0.00    +0.000 C 
ATOM     16  C   UNL     1       5.252   0.248  23.636  0.00  0.00    +0.000 C 
ENDBRANCH   8   7
ENDBRANCH   3   8
ENDBRANCH   6   3
ENDBRANCH  13   6
ENDBRANCH  17  13
BRANCH  19  20
ATOM     20  C   UNL     1      -1.424   4.936  25.129  0.00  0.00    +0.161 C 
BRANCH  20   5
ATOM      5  N   UNL     1      -2.873   5.081  25.344  0.00  0.00    -0.294 NA
ATOM     22  C   UNL     1      -3.257   4.457  26.605  0.00  0.00    +0.105 C 
BRANCH   5  21
ATOM     21  C   UNL     1      -3.606   4.491  24.229  0.00  0.00    +0.119 C 
BRANCH  21  23
ATOM     23  C   UNL     1      -4.385   3.274  24.651  0.00  0.00    -0.033 A 
ATOM     24  C   UNL     1      -5.474   3.406  25.513  0.00  0.00    +0.005 A 
ATOM     25  C   UNL     1      -4.018   2.013  24.181  0.00  0.00    +0.005 A 
ATOM     26  C   UNL     1      -6.195   2.279  25.905  0.00  0.00    +0.000 A 
ATOM     27  C   UNL     1      -4.740   0.885  24.572  0.00  0.00    +0.000 A 
ATOM     28  C   UNL     1      -5.828   1.018  25.434  0.00  0.00    +0.000 A 
ENDBRANCH  21  23
ENDBRANCH   5  21
ENDBRANCH  20   5
ENDBRANCH  19  20
TORSDOF 9
ENDMDL
