MODEL 1
REMARK VINA RESULT:      -5.6      0.000      0.000
REMARK  Name = 45784211
REMARK  5 active torsions:
REMARK  status: ('A' for Active; 'I' for Inactive)
REMARK    1  A    between atoms: N_1  and  C_10
REMARK    2  A    between atoms: C_5  and  C_9
REMARK    3  A    between atoms: C_10  and  C_11
REMARK    4  A    between atoms: C_18  and  C_23
REMARK    5  A    between atoms: C_22  and  C_24
REMARK                            x       y       z     vdW  Elec       q    Type
REMARK                         _______ _______ _______ _____ _____    ______ ____
ROOT
ATOM      1  N   UNL     1      -2.620 -10.781  14.824  0.00  0.00    -0.297 NA
ATOM      5  C   UNL     1      -3.482 -10.781  12.643  0.00  0.00    +0.070 C 
ATOM      6  C   UNL     1      -2.073 -10.161  12.640  0.00  0.00    +0.028 C 
ATOM      7  C   UNL     1      -3.903 -10.781  14.119  0.00  0.00    +0.096 C 
ATOM      8  C   UNL     1      -1.790  -9.820  14.097  0.00  0.00    +0.085 C 
ENDROOT
BRANCH   5   9
ATOM      2  N   UNL     1      -5.826 -10.169  11.986  0.00  0.00    -0.342 N 
ATOM      3  N   UNL     1      -4.215  -9.369  10.680  0.00  0.00    -0.232 NA
ATOM      9  C   UNL     1      -4.482 -10.091  11.745  0.00  0.00    +0.113 A 
ATOM     12  C   UNL     1      -6.468  -9.449  11.012  0.00  0.00    +0.066 A 
ATOM     13  C   UNL     1      -5.442  -8.960  10.209  0.00  0.00    +0.089 A 
ATOM     14  C   UNL     1      -7.818  -9.192  10.771  0.00  0.00    +0.031 A 
ATOM     17  C   UNL     1      -5.763  -8.165   9.095  0.00  0.00    +0.030 A 
ATOM     18  C   UNL     1      -8.120  -8.400   9.659  0.00  0.00    -0.048 A 
ATOM     19  C   UNL     1      -7.112  -7.894   8.835  0.00  0.00    +0.005 A 
ATOM     23  C   UNL     1      -9.547  -8.088   9.349  0.00  0.00    +0.044 C 
ATOM     25  H   UNL     1      -6.269 -10.667  12.746  0.00  0.00    +0.167 HD
ENDBRANCH   5   9
BRANCH   1  10
ATOM     10  C   UNL     1      -2.760 -10.439  16.232  0.00  0.00    +0.119 C 
BRANCH  10  11
ATOM     11  C   UNL     1      -4.204 -10.354  16.648  0.00  0.00    -0.033 A 
ATOM     15  C   UNL     1      -5.160  -9.867  15.756  0.00  0.00    +0.006 A 
ATOM     16  C   UNL     1      -4.587 -10.762  17.926  0.00  0.00    +0.006 A 
ATOM     20  C   UNL     1      -6.498  -9.788  16.142  0.00  0.00    +0.019 A 
ATOM     21  C   UNL     1      -5.925 -10.682  18.312  0.00  0.00    +0.019 A 
ATOM     22  C   UNL     1      -6.881 -10.196  17.420  0.00  0.00    +0.052 A 
BRANCH  22  24
ATOM      4  N   UNL     1      -9.365 -10.050  18.137  0.00  0.00    -0.191 NA
ATOM     24  C   UNL     1      -8.251 -10.116  17.815  0.00  0.00    +0.099 C 
ENDBRANCH  22  24
ENDBRANCH  10  11
ENDBRANCH   1  10
TORSDOF 4
ENDMDL
MODEL 2
REMARK VINA RESULT:      -5.5      2.132      7.539
REMARK  Name = 45784211
REMARK  5 active torsions:
REMARK  status: ('A' for Active; 'I' for Inactive)
REMARK    1  A    between atoms: N_1  and  C_10
REMARK    2  A    between atoms: C_5  and  C_9
REMARK    3  A    between atoms: C_10  and  C_11
REMARK    4  A    between atoms: C_18  and  C_23
REMARK    5  A    between atoms: C_22  and  C_24
REMARK                            x       y       z     vdW  Elec       q    Type
REMARK                         _______ _______ _______ _____ _____    ______ ____
ROOT
ATOM      1  N   UNL     1      -8.546  -9.956   9.237  0.00  0.00    -0.297 NA
ATOM      5  C   UNL     1      -9.211 -10.321  11.456  0.00  0.00    +0.070 C 
ATOM      6  C   UNL     1      -9.830  -9.009  10.942  0.00  0.00    +0.028 C 
ATOM      7  C   UNL     1      -8.100 -10.647  10.448  0.00  0.00    +0.096 C 
ATOM      8  C   UNL     1      -9.024  -8.653   9.700  0.00  0.00    +0.085 C 
ENDROOT
BRANCH   5   9
ATOM      2  N   UNL     1      -7.393 -10.445  13.183  0.00  0.00    -0.342 N 
ATOM      3  N   UNL     1      -9.443 -10.075  13.961  0.00  0.00    -0.232 NA
ATOM      9  C   UNL     1      -8.716 -10.273  12.884  0.00  0.00    +0.113 A 
ATOM     12  C   UNL     1      -7.257 -10.349  14.543  0.00  0.00    +0.066 A 
ATOM     13  C   UNL     1      -8.548 -10.119  15.007  0.00  0.00    +0.089 A 
ATOM     14  C   UNL     1      -6.147 -10.443  15.384  0.00  0.00    +0.031 A 
ATOM     17  C   UNL     1      -8.765  -9.970  16.387  0.00  0.00    +0.030 A 
ATOM     18  C   UNL     1      -6.380 -10.293  16.755  0.00  0.00    -0.048 A 
ATOM     19  C   UNL     1      -7.666 -10.060  17.249  0.00  0.00    +0.005 A 
ATOM     23  C   UNL     1      -5.232 -10.382  17.707  0.00  0.00    +0.044 C 
ATOM     25  H   UNL     1      -6.647 -10.612  12.521  0.00  0.00    +0.167 HD
ENDBRANCH   5   9
BRANCH   1  10
ATOM     10  C   UNL     1      -7.489  -9.838   8.244  0.00  0.00    +0.119 C 
BRANCH  10  11
ATOM     11  C   UNL     1      -6.130  -9.714   8.882  0.00  0.00    -0.033 A 
ATOM     15  C   UNL     1      -5.771  -8.536   9.537  0.00  0.00    +0.006 A 
ATOM     16  C   UNL     1      -5.231 -10.779   8.819  0.00  0.00    +0.006 A 
ATOM     20  C   UNL     1      -4.513  -8.421  10.128  0.00  0.00    +0.019 A 
ATOM     21  C   UNL     1      -3.972 -10.664   9.410  0.00  0.00    +0.019 A 
ATOM     22  C   UNL     1      -3.613  -9.486  10.065  0.00  0.00    +0.052 A 
BRANCH  22  24
ATOM      4  N   UNL     1      -1.278  -9.273  11.163  0.00  0.00    -0.191 NA
ATOM     24  C   UNL     1      -2.325  -9.369  10.671  0.00  0.00    +0.099 C 
ENDBRANCH  22  24
ENDBRANCH  10  11
ENDBRANCH   1  10
TORSDOF 4
ENDMDL
MODEL 3
REMARK VINA RESULT:      -5.3      2.242      5.936
REMARK  Name = 45784211
REMARK  5 active torsions:
REMARK  status: ('A' for Active; 'I' for Inactive)
REMARK    1  A    between atoms: N_1  and  C_10
REMARK    2  A    between atoms: C_5  and  C_9
REMARK    3  A    between atoms: C_10  and  C_11
REMARK    4  A    between atoms: C_18  and  C_23
REMARK    5  A    between atoms: C_22  and  C_24
REMARK                            x       y       z     vdW  Elec       q    Type
REMARK                         _______ _______ _______ _____ _____    ______ ____
ROOT
ATOM      1  N   UNL     1      -5.198  -9.855   9.627  0.00  0.00    -0.297 NA
ATOM      5  C   UNL     1      -7.310  -9.550  10.600  0.00  0.00    +0.070 C 
ATOM      6  C   UNL     1      -6.687  -8.179  10.281  0.00  0.00    +0.028 C 
ATOM      7  C   UNL     1      -6.138 -10.537  10.518  0.00  0.00    +0.096 C 
ATOM      8  C   UNL     1      -5.206  -8.460  10.068  0.00  0.00    +0.085 C 
ENDROOT
BRANCH   5   9
ATOM      2  N   UNL     1      -7.382  -9.602  13.108  0.00  0.00    -0.342 N 
ATOM      3  N   UNL     1      -9.351  -9.707  12.082  0.00  0.00    -0.232 NA
ATOM      9  C   UNL     1      -8.050  -9.621  11.916  0.00  0.00    +0.113 A 
ATOM     12  C   UNL     1      -8.313  -9.680  14.111  0.00  0.00    +0.066 A 
ATOM     13  C   UNL     1      -9.534  -9.744  13.446  0.00  0.00    +0.089 A 
ATOM     14  C   UNL     1      -8.196  -9.699  15.502  0.00  0.00    +0.031 A 
ATOM     17  C   UNL     1     -10.719  -9.834  14.196  0.00  0.00    +0.030 A 
ATOM     18  C   UNL     1      -9.385  -9.788  16.233  0.00  0.00    -0.048 A 
ATOM     19  C   UNL     1     -10.625  -9.854  15.593  0.00  0.00    +0.005 A 
ATOM     23  C   UNL     1      -9.326  -9.812  17.725  0.00  0.00    +0.044 C 
ATOM     25  H   UNL     1      -6.380  -9.541  13.232  0.00  0.00    +0.167 HD
ENDBRANCH   5   9
BRANCH   1  10
ATOM     10  C   UNL     1      -3.868 -10.442   9.668  0.00  0.00    +0.119 C 
BRANCH  10  11
ATOM     11  C   UNL     1      -3.285 -10.416  11.056  0.00  0.00    -0.033 A 
ATOM     15  C   UNL     1      -1.960 -10.029  11.251  0.00  0.00    +0.006 A 
ATOM     16  C   UNL     1      -4.073 -10.780  12.149  0.00  0.00    +0.006 A 
ATOM     20  C   UNL     1      -1.421 -10.005  12.537  0.00  0.00    +0.019 A 
ATOM     21  C   UNL     1      -3.534 -10.756  13.435  0.00  0.00    +0.019 A 
ATOM     22  C   UNL     1      -2.208 -10.369  13.630  0.00  0.00    +0.052 A 
BRANCH  22  24
ATOM      4  N   UNL     1      -1.209 -10.324  16.018  0.00  0.00    -0.191 NA
ATOM     24  C   UNL     1      -1.656 -10.344  14.947  0.00  0.00    +0.099 C 
ENDBRANCH  22  24
ENDBRANCH  10  11
ENDBRANCH   1  10
TORSDOF 4
ENDMDL
MODEL 4
REMARK VINA RESULT:      -4.3      1.373      2.338
REMARK  Name = 45784211
REMARK  5 active torsions:
REMARK  status: ('A' for Active; 'I' for Inactive)
REMARK    1  A    between atoms: N_1  and  C_10
REMARK    2  A    between atoms: C_5  and  C_9
REMARK    3  A    between atoms: C_10  and  C_11
REMARK    4  A    between atoms: C_18  and  C_23
REMARK    5  A    between atoms: C_22  and  C_24
REMARK                            x       y       z     vdW  Elec       q    Type
REMARK                         _______ _______ _______ _____ _____    ______ ____
ROOT
ATOM      1  N   UNL     1      -1.388 -10.389  12.322  0.00  0.00    -0.297 NA
ATOM      5  C   UNL     1      -2.824  -9.947  10.522  0.00  0.00    +0.070 C 
ATOM      6  C   UNL     1      -1.884  -8.748  10.738  0.00  0.00    +0.028 C 
ATOM      7  C   UNL     1      -2.707 -10.769  11.813  0.00  0.00    +0.096 C 
ATOM      8  C   UNL     1      -1.315  -8.940  12.137  0.00  0.00    +0.085 C 
ENDROOT
BRANCH   5   9
ATOM      2  N   UNL     1      -5.287  -9.929  11.007  0.00  0.00    -0.342 N 
ATOM      3  N   UNL     1      -4.665  -8.930   9.121  0.00  0.00    -0.232 NA
ATOM      9  C   UNL     1      -4.252  -9.583  10.184  0.00  0.00    +0.113 A 
ATOM     12  C   UNL     1      -6.446  -9.465  10.439  0.00  0.00    +0.066 A 
ATOM     13  C   UNL     1      -6.032  -8.846   9.263  0.00  0.00    +0.089 A 
ATOM     14  C   UNL     1      -7.781  -9.534  10.839  0.00  0.00    +0.031 A 
ATOM     17  C   UNL     1      -6.993  -8.255   8.425  0.00  0.00    +0.030 A 
ATOM     18  C   UNL     1      -8.723  -8.940   9.994  0.00  0.00    -0.048 A 
ATOM     19  C   UNL     1      -8.338  -8.311   8.808  0.00  0.00    +0.005 A 
ATOM     23  C   UNL     1     -10.169  -8.979  10.369  0.00  0.00    +0.044 C 
ATOM     25  H   UNL     1      -5.215 -10.434  11.880  0.00  0.00    +0.167 HD
ENDBRANCH   5   9
BRANCH   1  10
ATOM     10  C   UNL     1      -1.194 -10.781  13.711  0.00  0.00    +0.119 C 
BRANCH  10  11
ATOM     11  C   UNL     1      -2.440 -10.572  14.531  0.00  0.00    -0.033 A 
ATOM     15  C   UNL     1      -2.345 -10.397  15.912  0.00  0.00    +0.006 A 
ATOM     16  C   UNL     1      -3.689 -10.553  13.910  0.00  0.00    +0.006 A 
ATOM     20  C   UNL     1      -3.498 -10.203  16.672  0.00  0.00    +0.019 A 
ATOM     21  C   UNL     1      -4.842 -10.360  14.670  0.00  0.00    +0.019 A 
ATOM     22  C   UNL     1      -4.747 -10.185  16.051  0.00  0.00    +0.052 A 
BRANCH  22  24
ATOM      4  N   UNL     1      -6.889  -9.824  17.460  0.00  0.00    -0.191 NA
ATOM     24  C   UNL     1      -5.929  -9.986  16.829  0.00  0.00    +0.099 C 
ENDBRANCH  22  24
ENDBRANCH  10  11
ENDBRANCH   1  10
TORSDOF 4
ENDMDL
MODEL 5
REMARK VINA RESULT:      -2.2      3.296      6.540
REMARK  Name = 45784211
REMARK  5 active torsions:
REMARK  status: ('A' for Active; 'I' for Inactive)
REMARK    1  A    between atoms: N_1  and  C_10
REMARK    2  A    between atoms: C_5  and  C_9
REMARK    3  A    between atoms: C_10  and  C_11
REMARK    4  A    between atoms: C_18  and  C_23
REMARK    5  A    between atoms: C_22  and  C_24
REMARK                            x       y       z     vdW  Elec       q    Type
REMARK                         _______ _______ _______ _____ _____    ______ ____
ROOT
ATOM      1  N   UNL     1      -2.907 -10.154  10.740  0.00  0.00    -0.297 NA
ATOM      5  C   UNL     1      -5.212  -9.921  10.373  0.00  0.00    +0.070 C 
ATOM      6  C   UNL     1      -4.511  -8.574  10.121  0.00  0.00    +0.028 C 
ATOM      7  C   UNL     1      -4.179 -10.757  11.141  0.00  0.00    +0.096 C 
ATOM      8  C   UNL     1      -3.145  -8.711  10.780  0.00  0.00    +0.085 C 
ENDROOT
BRANCH   5   9
ATOM      2  N   UNL     1      -6.610  -9.774  12.452  0.00  0.00    -0.342 N 
ATOM      3  N   UNL     1      -7.730  -9.775  10.531  0.00  0.00    -0.232 NA
ATOM      9  C   UNL     1      -6.540  -9.823  11.087  0.00  0.00    +0.113 A 
ATOM     12  C   UNL     1      -7.934  -9.688  12.799  0.00  0.00    +0.066 A 
ATOM     13  C   UNL     1      -8.612  -9.690  11.584  0.00  0.00    +0.089 A 
ATOM     14  C   UNL     1      -8.577  -9.612  14.036  0.00  0.00    +0.031 A 
ATOM     17  C   UNL     1     -10.015  -9.612  11.583  0.00  0.00    +0.030 A 
ATOM     18  C   UNL     1      -9.973  -9.534  14.016  0.00  0.00    -0.048 A 
ATOM     19  C   UNL     1     -10.681  -9.534  12.812  0.00  0.00    +0.005 A 
ATOM     23  C   UNL     1     -10.719  -9.449  15.307  0.00  0.00    +0.044 C 
ATOM     25  H   UNL     1      -5.829  -9.797  13.093  0.00  0.00    +0.167 HD
ENDBRANCH   5   9
BRANCH   1  10
ATOM     10  C   UNL     1      -1.805 -10.558  11.600  0.00  0.00    +0.119 C 
BRANCH  10  11
ATOM     11  C   UNL     1      -0.774  -9.469  11.739  0.00  0.00    -0.033 A 
ATOM     15  C   UNL     1      -0.782  -8.638  12.858  0.00  0.00    +0.006 A 
ATOM     16  C   UNL     1       0.191  -9.293  10.747  0.00  0.00    +0.006 A 
ATOM     20  C   UNL     1       0.174  -7.630  12.986  0.00  0.00    +0.019 A 
ATOM     21  C   UNL     1       1.147  -8.285  10.875  0.00  0.00    +0.019 A 
ATOM     22  C   UNL     1       1.138  -7.454  11.994  0.00  0.00    +0.052 A 
BRANCH  22  24
ATOM      4  N   UNL     1       2.913  -5.583  12.233  0.00  0.00    -0.191 NA
ATOM     24  C   UNL     1       2.118  -6.422  12.126  0.00  0.00    +0.099 C 
ENDBRANCH  22  24
ENDBRANCH  10  11
ENDBRANCH   1  10
TORSDOF 4
ENDMDL
MODEL 6
REMARK VINA RESULT:      -1.8     14.518     16.927
REMARK  Name = 45784211
REMARK  5 active torsions:
REMARK  status: ('A' for Active; 'I' for Inactive)
REMARK    1  A    between atoms: N_1  and  C_10
REMARK    2  A    between atoms: C_5  and  C_9
REMARK    3  A    between atoms: C_10  and  C_11
REMARK    4  A    between atoms: C_18  and  C_23
REMARK    5  A    between atoms: C_22  and  C_24
REMARK                            x       y       z     vdW  Elec       q    Type
REMARK                         _______ _______ _______ _____ _____    ______ ____
ROOT
ATOM      1  N   UNL     1      -3.193  -0.889  24.645  0.00  0.00    -0.297 NA
ATOM      5  C   UNL     1      -1.063  -1.469  23.853  0.00  0.00    +0.070 C 
ATOM      6  C   UNL     1      -1.289  -2.104  25.237  0.00  0.00    +0.028 C 
ATOM      7  C   UNL     1      -2.157  -0.399  23.734  0.00  0.00    +0.096 C 
ATOM      8  C   UNL     1      -2.468  -1.345  25.831  0.00  0.00    +0.085 C 
ENDROOT
BRANCH   5   9
ATOM      2  N   UNL     1       1.439  -1.642  23.952  0.00  0.00    -0.342 N 
ATOM      3  N   UNL     1       0.632   0.252  23.113  0.00  0.00    -0.232 NA
ATOM      9  C   UNL     1       0.326  -0.919  23.624  0.00  0.00    +0.113 A 
ATOM     12  C   UNL     1       2.537  -0.887  23.630  0.00  0.00    +0.066 A 
ATOM     13  C   UNL     1       2.008   0.290  23.109  0.00  0.00    +0.089 A 
ATOM     14  C   UNL     1       3.907  -1.125  23.748  0.00  0.00    +0.031 A 
ATOM     17  C   UNL     1       2.883   1.300  22.674  0.00  0.00    +0.030 A 
ATOM     18  C   UNL     1       4.763  -0.109  23.310  0.00  0.00    -0.048 A 
ATOM     19  C   UNL     1       4.261   1.083  22.782  0.00  0.00    +0.005 A 
ATOM     23  C   UNL     1       6.241  -0.304  23.409  0.00  0.00    +0.044 C 
ATOM     25  H   UNL     1       1.454  -2.567  24.359  0.00  0.00    +0.167 HD
ENDBRANCH   5   9
BRANCH   1  10
ATOM     10  C   UNL     1      -4.184   0.129  24.958  0.00  0.00    +0.119 C 
BRANCH  10  11
ATOM     11  C   UNL     1      -3.584   1.510  24.974  0.00  0.00    -0.033 A 
ATOM     15  C   UNL     1      -4.296   2.587  24.446  0.00  0.00    +0.006 A 
ATOM     16  C   UNL     1      -2.315   1.712  25.518  0.00  0.00    +0.006 A 
ATOM     20  C   UNL     1      -3.739   3.866  24.461  0.00  0.00    +0.019 A 
ATOM     21  C   UNL     1      -1.759   2.991  25.533  0.00  0.00    +0.019 A 
ATOM     22  C   UNL     1      -2.470   4.068  25.005  0.00  0.00    +0.052 A 
BRANCH  22  24
ATOM      4  N   UNL     1      -1.438   6.443  25.035  0.00  0.00    -0.191 NA
ATOM     24  C   UNL     1      -1.901   5.378  25.021  0.00  0.00    +0.099 C 
ENDBRANCH  22  24
ENDBRANCH  10  11
ENDBRANCH   1  10
TORSDOF 4
ENDMDL
