MODEL 1
REMARK VINA RESULT:      19.5      0.000      0.000
REMARK  Name = 44716705
REMARK  9 active torsions:
REMARK  status: ('A' for Active; 'I' for Inactive)
REMARK    1  A    between atoms: O_2  and  C_11
REMARK    2  A    between atoms: O_5  and  C_35
REMARK    3  A    between atoms: O_5  and  C_36
REMARK    4  A    between atoms: C_9  and  C_17
REMARK    5  A    between atoms: C_12  and  C_18
REMARK    6  A    between atoms: C_14  and  C_21
REMARK    7  A    between atoms: C_18  and  C_22
REMARK    8  A    between atoms: C_18  and  C_23
REMARK    9  A    between atoms: C_29  and  C_30
REMARK                            x       y       z     vdW  Elec       q    Type
REMARK                         _______ _______ _______ _____ _____    ______ ____
ROOT
ATOM      1  S   UNL     1       1.338  -2.027  24.154  0.00  0.00    -0.057 S 
ATOM      4  O   UNL     1       3.966   1.693  23.076  0.00  0.00    -0.270 OA
ATOM      6  N   UNL     1       1.263   0.517  23.698  0.00  0.00    -0.229 NA
ATOM      8  N   UNL     1       3.421  -0.549  23.564  0.00  0.00    -0.261 N 
ATOM      9  C   UNL     1      -2.505  -0.886  25.077  0.00  0.00    -0.022 C 
ATOM     10  C   UNL     1      -2.564   0.323  24.062  0.00  0.00    +0.033 C 
ATOM     11  C   UNL     1      -3.767   1.259  24.366  0.00  0.00    +0.123 C 
ATOM     12  C   UNL     1      -5.106   0.497  24.470  0.00  0.00    +0.029 C 
ATOM     13  C   UNL     1      -3.873  -1.609  25.105  0.00  0.00    +0.008 C 
ATOM     14  C   UNL     1      -1.179   1.086  23.970  0.00  0.00    +0.042 C 
ATOM     15  C   UNL     1      -5.032  -0.682  25.442  0.00  0.00    +0.007 C 
ATOM     16  C   UNL     1      -1.440  -1.922  24.601  0.00  0.00    +0.051 C 
ATOM     17  C   UNL     1      -2.149  -0.424  26.514  0.00  0.00    +0.012 C 
ATOM     19  C   UNL     1      -0.033   0.105  23.954  0.00  0.00    +0.057 A 
ATOM     20  C   UNL     1      -0.167  -1.237  24.249  0.00  0.00    +0.015 A 
ATOM     21  C   UNL     1      -1.083   2.023  22.757  0.00  0.00    +0.014 C 
ATOM     24  C   UNL     1       2.067  -0.522  23.764  0.00  0.00    +0.165 A 
ATOM     29  C   UNL     1       4.292   0.522  23.238  0.00  0.00    +0.250 C 
ATOM     38  H   UNL     1       3.823  -1.470  23.712  0.00  0.00    +0.157 HD
ENDROOT
BRANCH  29  30
ATOM     30  C   UNL     1       5.733   0.180  23.111  0.00  0.00    +0.037 A 
ATOM     31  C   UNL     1       6.129  -0.870  22.284  0.00  0.00    +0.016 A 
ATOM     32  C   UNL     1       6.688   0.907  23.821  0.00  0.00    +0.016 A 
ATOM     33  C   UNL     1       7.481  -1.193  22.165  0.00  0.00    +0.046 A 
ATOM     34  C   UNL     1       8.039   0.585  23.704  0.00  0.00    +0.046 A 
ATOM     35  C   UNL     1       8.436  -0.466  22.875  0.00  0.00    +0.120 A 
BRANCH  35   5
ATOM      5  O   UNL     1       9.756  -0.779  22.761  0.00  0.00    -0.495 OA
ATOM     36  C   UNL     1      10.638   0.267  22.357  0.00  0.00    +0.277 C 
ENDBRANCH  35   5
ENDBRANCH  29  30
BRANCH  11   2
ATOM      2  O   UNL     1      -3.905   2.212  23.313  0.00  0.00    -0.391 OA
ATOM     37  H   UNL     1      -4.403   2.973  23.658  0.00  0.00    +0.210 HD
ENDBRANCH  11   2
BRANCH  12  18
ATOM     18  C   UNL     1      -6.259   1.423  24.875  0.00  0.00    +0.078 C 
ATOM     22  C   UNL     1      -6.617   2.377  23.750  0.00  0.00    +0.017 C 
BRANCH  18  23
ATOM      3  O   UNL     1      -6.364   1.959  27.193  0.00  0.00    -0.275 OA
ATOM      7  N   UNL     1      -4.882   3.168  25.896  0.00  0.00    -0.301 N 
ATOM     23  C   UNL     1      -5.847   2.199  26.101  0.00  0.00    +0.219 C 
ATOM     25  C   UNL     1      -4.229   3.497  24.633  0.00  0.00    +0.108 C 
ATOM     26  C   UNL     1      -4.382   4.005  26.977  0.00  0.00    +0.108 C 
ATOM     27  C   UNL     1      -3.482   4.792  24.919  0.00  0.00    +0.020 C 
ATOM     28  C   UNL     1      -3.142   4.672  26.399  0.00  0.00    +0.020 C 
ENDBRANCH  18  23
ENDBRANCH  12  18
TORSDOF 5
ENDMDL
MODEL 2
REMARK VINA RESULT:      21.5      1.506      1.859
REMARK  Name = 44716705
REMARK  9 active torsions:
REMARK  status: ('A' for Active; 'I' for Inactive)
REMARK    1  A    between atoms: O_2  and  C_11
REMARK    2  A    between atoms: O_5  and  C_35
REMARK    3  A    between atoms: O_5  and  C_36
REMARK    4  A    between atoms: C_9  and  C_17
REMARK    5  A    between atoms: C_12  and  C_18
REMARK    6  A    between atoms: C_14  and  C_21
REMARK    7  A    between atoms: C_18  and  C_22
REMARK    8  A    between atoms: C_18  and  C_23
REMARK    9  A    between atoms: C_29  and  C_30
REMARK                            x       y       z     vdW  Elec       q    Type
REMARK                         _______ _______ _______ _____ _____    ______ ____
ROOT
ATOM      1  S   UNL     1       2.124  -0.668  21.943  0.00  0.00    -0.057 S 
ATOM      4  O   UNL     1       5.264   1.049  24.959  0.00  0.00    -0.270 OA
ATOM      6  N   UNL     1       2.389   0.633  24.162  0.00  0.00    -0.229 NA
ATOM      8  N   UNL     1       4.417  -0.051  23.053  0.00  0.00    -0.261 N 
ATOM      9  C   UNL     1      -1.688  -0.336  23.452  0.00  0.00    -0.022 C 
ATOM     10  C   UNL     1      -1.440   1.019  24.225  0.00  0.00    +0.033 C 
ATOM     11  C   UNL     1      -2.578   1.306  25.244  0.00  0.00    +0.123 C 
ATOM     12  C   UNL     1      -3.983   1.226  24.608  0.00  0.00    +0.029 C 
ATOM     13  C   UNL     1      -3.104  -0.328  22.828  0.00  0.00    +0.008 C 
ATOM     14  C   UNL     1       0.008   1.079  24.864  0.00  0.00    +0.042 C 
ATOM     15  C   UNL     1      -4.206  -0.082  23.848  0.00  0.00    +0.007 C 
ATOM     16  C   UNL     1      -0.664  -0.472  22.283  0.00  0.00    +0.051 C 
ATOM     17  C   UNL     1      -1.555  -1.570  24.382  0.00  0.00    +0.012 C 
ATOM     19  C   UNL     1       1.034   0.523  23.906  0.00  0.00    +0.057 A 
ATOM     20  C   UNL     1       0.714  -0.176  22.760  0.00  0.00    +0.015 A 
ATOM     21  C   UNL     1       0.416   2.491  25.307  0.00  0.00    +0.014 C 
ATOM     24  C   UNL     1       3.059   0.053  23.190  0.00  0.00    +0.165 A 
ATOM     29  C   UNL     1       5.436   0.434  23.912  0.00  0.00    +0.250 C 
ATOM     38  H   UNL     1       4.691  -0.582  22.233  0.00  0.00    +0.157 HD
ENDROOT
BRANCH  29  30
ATOM     30  C   UNL     1       6.834   0.138  23.504  0.00  0.00    +0.037 A 
ATOM     31  C   UNL     1       7.107  -0.968  22.701  0.00  0.00    +0.016 A 
ATOM     32  C   UNL     1       7.874   0.966  23.926  0.00  0.00    +0.016 A 
ATOM     33  C   UNL     1       8.419  -1.248  22.319  0.00  0.00    +0.046 A 
ATOM     34  C   UNL     1       9.186   0.688  23.546  0.00  0.00    +0.046 A 
ATOM     35  C   UNL     1       9.459  -0.420  22.741  0.00  0.00    +0.120 A 
BRANCH  35   5
ATOM      5  O   UNL     1      10.740  -0.691  22.370  0.00  0.00    -0.495 OA
ATOM     36  C   UNL     1      11.046  -2.044  22.038  0.00  0.00    +0.277 C 
ENDBRANCH  35   5
ENDBRANCH  29  30
BRANCH  11   2
ATOM      2  O   UNL     1      -2.426   2.626  25.766  0.00  0.00    -0.391 OA
ATOM     37  H   UNL     1      -3.302   2.942  26.045  0.00  0.00    +0.210 HD
ENDBRANCH  11   2
BRANCH  12  18
ATOM     18  C   UNL     1      -5.092   1.407  25.653  0.00  0.00    +0.078 C 
ATOM     22  C   UNL     1      -6.385   0.756  25.197  0.00  0.00    +0.017 C 
BRANCH  18  23
ATOM      3  O   UNL     1      -5.864   3.284  26.900  0.00  0.00    -0.275 OA
ATOM      7  N   UNL     1      -4.844   3.712  24.871  0.00  0.00    -0.301 N 
ATOM     23  C   UNL     1      -5.306   2.883  25.877  0.00  0.00    +0.219 C 
ATOM     25  C   UNL     1      -4.174   3.303  23.641  0.00  0.00    +0.108 C 
ATOM     26  C   UNL     1      -4.980   5.160  24.935  0.00  0.00    +0.108 C 
ATOM     27  C   UNL     1      -4.141   4.563  22.789  0.00  0.00    +0.020 C 
ATOM     28  C   UNL     1      -4.074   5.676  23.827  0.00  0.00    +0.020 C 
ENDBRANCH  18  23
ENDBRANCH  12  18
TORSDOF 5
ENDMDL
