MODEL 1
REMARK VINA RESULT:       2.0      0.000      0.000
REMARK  Name = 11865858
REMARK  12 active torsions:
REMARK  status: ('A' for Active; 'I' for Inactive)
REMARK    1  A    between atoms: N_6  and  C_11
REMARK    2  A    between atoms: N_7  and  C_17
REMARK    3  A    between atoms: N_8  and  C_23
REMARK    4  A    between atoms: C_12  and  C_15
REMARK    5  A    between atoms: C_16  and  C_20
REMARK    6  A    between atoms: C_17  and  C_19
REMARK    7  A    between atoms: C_17  and  C_22
REMARK    8  A    between atoms: C_19  and  C_21
REMARK    9  A    between atoms: C_23  and  C_28
REMARK   10  A    between atoms: C_23  and  C_29
REMARK   11  A    between atoms: C_24  and  C_30
REMARK   12  A    between atoms: C_24  and  C_31
REMARK                            x       y       z     vdW  Elec       q    Type
REMARK                         _______ _______ _______ _____ _____    ______ ____
ROOT
ATOM      1  O   UNL     1       0.065  -0.569  22.753  0.00  0.00    -0.274 OA
ATOM      7  N   UNL     1      -1.457  -0.414  24.508  0.00  0.00    -0.302 N 
ATOM     15  C   UNL     1      -0.279  -0.120  23.844  0.00  0.00    +0.236 C 
ATOM     37  H   UNL     1      -1.587  -0.062  25.451  0.00  0.00    +0.150 HD
ENDROOT
BRANCH  15  12
ATOM      2  O   UNL     1       3.356   1.736  22.350  0.00  0.00    -0.271 OA
ATOM      5  N   UNL     1       1.436   1.529  23.624  0.00  0.00    -0.285 N 
ATOM     11  C   UNL     1      -0.300   1.979  25.184  0.00  0.00    +0.105 C 
ATOM     12  C   UNL     1       0.569   0.862  24.599  0.00  0.00    +0.182 C 
ATOM     13  C   UNL     1      -0.369   3.004  24.050  0.00  0.00    +0.043 C 
ATOM     14  C   UNL     1       0.999   2.901  23.391  0.00  0.00    +0.111 C 
ATOM     16  C   UNL     1       2.612   1.063  23.063  0.00  0.00    +0.240 C 
BRANCH  11   6
ATOM      3  O   UNL     1      -0.151   0.793  27.809  0.00  0.00    -0.253 OA
ATOM      6  N   UNL     1       0.306   2.551  26.362  0.00  0.00    -0.294 N 
ATOM      8  N   UNL     1       0.979   2.677  28.558  0.00  0.00    -0.297 N 
ATOM     18  C   UNL     1       0.333   1.905  27.596  0.00  0.00    +0.300 C 
ATOM     36  H   UNL     1       0.676   3.495  26.308  0.00  0.00    +0.151 HD
ATOM     38  H   UNL     1       1.280   3.613  28.303  0.00  0.00    +0.150 HD
BRANCH   8  23
ATOM     23  C   UNL     1       1.147   2.245  29.925  0.00  0.00    +0.068 C 
ATOM     28  C   UNL     1       2.609   1.918  30.207  0.00  0.00    +0.027 C 
ATOM     29  C   UNL     1       0.625   3.307  30.884  0.00  0.00    +0.027 C 
ENDBRANCH   8  23
ENDBRANCH  11   6
BRANCH  16  20
ATOM     20  C   UNL     1       2.985  -0.337  23.344  0.00  0.00    +0.066 C 
ATOM     24  C   UNL     1       4.228  -0.757  23.633  0.00  0.00    -0.071 C 
ATOM     30  C   UNL     1       4.645  -2.172  23.924  0.00  0.00    +0.039 C 
ATOM     31  C   UNL     1       5.359   0.237  23.686  0.00  0.00    +0.039 C 
ENDBRANCH  16  20
ENDBRANCH  15  12
BRANCH   7  17
ATOM     17  C   UNL     1      -2.457  -1.315  23.983  0.00  0.00    +0.163 C 
BRANCH  17  22
ATOM      4  O   UNL     1      -3.337  -1.385  26.247  0.00  0.00    -0.274 OA
ATOM     10  N   UNL     1      -3.607  -3.231  24.907  0.00  0.00    -0.328 N 
ATOM     22  C   UNL     1      -3.154  -1.956  25.175  0.00  0.00    +0.231 C 
ATOM     40  H   UNL     1      -3.468  -3.681  24.009  0.00  0.00    +0.145 HD
ATOM     41  H   UNL     1      -4.102  -3.765  25.613  0.00  0.00    +0.145 HD
ENDBRANCH  17  22
BRANCH  17  19
ATOM     19  C   UNL     1      -3.475  -0.597  23.089  0.00  0.00    +0.069 C 
BRANCH  19  21
ATOM      9  N   UNL     1      -3.161   3.064  23.169  0.00  0.00    -0.360 N 
ATOM     21  C   UNL     1      -3.535   0.883  23.337  0.00  0.00    -0.020 A 
ATOM     25  C   UNL     1      -4.322   1.547  24.320  0.00  0.00    +0.003 A 
ATOM     26  C   UNL     1      -2.833   1.843  22.644  0.00  0.00    +0.087 A 
ATOM     27  C   UNL     1      -4.067   2.914  24.193  0.00  0.00    +0.047 A 
ATOM     32  C   UNL     1      -5.227   1.113  25.310  0.00  0.00    +0.010 A 
ATOM     33  C   UNL     1      -4.676   3.874  25.010  0.00  0.00    +0.026 A 
ATOM     34  C   UNL     1      -5.843   2.063  26.133  0.00  0.00    +0.001 A 
ATOM     35  C   UNL     1      -5.571   3.421  25.984  0.00  0.00    +0.002 A 
ATOM     39  H   UNL     1      -2.791   3.950  22.851  0.00  0.00    +0.165 HD
ENDBRANCH  19  21
ENDBRANCH  17  19
ENDBRANCH   7  17
TORSDOF 8
ENDMDL
MODEL 2
REMARK VINA RESULT:       2.6      2.324      5.678
REMARK  Name = 11865858
REMARK  12 active torsions:
REMARK  status: ('A' for Active; 'I' for Inactive)
REMARK    1  A    between atoms: N_6  and  C_11
REMARK    2  A    between atoms: N_7  and  C_17
REMARK    3  A    between atoms: N_8  and  C_23
REMARK    4  A    between atoms: C_12  and  C_15
REMARK    5  A    between atoms: C_16  and  C_20
REMARK    6  A    between atoms: C_17  and  C_19
REMARK    7  A    between atoms: C_17  and  C_22
REMARK    8  A    between atoms: C_19  and  C_21
REMARK    9  A    between atoms: C_23  and  C_28
REMARK   10  A    between atoms: C_23  and  C_29
REMARK   11  A    between atoms: C_24  and  C_30
REMARK   12  A    between atoms: C_24  and  C_31
REMARK                            x       y       z     vdW  Elec       q    Type
REMARK                         _______ _______ _______ _____ _____    ______ ____
ROOT
ATOM      1  O   UNL     1      -2.253   1.416  22.376  0.00  0.00    -0.274 OA
ATOM      7  N   UNL     1      -2.551   2.056  24.594  0.00  0.00    -0.302 N 
ATOM     15  C   UNL     1      -1.847   1.518  23.531  0.00  0.00    +0.236 C 
ATOM     37  H   UNL     1      -2.151   1.995  25.526  0.00  0.00    +0.150 HD
ENDROOT
BRANCH  15  12
ATOM      2  O   UNL     1       0.126   2.491  27.280  0.00  0.00    -0.271 OA
ATOM      5  N   UNL     1      -0.351   1.264  25.377  0.00  0.00    -0.285 N 
ATOM     11  C   UNL     1      -0.311  -0.434  23.715  0.00  0.00    +0.105 C 
ATOM     12  C   UNL     1      -0.469   1.074  23.929  0.00  0.00    +0.182 C 
ATOM     13  C   UNL     1      -0.816  -1.033  25.029  0.00  0.00    +0.043 C 
ATOM     14  C   UNL     1      -0.384  -0.016  26.075  0.00  0.00    +0.111 C 
ATOM     16  C   UNL     1      -0.090   2.434  26.070  0.00  0.00    +0.240 C 
BRANCH  11   6
ATOM      3  O   UNL     1       1.887   1.373  23.236  0.00  0.00    -0.253 OA
ATOM      6  N   UNL     1       1.069  -0.787  23.482  0.00  0.00    -0.294 N 
ATOM      8  N   UNL     1       3.306  -0.455  23.063  0.00  0.00    -0.297 N 
ATOM     18  C   UNL     1       2.070   0.155  23.258  0.00  0.00    +0.300 C 
ATOM     36  H   UNL     1       1.313  -1.771  23.414  0.00  0.00    +0.151 HD
ATOM     38  H   UNL     1       3.343  -1.470  23.027  0.00  0.00    +0.150 HD
BRANCH   8  23
ATOM     23  C   UNL     1       4.517   0.290  22.811  0.00  0.00    +0.068 C 
ATOM     28  C   UNL     1       4.196   1.751  22.523  0.00  0.00    +0.027 C 
ATOM     29  C   UNL     1       5.475   0.156  23.987  0.00  0.00    +0.027 C 
ENDBRANCH   8  23
ENDBRANCH  11   6
BRANCH  16  20
ATOM     20  C   UNL     1      -0.076   3.689  25.292  0.00  0.00    +0.066 C 
ATOM     24  C   UNL     1      -1.022   4.641  25.355  0.00  0.00    -0.071 C 
ATOM     30  C   UNL     1      -1.042   5.929  24.581  0.00  0.00    +0.039 C 
ATOM     31  C   UNL     1      -2.204   4.460  26.272  0.00  0.00    +0.039 C 
ENDBRANCH  16  20
ENDBRANCH  15  12
BRANCH   7  17
ATOM     17  C   UNL     1      -3.893   2.577  24.471  0.00  0.00    +0.163 C 
BRANCH  17  22
ATOM      4  O   UNL     1      -4.027   2.807  22.056  0.00  0.00    -0.274 OA
ATOM     10  N   UNL     1      -3.983   4.711  23.340  0.00  0.00    -0.328 N 
ATOM     22  C   UNL     1      -3.958   3.344  23.159  0.00  0.00    +0.231 C 
ATOM     40  H   UNL     1      -3.948   5.140  24.258  0.00  0.00    +0.145 HD
ATOM     41  H   UNL     1      -4.040   5.340  22.546  0.00  0.00    +0.145 HD
ENDBRANCH  17  22
BRANCH  17  19
ATOM     19  C   UNL     1      -4.952   1.468  24.496  0.00  0.00    +0.069 C 
BRANCH  19  21
ATOM      9  N   UNL     1      -3.760  -1.229  26.692  0.00  0.00    -0.360 N 
ATOM     21  C   UNL     1      -4.469   0.207  25.155  0.00  0.00    -0.020 A 
ATOM     25  C   UNL     1      -4.245  -1.048  24.521  0.00  0.00    +0.003 A 
ATOM     26  C   UNL     1      -4.162   0.063  26.489  0.00  0.00    +0.087 A 
ATOM     27  C   UNL     1      -3.801  -1.931  25.509  0.00  0.00    +0.047 A 
ATOM     32  C   UNL     1      -4.378  -1.518  23.199  0.00  0.00    +0.010 A 
ATOM     33  C   UNL     1      -3.482  -3.267  25.238  0.00  0.00    +0.026 A 
ATOM     34  C   UNL     1      -4.062  -2.852  22.915  0.00  0.00    +0.001 A 
ATOM     35  C   UNL     1      -3.622  -3.711  23.919  0.00  0.00    +0.002 A 
ATOM     39  H   UNL     1      -3.475  -1.615  27.581  0.00  0.00    +0.165 HD
ENDBRANCH  19  21
ENDBRANCH  17  19
ENDBRANCH   7  17
TORSDOF 8
ENDMDL
MODEL 3
REMARK VINA RESULT:       3.0      2.239      5.003
REMARK  Name = 11865858
REMARK  12 active torsions:
REMARK  status: ('A' for Active; 'I' for Inactive)
REMARK    1  A    between atoms: N_6  and  C_11
REMARK    2  A    between atoms: N_7  and  C_17
REMARK    3  A    between atoms: N_8  and  C_23
REMARK    4  A    between atoms: C_12  and  C_15
REMARK    5  A    between atoms: C_16  and  C_20
REMARK    6  A    between atoms: C_17  and  C_19
REMARK    7  A    between atoms: C_17  and  C_22
REMARK    8  A    between atoms: C_19  and  C_21
REMARK    9  A    between atoms: C_23  and  C_28
REMARK   10  A    between atoms: C_23  and  C_29
REMARK   11  A    between atoms: C_24  and  C_30
REMARK   12  A    between atoms: C_24  and  C_31
REMARK                            x       y       z     vdW  Elec       q    Type
REMARK                         _______ _______ _______ _____ _____    ______ ____
ROOT
ATOM      1  O   UNL     1      -2.093   1.151  22.862  0.00  0.00    -0.274 OA
ATOM      7  N   UNL     1      -2.669  -0.392  24.507  0.00  0.00    -0.302 N 
ATOM     15  C   UNL     1      -1.793   0.403  23.789  0.00  0.00    +0.236 C 
ATOM     37  H   UNL     1      -2.291  -1.046  25.186  0.00  0.00    +0.150 HD
ENDROOT
BRANCH  15  12
ATOM      2  O   UNL     1      -0.246   2.209  27.428  0.00  0.00    -0.271 OA
ATOM      5  N   UNL     1      -0.381   0.679  25.697  0.00  0.00    -0.285 N 
ATOM     11  C   UNL     1       0.064  -1.181  24.286  0.00  0.00    +0.105 C 
ATOM     12  C   UNL     1      -0.381   0.285  24.286  0.00  0.00    +0.182 C 
ATOM     13  C   UNL     1      -0.394  -1.690  25.654  0.00  0.00    +0.043 C 
ATOM     14  C   UNL     1      -0.217  -0.484  26.563  0.00  0.00    +0.111 C 
ATOM     16  C   UNL     1      -0.380   1.956  26.231  0.00  0.00    +0.240 C 
BRANCH  11   6
ATOM      3  O   UNL     1       1.793   0.520  22.724  0.00  0.00    -0.253 OA
ATOM      6  N   UNL     1       1.496  -1.292  24.146  0.00  0.00    -0.294 N 
ATOM      8  N   UNL     1       3.607  -0.755  23.408  0.00  0.00    -0.297 N 
ATOM     18  C   UNL     1       2.256  -0.423  23.367  0.00  0.00    +0.300 C 
ATOM     36  H   UNL     1       1.967  -2.078  24.584  0.00  0.00    +0.151 HD
ATOM     38  H   UNL     1       3.882  -1.595  23.909  0.00  0.00    +0.150 HD
BRANCH   8  23
ATOM     23  C   UNL     1       4.618  -0.017  22.689  0.00  0.00    +0.068 C 
ATOM     28  C   UNL     1       4.216   1.446  22.552  0.00  0.00    +0.027 C 
ATOM     29  C   UNL     1       5.968  -0.156  23.382  0.00  0.00    +0.027 C 
ENDBRANCH   8  23
ENDBRANCH  11   6
BRANCH  16  20
ATOM     20  C   UNL     1      -0.554   3.080  25.290  0.00  0.00    +0.066 C 
ATOM     24  C   UNL     1      -1.434   4.083  25.447  0.00  0.00    -0.071 C 
ATOM     30  C   UNL     1      -1.640   5.242  24.513  0.00  0.00    +0.039 C 
ATOM     31  C   UNL     1      -2.331   4.107  26.658  0.00  0.00    +0.039 C 
ENDBRANCH  16  20
ENDBRANCH  15  12
BRANCH   7  17
ATOM     17  C   UNL     1      -4.088  -0.443  24.242  0.00  0.00    +0.163 C 
BRANCH  17  22
ATOM      4  O   UNL     1      -5.452  -2.153  23.183  0.00  0.00    -0.274 OA
ATOM     10  N   UNL     1      -3.357  -2.725  23.930  0.00  0.00    -0.328 N 
ATOM     22  C   UNL     1      -4.401  -1.845  23.740  0.00  0.00    +0.231 C 
ATOM     40  H   UNL     1      -2.486  -2.452  24.372  0.00  0.00    +0.145 HD
ATOM     41  H   UNL     1      -3.429  -3.691  23.627  0.00  0.00    +0.145 HD
ENDBRANCH  17  22
BRANCH  17  19
ATOM     19  C   UNL     1      -4.924  -0.120  25.487  0.00  0.00    +0.069 C 
BRANCH  19  21
ATOM      9  N   UNL     1      -6.057   3.259  26.385  0.00  0.00    -0.360 N 
ATOM     21  C   UNL     1      -5.250   1.340  25.615  0.00  0.00    -0.020 A 
ATOM     25  C   UNL     1      -4.864   2.377  24.719  0.00  0.00    +0.003 A 
ATOM     26  C   UNL     1      -5.982   1.914  26.629  0.00  0.00    +0.087 A 
ATOM     27  C   UNL     1      -5.384   3.570  25.227  0.00  0.00    +0.047 A 
ATOM     32  C   UNL     1      -4.121   2.414  23.522  0.00  0.00    +0.010 A 
ATOM     33  C   UNL     1      -5.196   4.805  24.593  0.00  0.00    +0.026 A 
ATOM     34  C   UNL     1      -3.925   3.642  22.879  0.00  0.00    +0.001 A 
ATOM     35  C   UNL     1      -4.455   4.817  23.408  0.00  0.00    +0.002 A 
ATOM     39  H   UNL     1      -6.537   3.928  26.971  0.00  0.00    +0.165 HD
ENDBRANCH  19  21
ENDBRANCH  17  19
ENDBRANCH   7  17
TORSDOF 8
ENDMDL
MODEL 4
REMARK VINA RESULT:       3.0      0.857      1.369
REMARK  Name = 11865858
REMARK  12 active torsions:
REMARK  status: ('A' for Active; 'I' for Inactive)
REMARK    1  A    between atoms: N_6  and  C_11
REMARK    2  A    between atoms: N_7  and  C_17
REMARK    3  A    between atoms: N_8  and  C_23
REMARK    4  A    between atoms: C_12  and  C_15
REMARK    5  A    between atoms: C_16  and  C_20
REMARK    6  A    between atoms: C_17  and  C_19
REMARK    7  A    between atoms: C_17  and  C_22
REMARK    8  A    between atoms: C_19  and  C_21
REMARK    9  A    between atoms: C_23  and  C_28
REMARK   10  A    between atoms: C_23  and  C_29
REMARK   11  A    between atoms: C_24  and  C_30
REMARK   12  A    between atoms: C_24  and  C_31
REMARK                            x       y       z     vdW  Elec       q    Type
REMARK                         _______ _______ _______ _____ _____    ______ ____
ROOT
ATOM      1  O   UNL     1       0.106  -0.473  22.645  0.00  0.00    -0.274 OA
ATOM      7  N   UNL     1      -1.407  -0.373  24.412  0.00  0.00    -0.302 N 
ATOM     15  C   UNL     1      -0.232  -0.058  23.751  0.00  0.00    +0.236 C 
ATOM     37  H   UNL     1      -1.532  -0.050  25.367  0.00  0.00    +0.150 HD
ENDROOT
BRANCH  15  12
ATOM      2  O   UNL     1       3.449   1.767  22.333  0.00  0.00    -0.271 OA
ATOM      5  N   UNL     1       1.509   1.569  23.579  0.00  0.00    -0.285 N 
ATOM     11  C   UNL     1      -0.242   2.022  25.121  0.00  0.00    +0.105 C 
ATOM     12  C   UNL     1       0.619   0.901  24.532  0.00  0.00    +0.182 C 
ATOM     13  C   UNL     1      -0.280   3.064  24.001  0.00  0.00    +0.043 C 
ATOM     14  C   UNL     1       1.095   2.950  23.359  0.00  0.00    +0.111 C 
ATOM     16  C   UNL     1       2.686   1.094  23.026  0.00  0.00    +0.240 C 
BRANCH  11   6
ATOM      3  O   UNL     1      -0.190   0.820  27.743  0.00  0.00    -0.253 OA
ATOM      6  N   UNL     1       0.357   2.568  26.315  0.00  0.00    -0.294 N 
ATOM      8  N   UNL     1       0.984   2.662  28.526  0.00  0.00    -0.297 N 
ATOM     18  C   UNL     1       0.335   1.916  27.546  0.00  0.00    +0.300 C 
ATOM     36  H   UNL     1       0.758   3.500  26.274  0.00  0.00    +0.151 HD
ATOM     38  H   UNL     1       1.321   3.589  28.283  0.00  0.00    +0.150 HD
BRANCH   8  23
ATOM     23  C   UNL     1       1.108   2.219  29.894  0.00  0.00    +0.068 C 
ATOM     28  C   UNL     1       2.560   1.897  30.223  0.00  0.00    +0.027 C 
ATOM     29  C   UNL     1       0.546   3.269  30.844  0.00  0.00    +0.027 C 
ENDBRANCH   8  23
ENDBRANCH  11   6
BRANCH  16  20
ATOM     20  C   UNL     1       3.035  -0.315  23.292  0.00  0.00    +0.066 C 
ATOM     24  C   UNL     1       4.259  -0.752  23.630  0.00  0.00    -0.071 C 
ATOM     30  C   UNL     1       4.652  -2.176  23.908  0.00  0.00    +0.039 C 
ATOM     31  C   UNL     1       5.394   0.232  23.759  0.00  0.00    +0.039 C 
ENDBRANCH  16  20
ENDBRANCH  15  12
BRANCH   7  17
ATOM     17  C   UNL     1      -2.409  -1.258  23.865  0.00  0.00    +0.163 C 
BRANCH  17  22
ATOM      4  O   UNL     1      -2.712  -1.891  26.191  0.00  0.00    -0.274 OA
ATOM     10  N   UNL     1      -3.608  -3.238  24.560  0.00  0.00    -0.328 N 
ATOM     22  C   UNL     1      -2.894  -2.144  25.003  0.00  0.00    +0.231 C 
ATOM     40  H   UNL     1      -3.770  -3.423  23.576  0.00  0.00    +0.145 HD
ATOM     41  H   UNL     1      -4.001  -3.903  25.218  0.00  0.00    +0.145 HD
ENDBRANCH  17  22
BRANCH  17  19
ATOM     19  C   UNL     1      -3.583  -0.493  23.243  0.00  0.00    +0.069 C 
BRANCH  19  21
ATOM      9  N   UNL     1      -5.521   1.168  25.888  0.00  0.00    -0.360 N 
ATOM     21  C   UNL     1      -4.267   0.427  24.213  0.00  0.00    -0.020 A 
ATOM     25  C   UNL     1      -4.172   1.847  24.246  0.00  0.00    +0.003 A 
ATOM     26  C   UNL     1      -5.103   0.039  25.235  0.00  0.00    +0.087 A 
ATOM     27  C   UNL     1      -4.969   2.286  25.306  0.00  0.00    +0.047 A 
ATOM     32  C   UNL     1      -3.485   2.803  23.472  0.00  0.00    +0.010 A 
ATOM     33  C   UNL     1      -5.112   3.640  25.632  0.00  0.00    +0.026 A 
ATOM     34  C   UNL     1      -3.619   4.160  23.787  0.00  0.00    +0.001 A 
ATOM     35  C   UNL     1      -4.419   4.570  24.851  0.00  0.00    +0.002 A 
ATOM     39  H   UNL     1      -6.145   1.180  26.683  0.00  0.00    +0.165 HD
ENDBRANCH  19  21
ENDBRANCH  17  19
ENDBRANCH   7  17
TORSDOF 8
ENDMDL
MODEL 5
REMARK VINA RESULT:       4.1      2.333      5.578
REMARK  Name = 11865858
REMARK  12 active torsions:
REMARK  status: ('A' for Active; 'I' for Inactive)
REMARK    1  A    between atoms: N_6  and  C_11
REMARK    2  A    between atoms: N_7  and  C_17
REMARK    3  A    between atoms: N_8  and  C_23
REMARK    4  A    between atoms: C_12  and  C_15
REMARK    5  A    between atoms: C_16  and  C_20
REMARK    6  A    between atoms: C_17  and  C_19
REMARK    7  A    between atoms: C_17  and  C_22
REMARK    8  A    between atoms: C_19  and  C_21
REMARK    9  A    between atoms: C_23  and  C_28
REMARK   10  A    between atoms: C_23  and  C_29
REMARK   11  A    between atoms: C_24  and  C_30
REMARK   12  A    between atoms: C_24  and  C_31
REMARK                            x       y       z     vdW  Elec       q    Type
REMARK                         _______ _______ _______ _____ _____    ______ ____
ROOT
ATOM      1  O   UNL     1      -2.556   1.751  22.528  0.00  0.00    -0.274 OA
ATOM      7  N   UNL     1      -2.823   1.528  24.830  0.00  0.00    -0.302 N 
ATOM     15  C   UNL     1      -2.112   1.491  23.643  0.00  0.00    +0.236 C 
ATOM     37  H   UNL     1      -2.375   1.194  25.678  0.00  0.00    +0.150 HD
ENDROOT
BRANCH  15  12
ATOM      2  O   UNL     1       0.277   2.523  27.125  0.00  0.00    -0.271 OA
ATOM      5  N   UNL     1      -0.380   1.294  25.278  0.00  0.00    -0.285 N 
ATOM     11  C   UNL     1      -0.471  -0.383  23.596  0.00  0.00    +0.105 C 
ATOM     12  C   UNL     1      -0.674   1.113  23.854  0.00  0.00    +0.182 C 
ATOM     13  C   UNL     1      -0.774  -1.020  24.954  0.00  0.00    +0.043 C 
ATOM     14  C   UNL     1      -0.261   0.006  25.953  0.00  0.00    +0.111 C 
ATOM     16  C   UNL     1      -0.090   2.468  25.952  0.00  0.00    +0.240 C 
BRANCH  11   6
ATOM      3  O   UNL     1       1.742   1.466  23.528  0.00  0.00    -0.253 OA
ATOM      6  N   UNL     1       0.883  -0.663  23.183  0.00  0.00    -0.294 N 
ATOM      8  N   UNL     1       3.099  -0.242  22.739  0.00  0.00    -0.297 N 
ATOM     18  C   UNL     1       1.893   0.295  23.182  0.00  0.00    +0.300 C 
ATOM     36  H   UNL     1       1.096  -1.586  22.815  0.00  0.00    +0.151 HD
ATOM     38  H   UNL     1       3.107  -1.202  22.405  0.00  0.00    +0.150 HD
BRANCH   8  23
ATOM     23  C   UNL     1       4.313   0.534  22.639  0.00  0.00    +0.068 C 
ATOM     28  C   UNL     1       3.990   2.017  22.502  0.00  0.00    +0.027 C 
ATOM     29  C   UNL     1       5.209   0.272  23.842  0.00  0.00    +0.027 C 
ENDBRANCH   8  23
ENDBRANCH  11   6
BRANCH  16  20
ATOM     20  C   UNL     1      -0.237   3.730  25.200  0.00  0.00    +0.066 C 
ATOM     24  C   UNL     1      -1.216   4.629  25.394  0.00  0.00    -0.071 C 
ATOM     30  C   UNL     1      -1.399   5.922  24.650  0.00  0.00    +0.039 C 
ATOM     31  C   UNL     1      -2.267   4.374  26.445  0.00  0.00    +0.039 C 
ENDBRANCH  16  20
ENDBRANCH  15  12
BRANCH   7  17
ATOM     17  C   UNL     1      -4.221   1.885  24.903  0.00  0.00    +0.163 C 
BRANCH  17  22
ATOM      4  O   UNL     1      -3.909   3.690  23.306  0.00  0.00    -0.274 OA
ATOM     10  N   UNL     1      -5.050   4.129  25.251  0.00  0.00    -0.328 N 
ATOM     22  C   UNL     1      -4.346   3.313  24.390  0.00  0.00    +0.231 C 
ATOM     40  H   UNL     1      -5.425   3.798  26.134  0.00  0.00    +0.145 HD
ATOM     41  H   UNL     1      -5.218   5.103  25.023  0.00  0.00    +0.145 HD
ENDBRANCH  17  22
BRANCH  17  19
ATOM     19  C   UNL     1      -5.106   0.941  24.080  0.00  0.00    +0.069 C 
BRANCH  19  21
ATOM      9  N   UNL     1      -4.011  -2.479  23.293  0.00  0.00    -0.360 N 
ATOM     21  C   UNL     1      -4.583  -0.466  24.035  0.00  0.00    -0.020 A 
ATOM     25  C   UNL     1      -4.026  -1.199  25.121  0.00  0.00    +0.003 A 
ATOM     26  C   UNL     1      -4.559  -1.280  22.925  0.00  0.00    +0.087 A 
ATOM     27  C   UNL     1      -3.676  -2.458  24.628  0.00  0.00    +0.047 A 
ATOM     32  C   UNL     1      -3.787  -0.911  26.480  0.00  0.00    +0.010 A 
ATOM     33  C   UNL     1      -3.095  -3.448  25.430  0.00  0.00    +0.026 A 
ATOM     34  C   UNL     1      -3.207  -1.891  27.293  0.00  0.00    +0.001 A 
ATOM     35  C   UNL     1      -2.867  -3.139  26.775  0.00  0.00    +0.002 A 
ATOM     39  H   UNL     1      -3.871  -3.266  22.676  0.00  0.00    +0.165 HD
ENDBRANCH  19  21
ENDBRANCH  17  19
ENDBRANCH   7  17
TORSDOF 8
ENDMDL
MODEL 6
REMARK VINA RESULT:       4.5      2.406      6.168
REMARK  Name = 11865858
REMARK  12 active torsions:
REMARK  status: ('A' for Active; 'I' for Inactive)
REMARK    1  A    between atoms: N_6  and  C_11
REMARK    2  A    between atoms: N_7  and  C_17
REMARK    3  A    between atoms: N_8  and  C_23
REMARK    4  A    between atoms: C_12  and  C_15
REMARK    5  A    between atoms: C_16  and  C_20
REMARK    6  A    between atoms: C_17  and  C_19
REMARK    7  A    between atoms: C_17  and  C_22
REMARK    8  A    between atoms: C_19  and  C_21
REMARK    9  A    between atoms: C_23  and  C_28
REMARK   10  A    between atoms: C_23  and  C_29
REMARK   11  A    between atoms: C_24  and  C_30
REMARK   12  A    between atoms: C_24  and  C_31
REMARK                            x       y       z     vdW  Elec       q    Type
REMARK                         _______ _______ _______ _____ _____    ______ ____
ROOT
ATOM      1  O   UNL     1      -3.372   2.197  23.013  0.00  0.00    -0.274 OA
ATOM      7  N   UNL     1      -3.147   1.596  25.251  0.00  0.00    -0.302 N 
ATOM     15  C   UNL     1      -2.725   2.152  24.056  0.00  0.00    +0.236 C 
ATOM     37  H   UNL     1      -2.485   1.526  26.018  0.00  0.00    +0.150 HD
ENDROOT
BRANCH  15  12
ATOM      2  O   UNL     1      -1.771   5.987  25.866  0.00  0.00    -0.271 OA
ATOM      5  N   UNL     1      -1.411   3.812  25.164  0.00  0.00    -0.285 N 
ATOM     11  C   UNL     1      -0.367   1.721  24.733  0.00  0.00    +0.105 C 
ATOM     12  C   UNL     1      -1.350   2.746  24.160  0.00  0.00    +0.182 C 
ATOM     13  C   UNL     1      -0.497   1.912  26.246  0.00  0.00    +0.043 C 
ATOM     14  C   UNL     1      -0.746   3.406  26.397  0.00  0.00    +0.111 C 
ATOM     16  C   UNL     1      -1.875   5.107  25.012  0.00  0.00    +0.240 C 
BRANCH  11   6
ATOM      3  O   UNL     1       1.306   0.004  23.128  0.00  0.00    -0.253 OA
ATOM      6  N   UNL     1       0.981   1.986  24.292  0.00  0.00    -0.294 N 
ATOM      8  N   UNL     1       2.986   1.601  23.233  0.00  0.00    -0.297 N 
ATOM     18  C   UNL     1       1.719   1.096  23.516  0.00  0.00    +0.300 C 
ATOM     36  H   UNL     1       1.439   2.834  24.615  0.00  0.00    +0.151 HD
ATOM     38  H   UNL     1       3.261   2.481  23.659  0.00  0.00    +0.150 HD
BRANCH   8  23
ATOM     23  C   UNL     1       3.957   0.881  22.444  0.00  0.00    +0.068 C 
ATOM     28  C   UNL     1       4.930   0.131  23.346  0.00  0.00    +0.027 C 
ATOM     29  C   UNL     1       3.258  -0.066  21.477  0.00  0.00    +0.027 C 
ENDBRANCH   8  23
ENDBRANCH  11   6
BRANCH  16  20
ATOM     20  C   UNL     1      -2.538   5.440  23.735  0.00  0.00    +0.066 C 
ATOM     24  C   UNL     1      -3.866   5.441  23.538  0.00  0.00    -0.071 C 
ATOM     30  C   UNL     1      -4.577   5.773  22.256  0.00  0.00    +0.039 C 
ATOM     31  C   UNL     1      -4.790   5.083  24.674  0.00  0.00    +0.039 C 
ENDBRANCH  16  20
ENDBRANCH  15  12
BRANCH   7  17
ATOM     17  C   UNL     1      -4.442   0.979  25.421  0.00  0.00    +0.163 C 
BRANCH  17  22
ATOM      4  O   UNL     1      -5.255   3.014  26.471  0.00  0.00    -0.274 OA
ATOM     10  N   UNL     1      -6.562   2.003  24.875  0.00  0.00    -0.328 N 
ATOM     22  C   UNL     1      -5.442   2.097  25.675  0.00  0.00    +0.231 C 
ATOM     40  H   UNL     1      -6.693   1.253  24.205  0.00  0.00    +0.145 HD
ATOM     41  H   UNL     1      -7.302   2.695  24.933  0.00  0.00    +0.145 HD
ENDBRANCH  17  22
BRANCH  17  19
ATOM     19  C   UNL     1      -4.858   0.154  24.198  0.00  0.00    +0.069 C 
BRANCH  19  21
ATOM      9  N   UNL     1      -3.846  -3.355  23.777  0.00  0.00    -0.360 N 
ATOM     21  C   UNL     1      -4.197  -1.194  24.143  0.00  0.00    -0.020 A 
ATOM     25  C   UNL     1      -2.882  -1.512  24.585  0.00  0.00    +0.003 A 
ATOM     26  C   UNL     1      -4.764  -2.347  23.651  0.00  0.00    +0.087 A 
ATOM     27  C   UNL     1      -2.688  -2.874  24.344  0.00  0.00    +0.047 A 
ATOM     32  C   UNL     1      -1.837  -0.769  25.170  0.00  0.00    +0.010 A 
ATOM     33  C   UNL     1      -1.494  -3.533  24.660  0.00  0.00    +0.026 A 
ATOM     34  C   UNL     1      -0.638  -1.416  25.490  0.00  0.00    +0.001 A 
ATOM     35  C   UNL     1      -0.470  -2.776  25.238  0.00  0.00    +0.002 A 
ATOM     39  H   UNL     1      -3.995  -4.314  23.495  0.00  0.00    +0.165 HD
ENDBRANCH  19  21
ENDBRANCH  17  19
ENDBRANCH   7  17
TORSDOF 8
ENDMDL
MODEL 7
REMARK VINA RESULT:       5.6      2.839      5.609
REMARK  Name = 11865858
REMARK  12 active torsions:
REMARK  status: ('A' for Active; 'I' for Inactive)
REMARK    1  A    between atoms: N_6  and  C_11
REMARK    2  A    between atoms: N_7  and  C_17
REMARK    3  A    between atoms: N_8  and  C_23
REMARK    4  A    between atoms: C_12  and  C_15
REMARK    5  A    between atoms: C_16  and  C_20
REMARK    6  A    between atoms: C_17  and  C_19
REMARK    7  A    between atoms: C_17  and  C_22
REMARK    8  A    between atoms: C_19  and  C_21
REMARK    9  A    between atoms: C_23  and  C_28
REMARK   10  A    between atoms: C_23  and  C_29
REMARK   11  A    between atoms: C_24  and  C_30
REMARK   12  A    between atoms: C_24  and  C_31
REMARK                            x       y       z     vdW  Elec       q    Type
REMARK                         _______ _______ _______ _____ _____    ______ ____
ROOT
ATOM      1  O   UNL     1      -1.600   1.064  23.018  0.00  0.00    -0.274 OA
ATOM      7  N   UNL     1      -0.254   2.189  24.548  0.00  0.00    -0.302 N 
ATOM     15  C   UNL     1      -0.609   1.122  23.742  0.00  0.00    +0.236 C 
ATOM     37  H   UNL     1       0.533   2.082  25.181  0.00  0.00    +0.150 HD
ENDROOT
BRANCH  15  12
ATOM      2  O   UNL     1      -1.557  -3.106  23.390  0.00  0.00    -0.271 OA
ATOM      5  N   UNL     1      -0.262  -1.193  23.260  0.00  0.00    -0.285 N 
ATOM     11  C   UNL     1       1.570   0.274  22.885  0.00  0.00    +0.105 C 
ATOM     12  C   UNL     1       0.385  -0.001  23.815  0.00  0.00    +0.182 C 
ATOM     13  C   UNL     1       1.110  -0.303  21.545  0.00  0.00    +0.043 C 
ATOM     14  C   UNL     1       0.278  -1.513  21.943  0.00  0.00    +0.111 C 
ATOM     16  C   UNL     1      -1.157  -2.049  23.877  0.00  0.00    +0.240 C 
BRANCH  11   6
ATOM      3  O   UNL     1       4.248   1.347  22.926  0.00  0.00    -0.253 OA
ATOM      6  N   UNL     1       2.765  -0.389  23.350  0.00  0.00    -0.294 N 
ATOM      8  N   UNL     1       4.996  -0.651  23.839  0.00  0.00    -0.297 N 
ATOM     18  C   UNL     1       4.023   0.207  23.334  0.00  0.00    +0.300 C 
ATOM     36  H   UNL     1       2.697  -1.358  23.646  0.00  0.00    +0.151 HD
ATOM     38  H   UNL     1       4.725  -1.599  24.083  0.00  0.00    +0.150 HD
BRANCH   8  23
ATOM     23  C   UNL     1       6.390  -0.285  23.936  0.00  0.00    +0.068 C 
ATOM     28  C   UNL     1       7.124  -0.629  22.646  0.00  0.00    +0.027 C 
ATOM     29  C   UNL     1       6.526   1.194  24.272  0.00  0.00    +0.027 C 
ENDBRANCH   8  23
ENDBRANCH  11   6
BRANCH  16  20
ATOM     20  C   UNL     1      -1.660  -1.653  25.208  0.00  0.00    +0.066 C 
ATOM     24  C   UNL     1      -2.913  -1.857  25.647  0.00  0.00    -0.071 C 
ATOM     30  C   UNL     1      -3.461  -1.468  26.991  0.00  0.00    +0.039 C 
ATOM     31  C   UNL     1      -3.917  -2.535  24.751  0.00  0.00    +0.039 C 
ENDBRANCH  16  20
ENDBRANCH  15  12
BRANCH   7  17
ATOM     17  C   UNL     1      -1.032   3.402  24.641  0.00  0.00    +0.163 C 
BRANCH  17  22
ATOM      4  O   UNL     1       0.690   4.424  23.265  0.00  0.00    -0.274 OA
ATOM     10  N   UNL     1      -0.419   5.736  24.790  0.00  0.00    -0.328 N 
ATOM     22  C   UNL     1      -0.147   4.541  24.157  0.00  0.00    +0.231 C 
ATOM     40  H   UNL     1      -1.129   5.823  25.510  0.00  0.00    +0.145 HD
ATOM     41  H   UNL     1       0.091   6.579  24.550  0.00  0.00    +0.145 HD
ENDBRANCH  17  22
BRANCH  17  19
ATOM     19  C   UNL     1      -2.319   3.333  23.810  0.00  0.00    +0.069 C 
BRANCH  19  21
ATOM      9  N   UNL     1      -5.151   4.465  25.862  0.00  0.00    -0.360 N 
ATOM     21  C   UNL     1      -3.562   3.523  24.632  0.00  0.00    -0.020 A 
ATOM     25  C   UNL     1      -4.517   2.522  24.968  0.00  0.00    +0.003 A 
ATOM     26  C   UNL     1      -3.980   4.707  25.195  0.00  0.00    +0.087 A 
ATOM     27  C   UNL     1      -5.503   3.140  25.741  0.00  0.00    +0.047 A 
ATOM     32  C   UNL     1      -4.636   1.146  24.690  0.00  0.00    +0.010 A 
ATOM     33  C   UNL     1      -6.607   2.448  26.250  0.00  0.00    +0.026 A 
ATOM     34  C   UNL     1      -5.736   0.441  25.193  0.00  0.00    +0.001 A 
ATOM     35  C   UNL     1      -6.705   1.083  25.960  0.00  0.00    +0.002 A 
ATOM     39  H   UNL     1      -5.682   5.159  26.370  0.00  0.00    +0.165 HD
ENDBRANCH  19  21
ENDBRANCH  17  19
ENDBRANCH   7  17
TORSDOF 8
ENDMDL
