MODEL 1
REMARK VINA RESULT:      -5.0      0.000      0.000
REMARK  Name = 75536616
REMARK  6 active torsions:
REMARK  status: ('A' for Active; 'I' for Inactive)
REMARK    1  A    between atoms: O_2  and  C_8
REMARK    2  A    between atoms: N_4  and  C_7
REMARK    3  A    between atoms: N_4  and  C_9
REMARK    4  A    between atoms: N_6  and  C_16
REMARK    5  A    between atoms: C_10  and  C_16
REMARK    6  A    between atoms: C_17  and  C_18
REMARK                            x       y       z     vdW  Elec       q    Type
REMARK                         _______ _______ _______ _____ _____    ______ ____
ROOT
ATOM      1  O   UNL     1       0.322   3.456  23.526  0.00  0.00    -0.371 OA
ATOM      7  C   UNL     1      -0.972   4.161  25.389  0.00  0.00    +0.111 C 
ATOM      8  C   UNL     1      -0.669   2.681  25.529  0.00  0.00    +0.164 C 
ATOM     10  C   UNL     1       0.539   2.540  24.613  0.00  0.00    +0.165 C 
ATOM     11  C   UNL     1      -0.709   4.383  23.909  0.00  0.00    +0.181 C 
ENDROOT
BRANCH   8   2
ATOM      2  O   UNL     1      -0.368   2.308  26.860  0.00  0.00    -0.388 OA
ATOM     26  H   UNL     1      -1.192   2.023  27.290  0.00  0.00    +0.210 HD
ENDBRANCH   8   2
BRANCH   7   4
ATOM      4  N   UNL     1      -2.324   4.520  25.784  0.00  0.00    -0.306 NA
ATOM     24  H   UNL     1      -2.624   5.357  25.285  0.00  0.00    +0.123 HD
BRANCH   4   9
ATOM      5  N   UNL     1      -5.936   2.515  24.766  0.00  0.00    -0.316 NA
ATOM      9  C   UNL     1      -3.252   3.425  25.514  0.00  0.00    +0.056 C 
ATOM     12  C   UNL     1      -4.432   3.476  26.489  0.00  0.00    +0.034 C 
ATOM     13  C   UNL     1      -3.760   3.480  24.068  0.00  0.00    +0.034 C 
ATOM     14  C   UNL     1      -5.467   2.402  26.149  0.00  0.00    +0.082 C 
ATOM     15  C   UNL     1      -4.819   2.405  23.822  0.00  0.00    +0.082 C 
ATOM     25  H   UNL     1      -6.610   1.774  24.577  0.00  0.00    +0.122 HD
ENDBRANCH   4   9
ENDBRANCH   7   4
BRANCH  10  16
ATOM     16  C   UNL     1       0.721   1.134  24.071  0.00  0.00    +0.138 C 
BRANCH  16   6
ATOM      3  O   UNL     1       0.061  -1.367  25.315  0.00  0.00    -0.270 OA
ATOM      6  N   UNL     1      -0.530   0.440  23.986  0.00  0.00    -0.309 N 
ATOM     17  C   UNL     1      -0.764  -0.774  24.625  0.00  0.00    +0.244 C 
ATOM     27  H   UNL     1      -1.232   0.841  23.372  0.00  0.00    +0.149 HD
BRANCH  17  18
ATOM     18  C   UNL     1      -2.105  -1.378  24.416  0.00  0.00    +0.037 A 
ATOM     19  C   UNL     1      -3.209  -0.560  24.177  0.00  0.00    +0.013 A 
ATOM     20  C   UNL     1      -2.259  -2.763  24.458  0.00  0.00    +0.013 A 
ATOM     21  C   UNL     1      -4.468  -1.127  23.979  0.00  0.00    +0.001 A 
ATOM     22  C   UNL     1      -3.518  -3.331  24.261  0.00  0.00    +0.001 A 
ATOM     23  C   UNL     1      -4.623  -2.513  24.021  0.00  0.00    +0.000 A 
ENDBRANCH  17  18
ENDBRANCH  16   6
ENDBRANCH  10  16
TORSDOF 6
ENDMDL
MODEL 2
REMARK VINA RESULT:      -4.9      1.998      4.353
REMARK  Name = 75536616
REMARK  6 active torsions:
REMARK  status: ('A' for Active; 'I' for Inactive)
REMARK    1  A    between atoms: O_2  and  C_8
REMARK    2  A    between atoms: N_4  and  C_7
REMARK    3  A    between atoms: N_4  and  C_9
REMARK    4  A    between atoms: N_6  and  C_16
REMARK    5  A    between atoms: C_10  and  C_16
REMARK    6  A    between atoms: C_17  and  C_18
REMARK                            x       y       z     vdW  Elec       q    Type
REMARK                         _______ _______ _______ _____ _____    ______ ____
ROOT
ATOM      1  O   UNL     1      -3.484   4.029  25.985  0.00  0.00    -0.371 OA
ATOM      7  C   UNL     1      -1.336   3.835  24.989  0.00  0.00    +0.111 C 
ATOM      8  C   UNL     1      -2.357   3.144  24.104  0.00  0.00    +0.164 C 
ATOM     10  C   UNL     1      -3.647   3.800  24.575  0.00  0.00    +0.165 C 
ATOM     11  C   UNL     1      -2.088   3.913  26.308  0.00  0.00    +0.181 C 
ENDROOT
BRANCH   8   2
ATOM      2  O   UNL     1      -2.125   3.366  22.726  0.00  0.00    -0.388 OA
ATOM     26  H   UNL     1      -1.796   2.539  22.335  0.00  0.00    +0.210 HD
ENDBRANCH   8   2
BRANCH   7   4
ATOM      4  N   UNL     1      -0.077   3.118  25.097  0.00  0.00    -0.306 NA
ATOM     24  H   UNL     1       0.137   2.929  26.076  0.00  0.00    +0.123 HD
BRANCH   4   9
ATOM      5  N   UNL     1       0.812  -0.887  23.970  0.00  0.00    -0.316 NA
ATOM      9  C   UNL     1      -0.129   1.862  24.353  0.00  0.00    +0.056 C 
ATOM     12  C   UNL     1       1.244   1.546  23.749  0.00  0.00    +0.034 C 
ATOM     13  C   UNL     1      -0.588   0.709  25.253  0.00  0.00    +0.034 C 
ATOM     14  C   UNL     1       1.234   0.181  23.060  0.00  0.00    +0.082 C 
ATOM     15  C   UNL     1      -0.527  -0.623  24.504  0.00  0.00    +0.082 C 
ATOM     25  H   UNL     1       0.804  -1.774  23.467  0.00  0.00    +0.122 HD
ENDBRANCH   4   9
ENDBRANCH   7   4
BRANCH  10  16
ATOM     16  C   UNL     1      -4.879   2.946  24.333  0.00  0.00    +0.138 C 
BRANCH  16   6
ATOM      3  O   UNL     1      -5.174   0.925  26.350  0.00  0.00    -0.270 OA
ATOM      6  N   UNL     1      -4.538   1.559  24.211  0.00  0.00    -0.309 N 
ATOM     17  C   UNL     1      -4.715   0.645  25.247  0.00  0.00    +0.244 C 
ATOM     27  H   UNL     1      -4.086   1.275  23.348  0.00  0.00    +0.149 HD
BRANCH  17  18
ATOM     18  C   UNL     1      -4.286  -0.750  24.971  0.00  0.00    +0.037 A 
ATOM     19  C   UNL     1      -3.589  -1.470  25.942  0.00  0.00    +0.013 A 
ATOM     20  C   UNL     1      -4.582  -1.340  23.744  0.00  0.00    +0.013 A 
ATOM     21  C   UNL     1      -3.188  -2.780  25.683  0.00  0.00    +0.001 A 
ATOM     22  C   UNL     1      -4.181  -2.651  23.485  0.00  0.00    +0.001 A 
ATOM     23  C   UNL     1      -3.484  -3.372  24.455  0.00  0.00    +0.000 A 
ENDBRANCH  17  18
ENDBRANCH  16   6
ENDBRANCH  10  16
TORSDOF 6
ENDMDL
MODEL 3
REMARK VINA RESULT:      -4.8      1.425      1.791
REMARK  Name = 75536616
REMARK  6 active torsions:
REMARK  status: ('A' for Active; 'I' for Inactive)
REMARK    1  A    between atoms: O_2  and  C_8
REMARK    2  A    between atoms: N_4  and  C_7
REMARK    3  A    between atoms: N_4  and  C_9
REMARK    4  A    between atoms: N_6  and  C_16
REMARK    5  A    between atoms: C_10  and  C_16
REMARK    6  A    between atoms: C_17  and  C_18
REMARK                            x       y       z     vdW  Elec       q    Type
REMARK                         _______ _______ _______ _____ _____    ______ ____
ROOT
ATOM      1  O   UNL     1       0.081   3.782  24.378  0.00  0.00    -0.371 OA
ATOM      7  C   UNL     1      -2.147   4.508  24.763  0.00  0.00    +0.111 C 
ATOM      8  C   UNL     1      -1.780   3.465  25.802  0.00  0.00    +0.164 C 
ATOM     10  C   UNL     1      -0.259   3.521  25.749  0.00  0.00    +0.165 C 
ATOM     11  C   UNL     1      -1.094   4.253  23.697  0.00  0.00    +0.181 C 
ENDROOT
BRANCH   8   2
ATOM      2  O   UNL     1      -2.275   3.778  27.090  0.00  0.00    -0.388 OA
ATOM     26  H   UNL     1      -2.487   2.946  27.545  0.00  0.00    +0.210 HD
ENDBRANCH   8   2
BRANCH   7   4
ATOM      4  N   UNL     1      -3.505   4.378  24.260  0.00  0.00    -0.306 NA
ATOM     24  H   UNL     1      -3.493   4.227  23.252  0.00  0.00    +0.123 HD
BRANCH   4   9
ATOM      5  N   UNL     1      -6.585   1.593  25.189  0.00  0.00    -0.316 NA
ATOM      9  C   UNL     1      -4.197   3.270  24.916  0.00  0.00    +0.056 C 
ATOM     12  C   UNL     1      -5.474   3.772  25.599  0.00  0.00    +0.034 C 
ATOM     13  C   UNL     1      -4.536   2.163  23.911  0.00  0.00    +0.034 C 
ATOM     14  C   UNL     1      -6.266   2.608  26.196  0.00  0.00    +0.082 C 
ATOM     15  C   UNL     1      -5.364   1.062  24.574  0.00  0.00    +0.082 C 
ATOM     25  H   UNL     1      -7.097   0.830  25.631  0.00  0.00    +0.122 HD
ENDBRANCH   4   9
ENDBRANCH   7   4
BRANCH  10  16
ATOM     16  C   UNL     1       0.406   2.235  26.208  0.00  0.00    +0.138 C 
BRANCH  16   6
ATOM      3  O   UNL     1       0.111   0.558  23.897  0.00  0.00    -0.270 OA
ATOM      6  N   UNL     1      -0.476   1.113  26.072  0.00  0.00    -0.309 N 
ATOM     17  C   UNL     1      -0.554   0.353  24.908  0.00  0.00    +0.244 C 
ATOM     27  H   UNL     1      -1.106   0.933  26.846  0.00  0.00    +0.149 HD
BRANCH  17  18
ATOM     18  C   UNL     1      -1.538  -0.760  24.916  0.00  0.00    +0.037 A 
ATOM     19  C   UNL     1      -1.296  -1.910  24.164  0.00  0.00    +0.013 A 
ATOM     20  C   UNL     1      -2.701  -0.656  25.677  0.00  0.00    +0.013 A 
ATOM     21  C   UNL     1      -2.220  -2.956  24.173  0.00  0.00    +0.001 A 
ATOM     22  C   UNL     1      -3.624  -1.702  25.687  0.00  0.00    +0.001 A 
ATOM     23  C   UNL     1      -3.384  -2.852  24.935  0.00  0.00    +0.000 A 
ENDBRANCH  17  18
ENDBRANCH  16   6
ENDBRANCH  10  16
TORSDOF 6
ENDMDL
MODEL 4
REMARK VINA RESULT:      -3.3      2.666      4.975
REMARK  Name = 75536616
REMARK  6 active torsions:
REMARK  status: ('A' for Active; 'I' for Inactive)
REMARK    1  A    between atoms: O_2  and  C_8
REMARK    2  A    between atoms: N_4  and  C_7
REMARK    3  A    between atoms: N_4  and  C_9
REMARK    4  A    between atoms: N_6  and  C_16
REMARK    5  A    between atoms: C_10  and  C_16
REMARK    6  A    between atoms: C_17  and  C_18
REMARK                            x       y       z     vdW  Elec       q    Type
REMARK                         _______ _______ _______ _____ _____    ______ ____
ROOT
ATOM      1  O   UNL     1      -0.508   0.337  25.536  0.00  0.00    -0.371 OA
ATOM      7  C   UNL     1      -2.513   1.288  24.689  0.00  0.00    +0.111 C 
ATOM      8  C   UNL     1      -2.306  -0.076  24.056  0.00  0.00    +0.164 C 
ATOM     10  C   UNL     1      -1.353  -0.721  25.054  0.00  0.00    +0.165 C 
ATOM     11  C   UNL     1      -1.115   1.596  25.200  0.00  0.00    +0.181 C 
ENDROOT
BRANCH   8   2
ATOM      2  O   UNL     1      -3.510  -0.808  23.928  0.00  0.00    -0.388 OA
ATOM     26  H   UNL     1      -3.307  -1.656  23.500  0.00  0.00    +0.210 HD
ENDBRANCH   8   2
BRANCH   7   4
ATOM      4  N   UNL     1      -3.011   2.291  23.763  0.00  0.00    -0.306 NA
ATOM     24  H   UNL     1      -3.042   1.911  22.817  0.00  0.00    +0.123 HD
BRANCH   4   9
ATOM      5  N   UNL     1      -6.347   3.175  26.251  0.00  0.00    -0.316 NA
ATOM      9  C   UNL     1      -4.343   2.744  24.156  0.00  0.00    +0.056 C 
ATOM     12  C   UNL     1      -5.134   1.589  24.779  0.00  0.00    +0.034 C 
ATOM     13  C   UNL     1      -4.255   3.916  25.141  0.00  0.00    +0.034 C 
ATOM     14  C   UNL     1      -6.490   2.074  25.296  0.00  0.00    +0.082 C 
ATOM     15  C   UNL     1      -5.646   4.310  25.642  0.00  0.00    +0.082 C 
ATOM     25  H   UNL     1      -7.272   3.477  26.556  0.00  0.00    +0.122 HD
ENDBRANCH   4   9
ENDBRANCH   7   4
BRANCH  10  16
ATOM     16  C   UNL     1      -0.502  -1.822  24.446  0.00  0.00    +0.138 C 
BRANCH  16   6
ATOM      3  O   UNL     1       0.683  -0.316  22.309  0.00  0.00    -0.270 OA
ATOM      6  N   UNL     1       0.871  -1.422  24.340  0.00  0.00    -0.309 N 
ATOM     17  C   UNL     1       1.360  -0.689  23.262  0.00  0.00    +0.244 C 
ATOM     27  H   UNL     1       1.501  -1.760  25.059  0.00  0.00    +0.149 HD
BRANCH  17  18
ATOM     18  C   UNL     1       2.813  -0.376  23.287  0.00  0.00    +0.037 A 
ATOM     19  C   UNL     1       3.717  -1.304  23.805  0.00  0.00    +0.013 A 
ATOM     20  C   UNL     1       3.271   0.843  22.792  0.00  0.00    +0.013 A 
ATOM     21  C   UNL     1       5.081  -1.011  23.827  0.00  0.00    +0.001 A 
ATOM     22  C   UNL     1       4.635   1.137  22.814  0.00  0.00    +0.001 A 
ATOM     23  C   UNL     1       5.540   0.210  23.331  0.00  0.00    +0.000 A 
ENDBRANCH  17  18
ENDBRANCH  16   6
ENDBRANCH  10  16
TORSDOF 6
ENDMDL
MODEL 5
REMARK VINA RESULT:      -1.6     19.069     20.237
REMARK  Name = 75536616
REMARK  6 active torsions:
REMARK  status: ('A' for Active; 'I' for Inactive)
REMARK    1  A    between atoms: O_2  and  C_8
REMARK    2  A    between atoms: N_4  and  C_7
REMARK    3  A    between atoms: N_4  and  C_9
REMARK    4  A    between atoms: N_6  and  C_16
REMARK    5  A    between atoms: C_10  and  C_16
REMARK    6  A    between atoms: C_17  and  C_18
REMARK                            x       y       z     vdW  Elec       q    Type
REMARK                         _______ _______ _______ _____ _____    ______ ____
ROOT
ATOM      1  O   UNL     1      16.787  -5.276  27.829  0.00  0.00    -0.371 OA
ATOM      7  C   UNL     1      16.563  -5.341  25.465  0.00  0.00    +0.111 C 
ATOM      8  C   UNL     1      16.709  -6.758  25.988  0.00  0.00    +0.164 C 
ATOM     10  C   UNL     1      16.309  -6.576  27.446  0.00  0.00    +0.165 C 
ATOM     11  C   UNL     1      17.095  -4.533  26.638  0.00  0.00    +0.181 C 
ENDROOT
BRANCH   8   2
ATOM      2  O   UNL     1      15.865  -7.677  25.320  0.00  0.00    -0.388 OA
ATOM     26  H   UNL     1      15.727  -8.442  25.902  0.00  0.00    +0.210 HD
ENDBRANCH   8   2
BRANCH   7   4
ATOM      4  N   UNL     1      17.291  -5.096  24.232  0.00  0.00    -0.306 NA
ATOM     24  H   UNL     1      16.835  -5.574  23.455  0.00  0.00    +0.123 HD
BRANCH   4   9
ATOM      5  N   UNL     1      16.131  -1.224  22.902  0.00  0.00    -0.316 NA
ATOM      9  C   UNL     1      17.370  -3.664  23.952  0.00  0.00    +0.056 C 
ATOM     12  C   UNL     1      17.218  -3.408  22.449  0.00  0.00    +0.034 C 
ATOM     13  C   UNL     1      16.297  -2.892  24.730  0.00  0.00    +0.034 C 
ATOM     14  C   UNL     1      17.188  -1.907  22.152  0.00  0.00    +0.082 C 
ATOM     15  C   UNL     1      16.305  -1.412  24.345  0.00  0.00    +0.082 C 
ATOM     25  H   UNL     1      16.157  -0.227  22.688  0.00  0.00    +0.122 HD
ENDBRANCH   4   9
ENDBRANCH   7   4
BRANCH  10  16
ATOM     16  C   UNL     1      16.897  -7.631  28.366  0.00  0.00    +0.138 C 
BRANCH  16   6
ATOM      3  O   UNL     1      14.975  -9.754  28.178  0.00  0.00    -0.270 OA
ATOM      6  N   UNL     1      15.958  -8.027  29.375  0.00  0.00    -0.309 N 
ATOM     17  C   UNL     1      15.058  -9.074  29.196  0.00  0.00    +0.244 C 
ATOM     27  H   UNL     1      15.925  -7.459  30.214  0.00  0.00    +0.149 HD
BRANCH  17  18
ATOM     18  C   UNL     1      14.131  -9.342  30.326  0.00  0.00    +0.037 A 
ATOM     19  C   UNL     1      13.014 -10.156  30.134  0.00  0.00    +0.013 A 
ATOM     20  C   UNL     1      14.379  -8.782  31.579  0.00  0.00    +0.013 A 
ATOM     21  C   UNL     1      12.146 -10.409  31.196  0.00  0.00    +0.001 A 
ATOM     22  C   UNL     1      13.511  -9.035  32.641  0.00  0.00    +0.001 A 
ATOM     23  C   UNL     1      12.394  -9.849  32.450  0.00  0.00    +0.000 A 
ENDBRANCH  17  18
ENDBRANCH  16   6
ENDBRANCH  10  16
TORSDOF 6
ENDMDL
