MODEL 1
REMARK VINA RESULT:      -3.8      0.000      0.000
REMARK  Name = 45784220
REMARK  4 active torsions:
REMARK  status: ('A' for Active; 'I' for Inactive)
REMARK    1  A    between atoms: N_2  and  C_10
REMARK    2  A    between atoms: C_5  and  C_9
REMARK    3  A    between atoms: C_10  and  C_12
REMARK    4  A    between atoms: C_17  and  C_21
REMARK                            x       y       z     vdW  Elec       q    Type
REMARK                         _______ _______ _______ _____ _____    ______ ____
ROOT
ATOM      2  N   UNL     1       0.928  -0.456  23.662  0.00  0.00    -0.297 NA
ATOM      5  C   UNL     1      -0.923  -0.033  25.039  0.00  0.00    +0.070 C 
ATOM      6  C   UNL     1      -1.048  -1.438  24.424  0.00  0.00    +0.028 C 
ATOM      7  C   UNL     1       0.152   0.665  24.194  0.00  0.00    +0.096 C 
ATOM      8  C   UNL     1      -0.069  -1.447  23.258  0.00  0.00    +0.085 C 
ENDROOT
BRANCH   5   9
ATOM      3  N   UNL     1      -2.217   2.107  25.245  0.00  0.00    -0.342 N 
ATOM      4  N   UNL     1      -3.433   0.255  25.061  0.00  0.00    -0.232 NA
ATOM      9  C   UNL     1      -2.215   0.746  25.112  0.00  0.00    +0.113 A 
ATOM     11  C   UNL     1      -3.524   2.521  25.281  0.00  0.00    +0.066 A 
ATOM     13  C   UNL     1      -4.263   1.347  25.164  0.00  0.00    +0.089 A 
ATOM     14  C   UNL     1      -4.105   3.784  25.402  0.00  0.00    +0.031 A 
ATOM     15  C   UNL     1      -5.667   1.419  25.167  0.00  0.00    +0.030 A 
ATOM     17  C   UNL     1      -5.503   3.836  25.403  0.00  0.00    -0.048 A 
ATOM     18  C   UNL     1      -6.272   2.676  25.288  0.00  0.00    +0.005 A 
ATOM     21  C   UNL     1      -6.185   5.160  25.530  0.00  0.00    +0.044 C 
ATOM     22  H   UNL     1      -1.403   2.704  25.305  0.00  0.00    +0.167 HD
ENDBRANCH   5   9
BRANCH   2  10
ATOM     10  C   UNL     1       1.794  -0.059  22.561  0.00  0.00    +0.126 C 
BRANCH  10  12
ATOM      1  S   UNL     1       3.957  -1.360  23.729  0.00  0.00    -0.100 S 
ATOM     12  C   UNL     1       3.239   0.000  22.978  0.00  0.00    +0.004 A 
ATOM     16  C   UNL     1       4.128   1.044  22.842  0.00  0.00    +0.012 A 
ATOM     19  C   UNL     1       5.415   0.722  23.361  0.00  0.00    +0.008 A 
ATOM     20  C   UNL     1       5.461  -0.556  23.874  0.00  0.00    +0.045 A 
ENDBRANCH  10  12
ENDBRANCH   2  10
TORSDOF 3
ENDMDL
MODEL 2
REMARK VINA RESULT:      -2.6     17.404     20.144
REMARK  Name = 45784220
REMARK  4 active torsions:
REMARK  status: ('A' for Active; 'I' for Inactive)
REMARK    1  A    between atoms: N_2  and  C_10
REMARK    2  A    between atoms: C_5  and  C_9
REMARK    3  A    between atoms: C_10  and  C_12
REMARK    4  A    between atoms: C_17  and  C_21
REMARK                            x       y       z     vdW  Elec       q    Type
REMARK                         _______ _______ _______ _____ _____    ______ ____
ROOT
ATOM      2  N   UNL     1      14.782 -10.086  30.792  0.00  0.00    -0.297 NA
ATOM      5  C   UNL     1      15.664  -9.930  28.625  0.00  0.00    +0.070 C 
ATOM      6  C   UNL     1      16.780 -10.328  29.607  0.00  0.00    +0.028 C 
ATOM      7  C   UNL     1      14.528  -9.413  29.517  0.00  0.00    +0.096 C 
ATOM      8  C   UNL     1      16.229  -9.990  30.986  0.00  0.00    +0.085 C 
ENDROOT
BRANCH   5   9
ATOM      3  N   UNL     1      15.994  -7.590  27.778  0.00  0.00    -0.342 N 
ATOM      4  N   UNL     1      16.542  -9.217  26.364  0.00  0.00    -0.232 NA
ATOM      9  C   UNL     1      16.077  -8.938  27.562  0.00  0.00    +0.113 A 
ATOM     11  C   UNL     1      16.435  -6.957  26.644  0.00  0.00    +0.066 A 
ATOM     13  C   UNL     1      16.771  -7.994  25.777  0.00  0.00    +0.089 A 
ATOM     14  C   UNL     1      16.564  -5.609  26.312  0.00  0.00    +0.031 A 
ATOM     15  C   UNL     1      17.267  -7.684  24.500  0.00  0.00    +0.030 A 
ATOM     17  C   UNL     1      17.060  -5.318  25.037  0.00  0.00    -0.048 A 
ATOM     18  C   UNL     1      17.405  -6.336  24.145  0.00  0.00    +0.005 A 
ATOM     21  C   UNL     1      17.222  -3.892  24.623  0.00  0.00    +0.044 C 
ATOM     22  H   UNL     1      15.667  -7.138  28.621  0.00  0.00    +0.167 HD
ENDBRANCH   5   9
BRANCH   2  10
ATOM     10  C   UNL     1      14.035  -9.493  31.892  0.00  0.00    +0.126 C 
BRANCH  10  12
ATOM      1  S   UNL     1      11.889  -7.785  31.436  0.00  0.00    -0.100 S 
ATOM     12  C   UNL     1      13.566  -8.101  31.565  0.00  0.00    +0.004 A 
ATOM     16  C   UNL     1      14.324  -6.972  31.339  0.00  0.00    +0.012 A 
ATOM     19  C   UNL     1      13.516  -5.834  31.056  0.00  0.00    +0.008 A 
ATOM     20  C   UNL     1      12.172  -6.135  31.077  0.00  0.00    +0.045 A 
ENDBRANCH  10  12
ENDBRANCH   2  10
TORSDOF 3
ENDMDL
MODEL 3
REMARK VINA RESULT:      -2.3     18.190     19.536
REMARK  Name = 45784220
REMARK  4 active torsions:
REMARK  status: ('A' for Active; 'I' for Inactive)
REMARK    1  A    between atoms: N_2  and  C_10
REMARK    2  A    between atoms: C_5  and  C_9
REMARK    3  A    between atoms: C_10  and  C_12
REMARK    4  A    between atoms: C_17  and  C_21
REMARK                            x       y       z     vdW  Elec       q    Type
REMARK                         _______ _______ _______ _____ _____    ______ ____
ROOT
ATOM      2  N   UNL     1      15.132  -8.992  28.169  0.00  0.00    -0.297 NA
ATOM      5  C   UNL     1      16.099  -8.102  26.226  0.00  0.00    +0.070 C 
ATOM      6  C   UNL     1      17.206  -8.613  27.164  0.00  0.00    +0.028 C 
ATOM      7  C   UNL     1      14.847  -8.021  27.111  0.00  0.00    +0.096 C 
ATOM      8  C   UNL     1      16.533  -8.763  28.522  0.00  0.00    +0.085 C 
ENDROOT
BRANCH   5   9
ATOM      3  N   UNL     1      16.364  -5.606  26.190  0.00  0.00    -0.342 N 
ATOM      4  N   UNL     1      16.745  -6.647  24.263  0.00  0.00    -0.232 NA
ATOM      9  C   UNL     1      16.410  -6.800  25.525  0.00  0.00    +0.113 A 
ATOM     11  C   UNL     1      16.692  -4.618  25.298  0.00  0.00    +0.066 A 
ATOM     13  C   UNL     1      16.926  -5.293  24.103  0.00  0.00    +0.089 A 
ATOM     14  C   UNL     1      16.801  -3.233  25.430  0.00  0.00    +0.031 A 
ATOM     15  C   UNL     1      17.290  -4.559  22.962  0.00  0.00    +0.030 A 
ATOM     17  C   UNL     1      17.165  -2.518  24.284  0.00  0.00    -0.048 A 
ATOM     18  C   UNL     1      17.405  -3.167  23.071  0.00  0.00    +0.005 A 
ATOM     21  C   UNL     1      17.299  -1.032  24.362  0.00  0.00    +0.044 C 
ATOM     22  H   UNL     1      16.131  -5.473  27.165  0.00  0.00    +0.167 HD
ENDBRANCH   5   9
BRANCH   2  10
ATOM     10  C   UNL     1      14.241  -8.847  29.311  0.00  0.00    +0.126 C 
BRANCH  10  12
ATOM      1  S   UNL     1      15.543  -7.518  31.378  0.00  0.00    -0.100 S 
ATOM     12  C   UNL     1      14.474  -7.552  30.042  0.00  0.00    +0.004 A 
ATOM     16  C   UNL     1      13.924  -6.314  29.788  0.00  0.00    +0.012 A 
ATOM     19  C   UNL     1      14.388  -5.325  30.703  0.00  0.00    +0.008 A 
ATOM     20  C   UNL     1      15.274  -5.844  31.620  0.00  0.00    +0.045 A 
ENDBRANCH  10  12
ENDBRANCH   2  10
TORSDOF 3
ENDMDL
MODEL 4
REMARK VINA RESULT:      -1.5      2.567      7.548
REMARK  Name = 45784220
REMARK  4 active torsions:
REMARK  status: ('A' for Active; 'I' for Inactive)
REMARK    1  A    between atoms: N_2  and  C_10
REMARK    2  A    between atoms: C_5  and  C_9
REMARK    3  A    between atoms: C_10  and  C_12
REMARK    4  A    between atoms: C_17  and  C_21
REMARK                            x       y       z     vdW  Elec       q    Type
REMARK                         _______ _______ _______ _____ _____    ______ ____
ROOT
ATOM      2  N   UNL     1      -3.349   1.715  24.380  0.00  0.00    -0.297 NA
ATOM      5  C   UNL     1      -1.080   2.045  23.885  0.00  0.00    +0.070 C 
ATOM      6  C   UNL     1      -1.913   2.179  22.598  0.00  0.00    +0.028 C 
ATOM      7  C   UNL     1      -2.022   1.362  24.887  0.00  0.00    +0.096 C 
ATOM      8  C   UNL     1      -3.257   1.544  22.931  0.00  0.00    +0.085 C 
ENDROOT
BRANCH   5   9
ATOM      3  N   UNL     1       1.411   1.996  23.584  0.00  0.00    -0.342 N 
ATOM      4  N   UNL     1       0.410   0.014  23.685  0.00  0.00    -0.232 NA
ATOM      9  C   UNL     1       0.233   1.316  23.720  0.00  0.00    +0.113 A 
ATOM     11  C   UNL     1       2.416   1.071  23.455  0.00  0.00    +0.066 A 
ATOM     13  C   UNL     1       1.765  -0.158  23.520  0.00  0.00    +0.089 A 
ATOM     14  C   UNL     1       3.795   1.200  23.290  0.00  0.00    +0.031 A 
ATOM     15  C   UNL     1       2.520  -1.338  23.417  0.00  0.00    +0.030 A 
ATOM     17  C   UNL     1       4.531   0.015  23.189  0.00  0.00    -0.048 A 
ATOM     18  C   UNL     1       3.907  -1.233  23.251  0.00  0.00    +0.005 A 
ATOM     21  C   UNL     1       6.012   0.088  23.012  0.00  0.00    +0.044 C 
ATOM     22  H   UNL     1       1.525   3.001  23.581  0.00  0.00    +0.167 HD
ENDBRANCH   5   9
BRANCH   2  10
ATOM     10  C   UNL     1      -4.403   0.902  24.969  0.00  0.00    +0.126 C 
BRANCH  10  12
ATOM      1  S   UNL     1      -3.268  -1.371  26.099  0.00  0.00    -0.100 S 
ATOM     12  C   UNL     1      -4.112  -0.569  24.844  0.00  0.00    +0.004 A 
ATOM     16  C   UNL     1      -4.438  -1.423  23.813  0.00  0.00    +0.012 A 
ATOM     19  C   UNL     1      -3.989  -2.753  24.057  0.00  0.00    +0.008 A 
ATOM     20  C   UNL     1      -3.337  -2.865  25.265  0.00  0.00    +0.045 A 
ENDBRANCH  10  12
ENDBRANCH   2  10
TORSDOF 3
ENDMDL
MODEL 5
REMARK VINA RESULT:      -1.4      2.623      7.575
REMARK  Name = 45784220
REMARK  4 active torsions:
REMARK  status: ('A' for Active; 'I' for Inactive)
REMARK    1  A    between atoms: N_2  and  C_10
REMARK    2  A    between atoms: C_5  and  C_9
REMARK    3  A    between atoms: C_10  and  C_12
REMARK    4  A    between atoms: C_17  and  C_21
REMARK                            x       y       z     vdW  Elec       q    Type
REMARK                         _______ _______ _______ _____ _____    ______ ____
ROOT
ATOM      2  N   UNL     1      -3.035  -0.035  24.565  0.00  0.00    -0.297 NA
ATOM      5  C   UNL     1      -1.014  -0.808  23.660  0.00  0.00    +0.070 C 
ATOM      6  C   UNL     1      -1.351  -1.610  24.930  0.00  0.00    +0.028 C 
ATOM      7  C   UNL     1      -1.926   0.425  23.728  0.00  0.00    +0.096 C 
ATOM      8  C   UNL     1      -2.403  -0.780  25.653  0.00  0.00    +0.085 C 
ENDROOT
BRANCH   5   9
ATOM      3  N   UNL     1       1.433  -1.336  23.842  0.00  0.00    -0.342 N 
ATOM      4  N   UNL     1       0.934   0.678  23.043  0.00  0.00    -0.232 NA
ATOM      9  C   UNL     1       0.446  -0.454  23.501  0.00  0.00    +0.113 A 
ATOM     11  C   UNL     1       2.639  -0.734  23.586  0.00  0.00    +0.066 A 
ATOM     13  C   UNL     1       2.301   0.521  23.089  0.00  0.00    +0.089 A 
ATOM     14  C   UNL     1       3.955  -1.167  23.744  0.00  0.00    +0.031 A 
ATOM     15  C   UNL     1       3.324   1.411  22.721  0.00  0.00    +0.030 A 
ATOM     17  C   UNL     1       4.962  -0.269  23.373  0.00  0.00    -0.048 A 
ATOM     18  C   UNL     1       4.655   0.997  22.871  0.00  0.00    +0.005 A 
ATOM     21  C   UNL     1       6.392  -0.675  23.517  0.00  0.00    +0.044 C 
ATOM     22  H   UNL     1       1.301  -2.266  24.216  0.00  0.00    +0.167 HD
ENDBRANCH   5   9
BRANCH   2  10
ATOM     10  C   UNL     1      -3.858   1.063  25.050  0.00  0.00    +0.126 C 
BRANCH  10  12
ATOM      1  S   UNL     1      -3.755   3.785  24.486  0.00  0.00    -0.100 S 
ATOM     12  C   UNL     1      -3.082   2.350  25.134  0.00  0.00    +0.004 A 
ATOM     16  C   UNL     1      -1.837   2.566  25.684  0.00  0.00    +0.012 A 
ATOM     19  C   UNL     1      -1.432   3.927  25.572  0.00  0.00    +0.008 A 
ATOM     20  C   UNL     1      -2.381   4.700  24.941  0.00  0.00    +0.045 A 
ENDBRANCH  10  12
ENDBRANCH   2  10
TORSDOF 3
ENDMDL
MODEL 6
REMARK VINA RESULT:      -0.9      1.167      1.886
REMARK  Name = 45784220
REMARK  4 active torsions:
REMARK  status: ('A' for Active; 'I' for Inactive)
REMARK    1  A    between atoms: N_2  and  C_10
REMARK    2  A    between atoms: C_5  and  C_9
REMARK    3  A    between atoms: C_10  and  C_12
REMARK    4  A    between atoms: C_17  and  C_21
REMARK                            x       y       z     vdW  Elec       q    Type
REMARK                         _______ _______ _______ _____ _____    ______ ____
ROOT
ATOM      2  N   UNL     1       1.392  -0.449  23.035  0.00  0.00    -0.297 NA
ATOM      5  C   UNL     1      -0.447   0.025  24.411  0.00  0.00    +0.070 C 
ATOM      6  C   UNL     1      -0.901  -0.848  23.228  0.00  0.00    +0.028 C 
ATOM      7  C   UNL     1       0.932   0.556  23.995  0.00  0.00    +0.096 C 
ATOM      8  C   UNL     1       0.223  -0.742  22.206  0.00  0.00    +0.085 C 
ENDROOT
BRANCH   5   9
ATOM      3  N   UNL     1      -2.747   1.026  24.522  0.00  0.00    -0.342 N 
ATOM      4  N   UNL     1      -1.114   2.253  25.402  0.00  0.00    -0.232 NA
ATOM      9  C   UNL     1      -1.410   1.125  24.794  0.00  0.00    +0.113 A 
ATOM     11  C   UNL     1      -3.353   2.166  24.986  0.00  0.00    +0.066 A 
ATOM     13  C   UNL     1      -2.314   2.915  25.530  0.00  0.00    +0.089 A 
ATOM     14  C   UNL     1      -4.681   2.592  24.975  0.00  0.00    +0.031 A 
ATOM     15  C   UNL     1      -2.598   4.166  26.102  0.00  0.00    +0.030 A 
ATOM     17  C   UNL     1      -4.947   3.840  25.548  0.00  0.00    -0.048 A 
ATOM     18  C   UNL     1      -3.925   4.615  26.102  0.00  0.00    +0.005 A 
ATOM     21  C   UNL     1      -6.350   4.352  25.568  0.00  0.00    +0.044 C 
ATOM     22  H   UNL     1      -3.208   0.253  24.062  0.00  0.00    +0.167 HD
ENDBRANCH   5   9
BRANCH   2  10
ATOM     10  C   UNL     1       2.528   0.011  22.251  0.00  0.00    +0.126 C 
BRANCH  10  12
ATOM      1  S   UNL     1       4.950   1.135  23.029  0.00  0.00    -0.100 S 
ATOM     12  C   UNL     1       3.827  -0.156  22.993  0.00  0.00    +0.004 A 
ATOM     16  C   UNL     1       4.280  -1.255  23.691  0.00  0.00    +0.012 A 
ATOM     19  C   UNL     1       5.567  -1.032  24.261  0.00  0.00    +0.008 A 
ATOM     20  C   UNL     1       6.047   0.227  23.978  0.00  0.00    +0.045 A 
ENDBRANCH  10  12
ENDBRANCH   2  10
TORSDOF 3
ENDMDL
MODEL 7
REMARK VINA RESULT:      -0.4      3.311      6.613
REMARK  Name = 45784220
REMARK  4 active torsions:
REMARK  status: ('A' for Active; 'I' for Inactive)
REMARK    1  A    between atoms: N_2  and  C_10
REMARK    2  A    between atoms: C_5  and  C_9
REMARK    3  A    between atoms: C_10  and  C_12
REMARK    4  A    between atoms: C_17  and  C_21
REMARK                            x       y       z     vdW  Elec       q    Type
REMARK                         _______ _______ _______ _____ _____    ______ ____
ROOT
ATOM      2  N   UNL     1      -0.460   3.828  25.313  0.00  0.00    -0.297 NA
ATOM      5  C   UNL     1      -0.258   1.492  25.252  0.00  0.00    +0.070 C 
ATOM      6  C   UNL     1       0.500   2.106  24.062  0.00  0.00    +0.028 C 
ATOM      7  C   UNL     1      -1.160   2.624  25.762  0.00  0.00    +0.096 C 
ATOM      8  C   UNL     1      -0.033   3.528  23.947  0.00  0.00    +0.085 C 
ENDROOT
BRANCH   5   9
ATOM      3  N   UNL     1      -2.333   0.265  24.556  0.00  0.00    -0.342 N 
ATOM      4  N   UNL     1      -0.557  -1.002  24.980  0.00  0.00    -0.232 NA
ATOM      9  C   UNL     1      -1.020   0.227  24.936  0.00  0.00    +0.113 A 
ATOM     11  C   UNL     1      -2.744  -1.026  24.340  0.00  0.00    +0.066 A 
ATOM     13  C   UNL     1      -1.617  -1.798  24.611  0.00  0.00    +0.089 A 
ATOM     14  C   UNL     1      -3.967  -1.568  23.943  0.00  0.00    +0.031 A 
ATOM     15  C   UNL     1      -1.698  -3.194  24.484  0.00  0.00    +0.030 A 
ATOM     17  C   UNL     1      -4.029  -2.960  23.822  0.00  0.00    -0.048 A 
ATOM     18  C   UNL     1      -2.916  -3.761  24.087  0.00  0.00    +0.005 A 
ATOM     21  C   UNL     1      -5.311  -3.600  23.399  0.00  0.00    +0.044 C 
ATOM     22  H   UNL     1      -2.903   1.094  24.452  0.00  0.00    +0.167 HD
ENDBRANCH   5   9
BRANCH   2  10
ATOM     10  C   UNL     1      -1.296   5.017  25.385  0.00  0.00    +0.126 C 
BRANCH  10  12
ATOM      1  S   UNL     1      -3.598   4.229  24.038  0.00  0.00    -0.100 S 
ATOM     12  C   UNL     1      -2.759   4.670  25.463  0.00  0.00    +0.004 A 
ATOM     16  C   UNL     1      -3.577   4.652  26.572  0.00  0.00    +0.012 A 
ATOM     19  C   UNL     1      -4.910   4.271  26.246  0.00  0.00    +0.008 A 
ATOM     20  C   UNL     1      -5.061   4.012  24.902  0.00  0.00    +0.045 A 
ENDBRANCH  10  12
ENDBRANCH   2  10
TORSDOF 3
ENDMDL
