MODEL 1
REMARK VINA RESULT:      10.5      0.000      0.000
REMARK  Name = 24148473
REMARK  12 active torsions:
REMARK  status: ('A' for Active; 'I' for Inactive)
REMARK    1  A    between atoms: S_3  and  C_26
REMARK    2  A    between atoms: S_3  and  C_29
REMARK    3  A    between atoms: O_4  and  C_12
REMARK    4  A    between atoms: N_9  and  C_27
REMARK    5  A    between atoms: N_9  and  C_28
REMARK    6  A    between atoms: C_10  and  C_18
REMARK    7  A    between atoms: C_13  and  C_19
REMARK    8  A    between atoms: C_15  and  C_22
REMARK    9  A    between atoms: C_19  and  C_23
REMARK   10  A    between atoms: C_19  and  C_24
REMARK   11  A    between atoms: C_25  and  C_26
REMARK   12  A    between atoms: C_27  and  C_30
REMARK                            x       y       z     vdW  Elec       q    Type
REMARK                         _______ _______ _______ _____ _____    ______ ____
ROOT
ATOM      2  S   UNL     1      -4.747  -0.014  26.042  0.00  0.00    -0.075 S 
ATOM      8  N   UNL     1      -4.024   1.481  24.060  0.00  0.00    -0.247 NA
ATOM     10  C   UNL     1      -1.097  -1.497  24.860  0.00  0.00    -0.022 C 
ATOM     11  C   UNL     1      -0.536  -0.127  24.309  0.00  0.00    +0.033 C 
ATOM     12  C   UNL     1       0.727  -0.346  23.428  0.00  0.00    +0.123 C 
ATOM     13  C   UNL     1       1.806  -1.199  24.130  0.00  0.00    +0.029 C 
ATOM     14  C   UNL     1       0.036  -2.277  25.567  0.00  0.00    +0.008 C 
ATOM     15  C   UNL     1      -1.660   0.730  23.596  0.00  0.00    +0.042 C 
ATOM     16  C   UNL     1       1.247  -2.513  24.675  0.00  0.00    +0.007 C 
ATOM     17  C   UNL     1      -2.208  -1.224  25.922  0.00  0.00    +0.051 C 
ATOM     18  C   UNL     1      -1.688  -2.380  23.730  0.00  0.00    +0.012 C 
ATOM     20  C   UNL     1      -2.949   0.670  24.380  0.00  0.00    +0.055 A 
ATOM     21  C   UNL     1      -3.178  -0.218  25.412  0.00  0.00    +0.014 A 
ATOM     22  C   UNL     1      -1.255   2.193  23.366  0.00  0.00    +0.014 C 
ATOM     25  C   UNL     1      -5.020   1.216  24.876  0.00  0.00    +0.100 A 
ENDROOT
BRANCH  12   4
ATOM      4  O   UNL     1       1.319   0.918  23.127  0.00  0.00    -0.391 OA
ATOM     37  H   UNL     1       0.680   1.614  23.362  0.00  0.00    +0.210 HD
ENDBRANCH  12   4
BRANCH  13  19
ATOM     19  C   UNL     1       2.994  -1.490  23.206  0.00  0.00    +0.078 C 
ATOM     23  C   UNL     1       4.205  -1.888  24.048  0.00  0.00    +0.017 C 
BRANCH  19  24
ATOM      5  O   UNL     1       2.793  -0.130  21.242  0.00  0.00    -0.275 OA
ATOM      9  N   UNL     1       4.266   0.643  22.851  0.00  0.00    -0.301 N 
ATOM     24  C   UNL     1       3.330  -0.266  22.347  0.00  0.00    +0.219 C 
ATOM     28  C   UNL     1       4.632   1.805  22.048  0.00  0.00    +0.132 C 
BRANCH   9  27
ATOM     27  C   UNL     1       4.919   0.574  24.157  0.00  0.00    +0.134 C 
BRANCH  27  30
ATOM     30  C   UNL     1       6.398   0.522  23.960  0.00  0.00    -0.016 C 
ATOM     33  C   UNL     1       7.019  -0.400  23.215  0.00  0.00    +0.005 C 
ENDBRANCH  27  30
ENDBRANCH   9  27
ENDBRANCH  19  24
ENDBRANCH  13  19
BRANCH  25  26
ATOM     26  C   UNL     1      -6.332   1.897  24.843  0.00  0.00    +0.234 C 
BRANCH  26   3
ATOM      3  S   UNL     1      -6.220   3.370  25.817  0.00  0.00    +0.003 S 
ATOM      6  O   UNL     1      -6.322   3.006  27.219  0.00  0.00    -0.169 OA
ATOM      7  O   UNL     1      -7.127   4.347  25.243  0.00  0.00    -0.169 OA
BRANCH   3  29
ATOM      1 CL   UNL     1      -0.348   5.369  24.855  0.00  0.00    -0.084 Cl
ATOM     29  C   UNL     1      -4.567   3.933  25.547  0.00  0.00    +0.089 A 
ATOM     31  C   UNL     1      -4.237   4.579  24.356  0.00  0.00    +0.028 A 
ATOM     32  C   UNL     1      -3.593   3.730  26.524  0.00  0.00    +0.028 A 
ATOM     34  C   UNL     1      -2.932   5.023  24.142  0.00  0.00    +0.022 A 
ATOM     35  C   UNL     1      -2.288   4.175  26.311  0.00  0.00    +0.022 A 
ATOM     36  C   UNL     1      -1.957   4.821  25.119  0.00  0.00    +0.041 A 
ENDBRANCH   3  29
ENDBRANCH  26   3
ENDBRANCH  25  26
TORSDOF 8
ENDMDL
MODEL 2
REMARK VINA RESULT:      13.1      1.466      2.414
REMARK  Name = 24148473
REMARK  12 active torsions:
REMARK  status: ('A' for Active; 'I' for Inactive)
REMARK    1  A    between atoms: S_3  and  C_26
REMARK    2  A    between atoms: S_3  and  C_29
REMARK    3  A    between atoms: O_4  and  C_12
REMARK    4  A    between atoms: N_9  and  C_27
REMARK    5  A    between atoms: N_9  and  C_28
REMARK    6  A    between atoms: C_10  and  C_18
REMARK    7  A    between atoms: C_13  and  C_19
REMARK    8  A    between atoms: C_15  and  C_22
REMARK    9  A    between atoms: C_19  and  C_23
REMARK   10  A    between atoms: C_19  and  C_24
REMARK   11  A    between atoms: C_25  and  C_26
REMARK   12  A    between atoms: C_27  and  C_30
REMARK                            x       y       z     vdW  Elec       q    Type
REMARK                         _______ _______ _______ _____ _____    ______ ____
ROOT
ATOM      2  S   UNL     1      -4.091   0.742  23.545  0.00  0.00    -0.075 S 
ATOM      8  N   UNL     1      -3.059  -0.168  25.733  0.00  0.00    -0.247 NA
ATOM     10  C   UNL     1      -0.060   0.452  22.785  0.00  0.00    -0.022 C 
ATOM     11  C   UNL     1       0.208  -0.745  23.782  0.00  0.00    +0.033 C 
ATOM     12  C   UNL     1       1.728  -0.925  24.055  0.00  0.00    +0.123 C 
ATOM     13  C   UNL     1       2.561  -1.025  22.759  0.00  0.00    +0.029 C 
ATOM     14  C   UNL     1       0.792   0.264  21.507  0.00  0.00    +0.008 C 
ATOM     15  C   UNL     1      -0.659  -0.621  25.102  0.00  0.00    +0.042 C 
ATOM     16  C   UNL     1       2.281   0.127  21.795  0.00  0.00    +0.007 C 
ATOM     17  C   UNL     1      -1.558   0.452  22.351  0.00  0.00    +0.051 C 
ATOM     18  C   UNL     1       0.280   1.825  23.420  0.00  0.00    +0.012 C 
ATOM     20  C   UNL     1      -2.063  -0.174  24.773  0.00  0.00    +0.055 A 
ATOM     21  C   UNL     1      -2.444   0.312  23.538  0.00  0.00    +0.014 A 
ATOM     22  C   UNL     1      -0.701  -1.917  25.924  0.00  0.00    +0.014 C 
ATOM     25  C   UNL     1      -4.171   0.284  25.197  0.00  0.00    +0.100 A 
ENDROOT
BRANCH  12   4
ATOM      4  O   UNL     1       1.938  -2.134  24.785  0.00  0.00    -0.391 OA
ATOM     37  H   UNL     1       2.364  -2.775  24.191  0.00  0.00    +0.210 HD
ENDBRANCH  12   4
BRANCH  13  19
ATOM     19  C   UNL     1       4.064  -1.096  23.051  0.00  0.00    +0.078 C 
ATOM     23  C   UNL     1       4.319  -2.122  24.154  0.00  0.00    +0.017 C 
BRANCH  19  24
ATOM      5  O   UNL     1       3.850   1.255  23.469  0.00  0.00    -0.275 OA
ATOM      9  N   UNL     1       5.953   0.361  23.828  0.00  0.00    -0.301 N 
ATOM     24  C   UNL     1       4.603   0.275  23.474  0.00  0.00    +0.219 C 
ATOM     28  C   UNL     1       6.508   1.655  24.209  0.00  0.00    +0.132 C 
BRANCH   9  27
ATOM     27  C   UNL     1       6.900  -0.751  23.893  0.00  0.00    +0.134 C 
BRANCH  27  30
ATOM     30  C   UNL     1       7.965  -0.546  22.867  0.00  0.00    -0.016 C 
ATOM     33  C   UNL     1       9.196  -0.104  23.148  0.00  0.00    +0.005 C 
ENDBRANCH  27  30
ENDBRANCH   9  27
ENDBRANCH  19  24
ENDBRANCH  13  19
BRANCH  25  26
ATOM     26  C   UNL     1      -5.454   0.420  25.920  0.00  0.00    +0.234 C 
BRANCH  26   3
ATOM      3  S   UNL     1      -6.013   2.089  25.752  0.00  0.00    +0.003 S 
ATOM      6  O   UNL     1      -6.551   2.528  27.028  0.00  0.00    -0.169 OA
ATOM      7  O   UNL     1      -6.824   2.163  24.549  0.00  0.00    -0.169 OA
BRANCH   3  29
ATOM      1 CL   UNL     1      -0.746   5.352  24.748  0.00  0.00    -0.084 Cl
ATOM     29  C   UNL     1      -4.531   3.009  25.469  0.00  0.00    +0.089 A 
ATOM     31  C   UNL     1      -4.229   3.468  24.188  0.00  0.00    +0.028 A 
ATOM     32  C   UNL     1      -3.662   3.273  26.528  0.00  0.00    +0.028 A 
ATOM     34  C   UNL     1      -3.059   4.193  23.965  0.00  0.00    +0.022 A 
ATOM     35  C   UNL     1      -2.492   3.998  26.305  0.00  0.00    +0.022 A 
ATOM     36  C   UNL     1      -2.189   4.458  25.023  0.00  0.00    +0.041 A 
ENDBRANCH   3  29
ENDBRANCH  26   3
ENDBRANCH  25  26
TORSDOF 8
ENDMDL
MODEL 3
REMARK VINA RESULT:      13.6      1.583      2.573
REMARK  Name = 24148473
REMARK  12 active torsions:
REMARK  status: ('A' for Active; 'I' for Inactive)
REMARK    1  A    between atoms: S_3  and  C_26
REMARK    2  A    between atoms: S_3  and  C_29
REMARK    3  A    between atoms: O_4  and  C_12
REMARK    4  A    between atoms: N_9  and  C_27
REMARK    5  A    between atoms: N_9  and  C_28
REMARK    6  A    between atoms: C_10  and  C_18
REMARK    7  A    between atoms: C_13  and  C_19
REMARK    8  A    between atoms: C_15  and  C_22
REMARK    9  A    between atoms: C_19  and  C_23
REMARK   10  A    between atoms: C_19  and  C_24
REMARK   11  A    between atoms: C_25  and  C_26
REMARK   12  A    between atoms: C_27  and  C_30
REMARK                            x       y       z     vdW  Elec       q    Type
REMARK                         _______ _______ _______ _____ _____    ______ ____
ROOT
ATOM      2  S   UNL     1      -4.155  -1.035  24.521  0.00  0.00    -0.075 S 
ATOM      8  N   UNL     1      -3.328   1.139  25.648  0.00  0.00    -0.247 NA
ATOM     10  C   UNL     1      -0.468  -0.303  22.853  0.00  0.00    -0.022 C 
ATOM     11  C   UNL     1       0.130   0.450  24.106  0.00  0.00    +0.033 C 
ATOM     12  C   UNL     1       1.431   1.219  23.737  0.00  0.00    +0.123 C 
ATOM     13  C   UNL     1       2.468   0.329  23.019  0.00  0.00    +0.029 C 
ATOM     14  C   UNL     1       0.625  -1.188  22.208  0.00  0.00    +0.008 C 
ATOM     15  C   UNL     1      -0.952   1.354  24.826  0.00  0.00    +0.042 C 
ATOM     16  C   UNL     1       1.874  -0.409  21.819  0.00  0.00    +0.007 C 
ATOM     17  C   UNL     1      -1.624  -1.248  23.308  0.00  0.00    +0.051 C 
ATOM     18  C   UNL     1      -1.013   0.682  21.787  0.00  0.00    +0.012 C 
ATOM     20  C   UNL     1      -2.277   0.633  24.904  0.00  0.00    +0.055 A 
ATOM     21  C   UNL     1      -2.561  -0.525  24.210  0.00  0.00    +0.014 A 
ATOM     22  C   UNL     1      -0.524   1.815  26.227  0.00  0.00    +0.014 C 
ATOM     25  C   UNL     1      -4.364   0.338  25.529  0.00  0.00    +0.100 A 
ENDROOT
BRANCH  12   4
ATOM      4  O   UNL     1       2.047   1.707  24.928  0.00  0.00    -0.391 OA
ATOM     37  H   UNL     1       3.011   1.636  24.820  0.00  0.00    +0.210 HD
ENDBRANCH  12   4
BRANCH  13  19
ATOM     19  C   UNL     1       3.696   1.131  22.570  0.00  0.00    +0.078 C 
ATOM     23  C   UNL     1       4.014   0.799  21.113  0.00  0.00    +0.017 C 
BRANCH  19  24
ATOM      5  O   UNL     1       5.576   1.746  23.924  0.00  0.00    -0.275 OA
ATOM      9  N   UNL     1       5.219  -0.526  23.677  0.00  0.00    -0.301 N 
ATOM     24  C   UNL     1       4.906   0.818  23.456  0.00  0.00    +0.219 C 
ATOM     28  C   UNL     1       6.381  -0.862  24.493  0.00  0.00    +0.132 C 
BRANCH   9  27
ATOM     27  C   UNL     1       4.462  -1.679  23.191  0.00  0.00    +0.134 C 
BRANCH  27  30
ATOM     30  C   UNL     1       3.914  -2.430  24.360  0.00  0.00    -0.016 C 
ATOM     33  C   UNL     1       2.627  -2.407  24.724  0.00  0.00    +0.005 C 
ENDBRANCH  27  30
ENDBRANCH   9  27
ENDBRANCH  19  24
ENDBRANCH  13  19
BRANCH  25  26
ATOM     26  C   UNL     1      -5.667   0.551  26.195  0.00  0.00    +0.234 C 
BRANCH  26   3
ATOM      3  S   UNL     1      -6.296   2.128  25.698  0.00  0.00    +0.003 S 
ATOM      6  O   UNL     1      -7.016   2.712  26.815  0.00  0.00    -0.169 OA
ATOM      7  O   UNL     1      -6.949   1.955  24.412  0.00  0.00    -0.169 OA
BRANCH   3  29
ATOM      1 CL   UNL     1      -1.143   5.601  24.809  0.00  0.00    -0.084 Cl
ATOM     29  C   UNL     1      -4.845   3.105  25.448  0.00  0.00    +0.089 A 
ATOM     31  C   UNL     1      -4.172   3.647  26.542  0.00  0.00    +0.028 A 
ATOM     32  C   UNL     1      -4.374   3.335  24.155  0.00  0.00    +0.028 A 
ATOM     34  C   UNL     1      -3.027   4.419  26.344  0.00  0.00    +0.022 A 
ATOM     35  C   UNL     1      -3.229   4.107  23.957  0.00  0.00    +0.022 A 
ATOM     36  C   UNL     1      -2.555   4.649  25.052  0.00  0.00    +0.041 A 
ENDBRANCH   3  29
ENDBRANCH  26   3
ENDBRANCH  25  26
TORSDOF 8
ENDMDL
