MODEL 1
REMARK VINA RESULT:      -6.0      0.000      0.000
REMARK  Name = 75367086
REMARK  6 active torsions:
REMARK  status: ('A' for Active; 'I' for Inactive)
REMARK    1  A    between atoms: O_3  and  C_12
REMARK    2  A    between atoms: N_5  and  C_7
REMARK    3  A    between atoms: N_5  and  C_8
REMARK    4  A    between atoms: N_6  and  C_15
REMARK    5  A    between atoms: C_13  and  C_15
REMARK    6  A    between atoms: C_16  and  C_17
REMARK                            x       y       z     vdW  Elec       q    Type
REMARK                         _______ _______ _______ _____ _____    ______ ____
ROOT
ATOM      2  O   UNL     1      -1.369  -2.044  23.559  0.00  0.00    -0.371 OA
ATOM      8  C   UNL     1       0.097  -0.547  24.678  0.00  0.00    +0.111 C 
ATOM     12  C   UNL     1      -1.182  -0.680  25.483  0.00  0.00    +0.164 C 
ATOM     13  C   UNL     1      -1.727  -1.998  24.951  0.00  0.00    +0.165 C 
ATOM     14  C   UNL     1      -0.348  -1.059  23.318  0.00  0.00    +0.181 C 
ENDROOT
BRANCH  12   3
ATOM      3  O   UNL     1      -0.949  -0.730  26.877  0.00  0.00    -0.388 OA
ATOM     24  H   UNL     1      -0.866  -1.663  27.139  0.00  0.00    +0.210 HD
ENDBRANCH  12   3
BRANCH   8   5
ATOM      5  N   UNL     1       0.616   0.811  24.629  0.00  0.00    -0.306 NA
ATOM     23  H   UNL     1       1.061   0.950  23.721  0.00  0.00    +0.123 HD
BRANCH   5   7
ATOM      7  C   UNL     1      -0.463   1.755  24.882  0.00  0.00    +0.054 C 
ATOM      9  C   UNL     1      -0.262   3.007  24.001  0.00  0.00    +0.019 C 
ATOM     10  C   UNL     1      -0.094   2.639  26.093  0.00  0.00    +0.019 C 
ATOM     11  C   UNL     1      -0.596   3.839  25.259  0.00  0.00    +0.003 C 
ENDBRANCH   5   7
ENDBRANCH   8   5
BRANCH  13  15
ATOM     15  C   UNL     1      -3.233  -2.128  25.096  0.00  0.00    +0.138 C 
BRANCH  15   6
ATOM      4  O   UNL     1      -3.635  -0.053  23.152  0.00  0.00    -0.270 OA
ATOM      6  N   UNL     1      -3.848  -0.852  25.320  0.00  0.00    -0.309 N 
ATOM     16  C   UNL     1      -4.002   0.097  24.314  0.00  0.00    +0.244 C 
ATOM     25  H   UNL     1      -4.110  -0.635  26.276  0.00  0.00    +0.149 HD
BRANCH  16  17
ATOM      1  F   UNL     1      -6.396   4.946  25.825  0.00  0.00    -0.205 F 
ATOM     17  C   UNL     1      -4.636   1.380  24.715  0.00  0.00    +0.037 A 
ATOM     18  C   UNL     1      -4.061   2.591  24.329  0.00  0.00    +0.016 A 
ATOM     19  C   UNL     1      -5.805   1.373  25.474  0.00  0.00    +0.016 A 
ATOM     20  C   UNL     1      -4.655   3.796  24.704  0.00  0.00    +0.039 A 
ATOM     21  C   UNL     1      -6.400   2.579  25.850  0.00  0.00    +0.039 A 
ATOM     22  C   UNL     1      -5.824   3.789  25.464  0.00  0.00    +0.123 A 
ENDBRANCH  16  17
ENDBRANCH  15   6
ENDBRANCH  13  15
TORSDOF 6
ENDMDL
MODEL 2
REMARK VINA RESULT:      -5.7      2.869      5.279
REMARK  Name = 75367086
REMARK  6 active torsions:
REMARK  status: ('A' for Active; 'I' for Inactive)
REMARK    1  A    between atoms: O_3  and  C_12
REMARK    2  A    between atoms: N_5  and  C_7
REMARK    3  A    between atoms: N_5  and  C_8
REMARK    4  A    between atoms: N_6  and  C_15
REMARK    5  A    between atoms: C_13  and  C_15
REMARK    6  A    between atoms: C_16  and  C_17
REMARK                            x       y       z     vdW  Elec       q    Type
REMARK                         _______ _______ _______ _____ _____    ______ ____
ROOT
ATOM      2  O   UNL     1      -0.431   4.196  23.976  0.00  0.00    -0.371 OA
ATOM      8  C   UNL     1      -1.759   4.184  25.946  0.00  0.00    +0.111 C 
ATOM     12  C   UNL     1      -0.998   2.875  25.854  0.00  0.00    +0.164 C 
ATOM     13  C   UNL     1       0.132   3.258  24.909  0.00  0.00    +0.165 C 
ATOM     14  C   UNL     1      -1.674   4.682  24.512  0.00  0.00    +0.181 C 
ENDROOT
BRANCH  12   3
ATOM      3  O   UNL     1      -0.511   2.437  27.108  0.00  0.00    -0.388 OA
ATOM     24  H   UNL     1       0.379   2.066  26.976  0.00  0.00    +0.210 HD
ENDBRANCH  12   3
BRANCH   8   5
ATOM      5  N   UNL     1      -3.128   4.032  26.412  0.00  0.00    -0.306 NA
ATOM     23  H   UNL     1      -3.421   4.914  26.833  0.00  0.00    +0.123 HD
BRANCH   5   7
ATOM      7  C   UNL     1      -3.977   3.622  25.304  0.00  0.00    +0.054 C 
ATOM      9  C   UNL     1      -5.455   3.883  25.671  0.00  0.00    +0.019 C 
ATOM     10  C   UNL     1      -4.289   2.116  25.430  0.00  0.00    +0.019 C 
ATOM     11  C   UNL     1      -5.753   2.479  25.098  0.00  0.00    +0.003 C 
ENDBRANCH   5   7
ENDBRANCH   8   5
BRANCH  13  15
ATOM     15  C   UNL     1       0.712   2.073  24.156  0.00  0.00    +0.138 C 
BRANCH  15   6
ATOM      4  O   UNL     1      -1.834   1.594  22.917  0.00  0.00    -0.270 OA
ATOM      6  N   UNL     1      -0.108   0.906  24.306  0.00  0.00    -0.309 N 
ATOM     16  C   UNL     1      -1.334   0.759  23.665  0.00  0.00    +0.244 C 
ATOM     25  H   UNL     1       0.214   0.207  24.967  0.00  0.00    +0.149 HD
BRANCH  16  17
ATOM      1  F   UNL     1      -4.131  -3.993  24.724  0.00  0.00    -0.205 F 
ATOM     17  C   UNL     1      -2.074  -0.499  23.946  0.00  0.00    +0.037 A 
ATOM     18  C   UNL     1      -3.452  -0.556  23.742  0.00  0.00    +0.016 A 
ATOM     19  C   UNL     1      -1.390  -1.622  24.412  0.00  0.00    +0.016 A 
ATOM     20  C   UNL     1      -4.148  -1.737  24.005  0.00  0.00    +0.039 A 
ATOM     21  C   UNL     1      -2.085  -2.802  24.676  0.00  0.00    +0.039 A 
ATOM     22  C   UNL     1      -3.464  -2.859  24.472  0.00  0.00    +0.123 A 
ENDBRANCH  16  17
ENDBRANCH  15   6
ENDBRANCH  13  15
TORSDOF 6
ENDMDL
MODEL 3
REMARK VINA RESULT:      -4.7     14.012     16.403
REMARK  Name = 75367086
REMARK  6 active torsions:
REMARK  status: ('A' for Active; 'I' for Inactive)
REMARK    1  A    between atoms: O_3  and  C_12
REMARK    2  A    between atoms: N_5  and  C_7
REMARK    3  A    between atoms: N_5  and  C_8
REMARK    4  A    between atoms: N_6  and  C_15
REMARK    5  A    between atoms: C_13  and  C_15
REMARK    6  A    between atoms: C_16  and  C_17
REMARK                            x       y       z     vdW  Elec       q    Type
REMARK                         _______ _______ _______ _____ _____    ______ ____
ROOT
ATOM      2  O   UNL     1      -5.543 -10.732  18.448  0.00  0.00    -0.371 OA
ATOM      8  C   UNL     1      -7.579  -9.747  17.724  0.00  0.00    +0.111 C 
ATOM     12  C   UNL     1      -6.573  -9.692  16.590  0.00  0.00    +0.164 C 
ATOM     13  C   UNL     1      -5.596 -10.781  17.012  0.00  0.00    +0.165 C 
ATOM     14  C   UNL     1      -6.671  -9.975  18.922  0.00  0.00    +0.181 C 
ENDROOT
BRANCH  12   3
ATOM      3  O   UNL     1      -7.153  -9.965  15.329  0.00  0.00    -0.388 OA
ATOM     24  H   UNL     1      -8.041 -10.335  15.476  0.00  0.00    +0.210 HD
ENDBRANCH  12   3
BRANCH   8   5
ATOM      5  N   UNL     1      -8.385  -8.542  17.847  0.00  0.00    -0.306 NA
ATOM     23  H   UNL     1      -7.951  -7.809  17.284  0.00  0.00    +0.123 HD
BRANCH   5   7
ATOM      7  C   UNL     1      -9.754  -8.829  17.444  0.00  0.00    +0.054 C 
ATOM      9  C   UNL     1      -9.783 -10.148  16.642  0.00  0.00    +0.019 C 
ATOM     10  C   UNL     1     -10.059  -8.101  16.118  0.00  0.00    +0.019 C 
ATOM     11  C   UNL     1     -10.713  -9.420  15.645  0.00  0.00    +0.003 C 
ENDBRANCH   5   7
ENDBRANCH   8   5
BRANCH  13  15
ATOM     15  C   UNL     1      -4.201 -10.591  16.441  0.00  0.00    +0.138 C 
BRANCH  15   6
ATOM      4  O   UNL     1      -1.984 -10.781  14.627  0.00  0.00    -0.270 OA
ATOM      6  N   UNL     1      -4.240 -10.413  15.018  0.00  0.00    -0.309 N 
ATOM     16  C   UNL     1      -3.110 -10.523  14.214  0.00  0.00    +0.244 C 
ATOM     25  H   UNL     1      -5.129 -10.127  14.621  0.00  0.00    +0.149 HD
BRANCH  16  17
ATOM      1  F   UNL     1      -3.885  -9.615   8.727  0.00  0.00    -0.205 F 
ATOM     17  C   UNL     1      -3.314 -10.283  12.761  0.00  0.00    +0.037 A 
ATOM     18  C   UNL     1      -4.602 -10.317  12.225  0.00  0.00    +0.016 A 
ATOM     19  C   UNL     1      -2.221 -10.024  11.936  0.00  0.00    +0.016 A 
ATOM     20  C   UNL     1      -4.795 -10.091  10.862  0.00  0.00    +0.039 A 
ATOM     21  C   UNL     1      -2.414  -9.799  10.573  0.00  0.00    +0.039 A 
ATOM     22  C   UNL     1      -3.701  -9.832  10.036  0.00  0.00    +0.123 A 
ENDBRANCH  16  17
ENDBRANCH  15   6
ENDBRANCH  13  15
TORSDOF 6
ENDMDL
MODEL 4
REMARK VINA RESULT:      -4.5      4.082      6.909
REMARK  Name = 75367086
REMARK  6 active torsions:
REMARK  status: ('A' for Active; 'I' for Inactive)
REMARK    1  A    between atoms: O_3  and  C_12
REMARK    2  A    between atoms: N_5  and  C_7
REMARK    3  A    between atoms: N_5  and  C_8
REMARK    4  A    between atoms: N_6  and  C_15
REMARK    5  A    between atoms: C_13  and  C_15
REMARK    6  A    between atoms: C_16  and  C_17
REMARK                            x       y       z     vdW  Elec       q    Type
REMARK                         _______ _______ _______ _____ _____    ______ ____
ROOT
ATOM      2  O   UNL     1      -0.641   0.801  25.416  0.00  0.00    -0.371 OA
ATOM      8  C   UNL     1      -2.654   1.818  24.671  0.00  0.00    +0.111 C 
ATOM     12  C   UNL     1      -2.554   0.427  24.074  0.00  0.00    +0.164 C 
ATOM     13  C   UNL     1      -1.566  -0.230  25.029  0.00  0.00    +0.165 C 
ATOM     14  C   UNL     1      -1.212   2.077  25.077  0.00  0.00    +0.181 C 
ENDROOT
BRANCH  12   3
ATOM      3  O   UNL     1      -3.795  -0.250  24.053  0.00  0.00    -0.388 OA
ATOM     24  H   UNL     1      -3.896  -0.730  24.893  0.00  0.00    +0.210 HD
ENDBRANCH  12   3
BRANCH   8   5
ATOM      5  N   UNL     1      -3.168   2.814  23.744  0.00  0.00    -0.306 NA
ATOM     23  H   UNL     1      -3.330   2.360  22.845  0.00  0.00    +0.123 HD
BRANCH   5   7
ATOM      7  C   UNL     1      -4.370   3.421  24.298  0.00  0.00    +0.054 C 
ATOM      9  C   UNL     1      -4.175   3.645  25.813  0.00  0.00    +0.019 C 
ATOM     10  C   UNL     1      -5.377   2.311  24.667  0.00  0.00    +0.019 C 
ATOM     11  C   UNL     1      -5.599   3.073  25.992  0.00  0.00    +0.003 C 
ENDBRANCH   5   7
ENDBRANCH   8   5
BRANCH  13  15
ATOM     15  C   UNL     1      -0.809  -1.389  24.405  0.00  0.00    +0.138 C 
BRANCH  15   6
ATOM      4  O   UNL     1       0.566  -0.231  22.166  0.00  0.00    -0.270 OA
ATOM      6  N   UNL     1       0.595  -1.107  24.313  0.00  0.00    -0.309 N 
ATOM     16  C   UNL     1       1.178  -0.542  23.183  0.00  0.00    +0.244 C 
ATOM     25  H   UNL     1       1.170  -1.406  25.095  0.00  0.00    +0.149 HD
BRANCH  16  17
ATOM      1  F   UNL     1       6.735   0.237  23.390  0.00  0.00    -0.205 F 
ATOM     17  C   UNL     1       2.649  -0.337  23.238  0.00  0.00    +0.037 A 
ATOM     18  C   UNL     1       3.202   0.861  22.787  0.00  0.00    +0.016 A 
ATOM     19  C   UNL     1       3.476  -1.341  23.741  0.00  0.00    +0.016 A 
ATOM     20  C   UNL     1       4.582   1.056  22.838  0.00  0.00    +0.039 A 
ATOM     21  C   UNL     1       4.856  -1.147  23.792  0.00  0.00    +0.039 A 
ATOM     22  C   UNL     1       5.409   0.051  23.341  0.00  0.00    +0.123 A 
ENDBRANCH  16  17
ENDBRANCH  15   6
ENDBRANCH  13  15
TORSDOF 6
ENDMDL
MODEL 5
REMARK VINA RESULT:      -4.4      3.021      5.265
REMARK  Name = 75367086
REMARK  6 active torsions:
REMARK  status: ('A' for Active; 'I' for Inactive)
REMARK    1  A    between atoms: O_3  and  C_12
REMARK    2  A    between atoms: N_5  and  C_7
REMARK    3  A    between atoms: N_5  and  C_8
REMARK    4  A    between atoms: N_6  and  C_15
REMARK    5  A    between atoms: C_13  and  C_15
REMARK    6  A    between atoms: C_16  and  C_17
REMARK                            x       y       z     vdW  Elec       q    Type
REMARK                         _______ _______ _______ _____ _____    ______ ____
ROOT
ATOM      2  O   UNL     1      -4.906   3.530  26.759  0.00  0.00    -0.371 OA
ATOM      8  C   UNL     1      -3.159   4.632  25.585  0.00  0.00    +0.111 C 
ATOM     12  C   UNL     1      -3.884   3.700  24.632  0.00  0.00    +0.164 C 
ATOM     13  C   UNL     1      -5.212   3.518  25.354  0.00  0.00    +0.165 C 
ATOM     14  C   UNL     1      -3.586   4.075  26.934  0.00  0.00    +0.181 C 
ENDROOT
BRANCH  12   3
ATOM      3  O   UNL     1      -4.057   4.260  23.345  0.00  0.00    -0.388 OA
ATOM     24  H   UNL     1      -4.406   3.569  22.756  0.00  0.00    +0.210 HD
ENDBRANCH  12   3
BRANCH   8   5
ATOM      5  N   UNL     1      -1.716   4.640  25.408  0.00  0.00    -0.306 NA
ATOM     23  H   UNL     1      -1.288   4.942  26.284  0.00  0.00    +0.123 HD
BRANCH   5   7
ATOM      7  C   UNL     1      -1.270   3.320  24.985  0.00  0.00    +0.054 C 
ATOM      9  C   UNL     1      -0.234   2.784  25.997  0.00  0.00    +0.019 C 
ATOM     10  C   UNL     1      -0.104   3.473  23.985  0.00  0.00    +0.019 C 
ATOM     11  C   UNL     1       0.606   2.350  24.775  0.00  0.00    +0.003 C 
ENDBRANCH   5   7
ENDBRANCH   8   5
BRANCH  13  15
ATOM     15  C   UNL     1      -5.918   2.222  24.995  0.00  0.00    +0.138 C 
BRANCH  15   6
ATOM      4  O   UNL     1      -3.823   1.476  23.179  0.00  0.00    -0.270 OA
ATOM      6  N   UNL     1      -5.037   1.096  25.118  0.00  0.00    -0.309 N 
ATOM     16  C   UNL     1      -4.046   0.810  24.185  0.00  0.00    +0.244 C 
ATOM     25  H   UNL     1      -5.215   0.464  25.891  0.00  0.00    +0.149 HD
BRANCH  16  17
ATOM      1  F   UNL     1      -0.977  -3.789  25.167  0.00  0.00    -0.205 F 
ATOM     17  C   UNL     1      -3.234  -0.408  24.444  0.00  0.00    +0.037 A 
ATOM     18  C   UNL     1      -1.878  -0.288  24.750  0.00  0.00    +0.016 A 
ATOM     19  C   UNL     1      -3.828  -1.668  24.383  0.00  0.00    +0.016 A 
ATOM     20  C   UNL     1      -1.115  -1.430  24.994  0.00  0.00    +0.039 A 
ATOM     21  C   UNL     1      -3.065  -2.811  24.627  0.00  0.00    +0.039 A 
ATOM     22  C   UNL     1      -1.709  -2.691  24.932  0.00  0.00    +0.123 A 
ENDBRANCH  16  17
ENDBRANCH  15   6
ENDBRANCH  13  15
TORSDOF 6
ENDMDL
MODEL 6
REMARK VINA RESULT:      -3.8      1.477      2.288
REMARK  Name = 75367086
REMARK  6 active torsions:
REMARK  status: ('A' for Active; 'I' for Inactive)
REMARK    1  A    between atoms: O_3  and  C_12
REMARK    2  A    between atoms: N_5  and  C_7
REMARK    3  A    between atoms: N_5  and  C_8
REMARK    4  A    between atoms: N_6  and  C_15
REMARK    5  A    between atoms: C_13  and  C_15
REMARK    6  A    between atoms: C_16  and  C_17
REMARK                            x       y       z     vdW  Elec       q    Type
REMARK                         _______ _______ _______ _____ _____    ______ ____
ROOT
ATOM      2  O   UNL     1      -1.535  -2.507  23.755  0.00  0.00    -0.371 OA
ATOM      8  C   UNL     1       0.071  -0.872  24.381  0.00  0.00    +0.111 C 
ATOM     12  C   UNL     1      -1.123  -0.775  25.312  0.00  0.00    +0.164 C 
ATOM     13  C   UNL     1      -1.749  -2.151  25.132  0.00  0.00    +0.165 C 
ATOM     14  C   UNL     1      -0.522  -1.642  23.211  0.00  0.00    +0.181 C 
ENDROOT
BRANCH  12   3
ATOM      3  O   UNL     1      -0.750  -0.538  26.656  0.00  0.00    -0.388 OA
ATOM     24  H   UNL     1      -0.609   0.418  26.769  0.00  0.00    +0.210 HD
ENDBRANCH  12   3
BRANCH   8   5
ATOM      5  N   UNL     1       0.613   0.420  23.991  0.00  0.00    -0.306 NA
ATOM     23  H   UNL     1       1.037   0.850  24.814  0.00  0.00    +0.123 HD
BRANCH   5   7
ATOM      7  C   UNL     1       1.555   0.242  22.895  0.00  0.00    +0.054 C 
ATOM      9  C   UNL     1       2.687  -0.706  23.346  0.00  0.00    +0.019 C 
ATOM     10  C   UNL     1       2.596   1.381  22.927  0.00  0.00    +0.019 C 
ATOM     11  C   UNL     1       3.666   0.293  22.689  0.00  0.00    +0.003 C 
ENDBRANCH   5   7
ENDBRANCH   8   5
BRANCH  13  15
ATOM     15  C   UNL     1      -3.235  -2.180  25.444  0.00  0.00    +0.138 C 
BRANCH  15   6
ATOM      4  O   UNL     1      -3.901  -0.354  23.330  0.00  0.00    -0.270 OA
ATOM      6  N   UNL     1      -3.764  -0.855  25.591  0.00  0.00    -0.309 N 
ATOM     16  C   UNL     1      -4.059  -0.036  24.505  0.00  0.00    +0.244 C 
ATOM     25  H   UNL     1      -3.852  -0.504  26.539  0.00  0.00    +0.149 HD
BRANCH  16  17
ATOM      1  F   UNL     1      -6.016   5.082  25.728  0.00  0.00    -0.205 F 
ATOM     17  C   UNL     1      -4.576   1.319  24.828  0.00  0.00    +0.037 A 
ATOM     18  C   UNL     1      -5.794   1.458  25.493  0.00  0.00    +0.016 A 
ATOM     19  C   UNL     1      -3.844   2.450  24.468  0.00  0.00    +0.016 A 
ATOM     20  C   UNL     1      -6.281   2.730  25.797  0.00  0.00    +0.039 A 
ATOM     21  C   UNL     1      -4.331   3.722  24.771  0.00  0.00    +0.039 A 
ATOM     22  C   UNL     1      -5.549   3.861  25.436  0.00  0.00    +0.123 A 
ENDBRANCH  16  17
ENDBRANCH  15   6
ENDBRANCH  13  15
TORSDOF 6
ENDMDL
MODEL 7
REMARK VINA RESULT:      -3.6      3.048      5.592
REMARK  Name = 75367086
REMARK  6 active torsions:
REMARK  status: ('A' for Active; 'I' for Inactive)
REMARK    1  A    between atoms: O_3  and  C_12
REMARK    2  A    between atoms: N_5  and  C_7
REMARK    3  A    between atoms: N_5  and  C_8
REMARK    4  A    between atoms: N_6  and  C_15
REMARK    5  A    between atoms: C_13  and  C_15
REMARK    6  A    between atoms: C_16  and  C_17
REMARK                            x       y       z     vdW  Elec       q    Type
REMARK                         _______ _______ _______ _____ _____    ______ ____
ROOT
ATOM      2  O   UNL     1      -5.621   1.198  25.868  0.00  0.00    -0.371 OA
ATOM      8  C   UNL     1      -4.951   3.340  25.092  0.00  0.00    +0.111 C 
ATOM     12  C   UNL     1      -4.200   2.275  24.314  0.00  0.00    +0.164 C 
ATOM     13  C   UNL     1      -5.096   1.064  24.537  0.00  0.00    +0.165 C 
ATOM     14  C   UNL     1      -5.419   2.553  26.306  0.00  0.00    +0.181 C 
ENDROOT
BRANCH  12   3
ATOM      3  O   UNL     1      -4.071   2.590  22.941  0.00  0.00    -0.388 OA
ATOM     24  H   UNL     1      -3.124   2.680  22.737  0.00  0.00    +0.210 HD
ENDBRANCH  12   3
BRANCH   8   5
ATOM      5  N   UNL     1      -4.133   4.490  25.444  0.00  0.00    -0.306 NA
ATOM     23  H   UNL     1      -4.081   4.545  26.462  0.00  0.00    +0.123 HD
BRANCH   5   7
ATOM      7  C   UNL     1      -2.826   4.369  24.815  0.00  0.00    +0.054 C 
ATOM      9  C   UNL     1      -1.850   3.685  25.797  0.00  0.00    +0.019 C 
ATOM     10  C   UNL     1      -2.027   5.670  25.044  0.00  0.00    +0.019 C 
ATOM     11  C   UNL     1      -0.823   4.767  25.395  0.00  0.00    +0.003 C 
ENDBRANCH   5   7
ENDBRANCH   8   5
BRANCH  13  15
ATOM     15  C   UNL     1      -4.361  -0.258  24.406  0.00  0.00    +0.138 C 
BRANCH  15   6
ATOM      4  O   UNL     1      -1.981  -0.450  26.003  0.00  0.00    -0.270 OA
ATOM      6  N   UNL     1      -3.011  -0.064  23.961  0.00  0.00    -0.309 N 
ATOM     16  C   UNL     1      -1.913  -0.177  24.808  0.00  0.00    +0.244 C 
ATOM     25  H   UNL     1      -2.890   0.235  22.999  0.00  0.00    +0.149 HD
BRANCH  16  17
ATOM      1  F   UNL     1       3.111   0.799  22.500  0.00  0.00    -0.205 F 
ATOM     17  C   UNL     1      -0.584   0.081  24.196  0.00  0.00    +0.037 A 
ATOM     18  C   UNL     1       0.046   1.310  24.393  0.00  0.00    +0.016 A 
ATOM     19  C   UNL     1       0.034  -0.905  23.428  0.00  0.00    +0.016 A 
ATOM     20  C   UNL     1       1.294   1.553  23.820  0.00  0.00    +0.039 A 
ATOM     21  C   UNL     1       1.282  -0.662  22.854  0.00  0.00    +0.039 A 
ATOM     22  C   UNL     1       1.912   0.567  23.051  0.00  0.00    +0.123 A 
ENDBRANCH  16  17
ENDBRANCH  15   6
ENDBRANCH  13  15
TORSDOF 6
ENDMDL
MODEL 8
REMARK VINA RESULT:      -3.6      1.580      3.852
REMARK  Name = 75367086
REMARK  6 active torsions:
REMARK  status: ('A' for Active; 'I' for Inactive)
REMARK    1  A    between atoms: O_3  and  C_12
REMARK    2  A    between atoms: N_5  and  C_7
REMARK    3  A    between atoms: N_5  and  C_8
REMARK    4  A    between atoms: N_6  and  C_15
REMARK    5  A    between atoms: C_13  and  C_15
REMARK    6  A    between atoms: C_16  and  C_17
REMARK                            x       y       z     vdW  Elec       q    Type
REMARK                         _______ _______ _______ _____ _____    ______ ____
ROOT
ATOM      2  O   UNL     1      -0.332   0.669  25.944  0.00  0.00    -0.371 OA
ATOM      8  C   UNL     1      -0.378  -1.368  24.722  0.00  0.00    +0.111 C 
ATOM     12  C   UNL     1      -0.147  -0.219  23.759  0.00  0.00    +0.164 C 
ATOM     13  C   UNL     1       0.371   0.856  24.704  0.00  0.00    +0.165 C 
ATOM     14  C   UNL     1      -0.934  -0.638  25.935  0.00  0.00    +0.181 C 
ENDROOT
BRANCH  12   3
ATOM      3  O   UNL     1       0.793  -0.531  22.750  0.00  0.00    -0.388 OA
ATOM     24  H   UNL     1       0.830  -1.499  22.656  0.00  0.00    +0.210 HD
ENDBRANCH  12   3
BRANCH   8   5
ATOM      5  N   UNL     1      -1.282  -2.386  24.211  0.00  0.00    -0.306 NA
ATOM     23  H   UNL     1      -0.907  -3.301  24.461  0.00  0.00    +0.123 HD
BRANCH   5   7
ATOM      7  C   UNL     1      -2.620  -2.158  24.737  0.00  0.00    +0.054 C 
ATOM      9  C   UNL     1      -3.563  -3.272  24.233  0.00  0.00    +0.019 C 
ATOM     10  C   UNL     1      -3.379  -1.194  23.800  0.00  0.00    +0.019 C 
ATOM     11  C   UNL     1      -4.584  -2.152  23.933  0.00  0.00    +0.003 C 
ENDBRANCH   5   7
ENDBRANCH   8   5
BRANCH  13  15
ATOM     15  C   UNL     1       0.140   2.267  24.193  0.00  0.00    +0.138 C 
BRANCH  15   6
ATOM      4  O   UNL     1      -2.369   1.777  22.885  0.00  0.00    -0.270 OA
ATOM      6  N   UNL     1      -1.146   2.763  24.591  0.00  0.00    -0.309 N 
ATOM     16  C   UNL     1      -2.314   2.474  23.894  0.00  0.00    +0.244 C 
ATOM     25  H   UNL     1      -1.161   3.404  25.378  0.00  0.00    +0.149 HD
BRANCH  16  17
ATOM      1  F   UNL     1      -7.026   4.784  25.891  0.00  0.00    -0.205 F 
ATOM     17  C   UNL     1      -3.561   3.086  24.422  0.00  0.00    +0.037 A 
ATOM     18  C   UNL     1      -4.638   2.274  24.779  0.00  0.00    +0.016 A 
ATOM     19  C   UNL     1      -3.654   4.470  24.562  0.00  0.00    +0.016 A 
ATOM     20  C   UNL     1      -5.809   2.847  25.276  0.00  0.00    +0.039 A 
ATOM     21  C   UNL     1      -4.825   5.044  25.058  0.00  0.00    +0.039 A 
ATOM     22  C   UNL     1      -5.902   4.232  25.415  0.00  0.00    +0.123 A 
ENDBRANCH  16  17
ENDBRANCH  15   6
ENDBRANCH  13  15
TORSDOF 6
ENDMDL
MODEL 9
REMARK VINA RESULT:      -3.3      4.153      6.780
REMARK  Name = 75367086
REMARK  6 active torsions:
REMARK  status: ('A' for Active; 'I' for Inactive)
REMARK    1  A    between atoms: O_3  and  C_12
REMARK    2  A    between atoms: N_5  and  C_7
REMARK    3  A    between atoms: N_5  and  C_8
REMARK    4  A    between atoms: N_6  and  C_15
REMARK    5  A    between atoms: C_13  and  C_15
REMARK    6  A    between atoms: C_16  and  C_17
REMARK                            x       y       z     vdW  Elec       q    Type
REMARK                         _______ _______ _______ _____ _____    ______ ____
ROOT
ATOM      2  O   UNL     1      -0.766   0.106  25.727  0.00  0.00    -0.371 OA
ATOM      8  C   UNL     1      -2.532   1.649  25.352  0.00  0.00    +0.111 C 
ATOM     12  C   UNL     1      -2.399   0.746  24.140  0.00  0.00    +0.164 C 
ATOM     13  C   UNL     1      -1.656  -0.440  24.739  0.00  0.00    +0.165 C 
ATOM     14  C   UNL     1      -1.184   1.450  26.026  0.00  0.00    +0.181 C 
ENDROOT
BRANCH  12   3
ATOM      3  O   UNL     1      -3.650   0.366  23.601  0.00  0.00    -0.388 OA
ATOM     24  H   UNL     1      -3.505  -0.367  22.979  0.00  0.00    +0.210 HD
ENDBRANCH  12   3
BRANCH   8   5
ATOM      5  N   UNL     1      -2.797   3.040  25.016  0.00  0.00    -0.306 NA
ATOM     23  H   UNL     1      -3.689   3.305  25.436  0.00  0.00    +0.123 HD
BRANCH   5   7
ATOM      7  C   UNL     1      -1.689   3.869  25.467  0.00  0.00    +0.054 C 
ATOM      9  C   UNL     1      -2.055   5.357  25.276  0.00  0.00    +0.019 C 
ATOM     10  C   UNL     1      -0.681   4.045  24.311  0.00  0.00    +0.019 C 
ATOM     11  C   UNL     1      -0.636   5.542  24.694  0.00  0.00    +0.003 C 
ENDBRANCH   5   7
ENDBRANCH   8   5
BRANCH  13  15
ATOM     15  C   UNL     1      -0.861  -1.230  23.715  0.00  0.00    +0.138 C 
BRANCH  15   6
ATOM      4  O   UNL     1       0.890  -0.316  21.631  0.00  0.00    -0.270 OA
ATOM      6  N   UNL     1       0.545  -0.969  23.830  0.00  0.00    -0.309 N 
ATOM     16  C   UNL     1       1.319  -0.526  22.761  0.00  0.00    +0.244 C 
ATOM     25  H   UNL     1       0.976  -1.190  24.721  0.00  0.00    +0.149 HD
BRANCH  16  17
ATOM      1  F   UNL     1       6.784   0.223  23.809  0.00  0.00    -0.205 F 
ATOM     17  C   UNL     1       2.765  -0.326  23.039  0.00  0.00    +0.037 A 
ATOM     18  C   UNL     1       3.502  -1.340  23.651  0.00  0.00    +0.016 A 
ATOM     19  C   UNL     1       3.385   0.872  22.686  0.00  0.00    +0.016 A 
ATOM     20  C   UNL     1       4.860  -1.155  23.912  0.00  0.00    +0.039 A 
ATOM     21  C   UNL     1       4.743   1.058  22.947  0.00  0.00    +0.039 A 
ATOM     22  C   UNL     1       5.480   0.044  23.560  0.00  0.00    +0.123 A 
ENDBRANCH  16  17
ENDBRANCH  15   6
ENDBRANCH  13  15
TORSDOF 6
ENDMDL
MODEL 10
REMARK VINA RESULT:      -2.9      1.662      4.331
REMARK  Name = 75367086
REMARK  6 active torsions:
REMARK  status: ('A' for Active; 'I' for Inactive)
REMARK    1  A    between atoms: O_3  and  C_12
REMARK    2  A    between atoms: N_5  and  C_7
REMARK    3  A    between atoms: N_5  and  C_8
REMARK    4  A    between atoms: N_6  and  C_15
REMARK    5  A    between atoms: C_13  and  C_15
REMARK    6  A    between atoms: C_16  and  C_17
REMARK                            x       y       z     vdW  Elec       q    Type
REMARK                         _______ _______ _______ _____ _____    ______ ____
ROOT
ATOM      2  O   UNL     1      -1.919  -2.274  25.052  0.00  0.00    -0.371 OA
ATOM      8  C   UNL     1      -3.990  -1.418  24.265  0.00  0.00    +0.111 C 
ATOM     12  C   UNL     1      -2.864  -0.547  23.741  0.00  0.00    +0.164 C 
ATOM     13  C   UNL     1      -1.678  -1.493  23.870  0.00  0.00    +0.165 C 
ATOM     14  C   UNL     1      -3.304  -2.137  25.416  0.00  0.00    +0.181 C 
ENDROOT
BRANCH  12   3
ATOM      3  O   UNL     1      -3.068  -0.136  22.403  0.00  0.00    -0.388 OA
ATOM     24  H   UNL     1      -3.726  -0.728  21.999  0.00  0.00    +0.210 HD
ENDBRANCH  12   3
BRANCH   8   5
ATOM      5  N   UNL     1      -5.162  -0.666  24.687  0.00  0.00    -0.306 NA
ATOM     23  H   UNL     1      -5.711  -1.255  25.314  0.00  0.00    +0.123 HD
BRANCH   5   7
ATOM      7  C   UNL     1      -4.742   0.583  25.305  0.00  0.00    +0.054 C 
ATOM      9  C   UNL     1      -5.922   1.178  26.103  0.00  0.00    +0.019 C 
ATOM     10  C   UNL     1      -4.935   1.739  24.300  0.00  0.00    +0.019 C 
ATOM     11  C   UNL     1      -5.551   2.538  25.471  0.00  0.00    +0.003 C 
ENDBRANCH   5   7
ENDBRANCH   8   5
BRANCH  13  15
ATOM     15  C   UNL     1      -0.347  -0.773  23.994  0.00  0.00    +0.138 C 
BRANCH  15   6
ATOM      4  O   UNL     1      -1.073   0.700  26.350  0.00  0.00    -0.270 OA
ATOM      6  N   UNL     1      -0.528   0.646  24.096  0.00  0.00    -0.309 N 
ATOM     16  C   UNL     1      -0.882   1.278  25.284  0.00  0.00    +0.244 C 
ATOM     25  H   UNL     1      -0.455   1.176  23.233  0.00  0.00    +0.149 HD
BRANCH  16  17
ATOM      1  F   UNL     1      -1.539   6.848  25.022  0.00  0.00    -0.205 F 
ATOM     17  C   UNL     1      -1.057   2.752  25.216  0.00  0.00    +0.037 A 
ATOM     18  C   UNL     1      -0.178   3.522  24.453  0.00  0.00    +0.016 A 
ATOM     19  C   UNL     1      -2.097   3.365  25.912  0.00  0.00    +0.016 A 
ATOM     20  C   UNL     1      -0.341   4.906  24.387  0.00  0.00    +0.039 A 
ATOM     21  C   UNL     1      -2.260   4.750  25.847  0.00  0.00    +0.039 A 
ATOM     22  C   UNL     1      -1.381   5.519  25.084  0.00  0.00    +0.123 A 
ENDBRANCH  16  17
ENDBRANCH  15   6
ENDBRANCH  13  15
TORSDOF 6
ENDMDL
