MODEL 1
REMARK VINA RESULT:      -4.1      0.000      0.000
REMARK  Name = 45783400
REMARK  8 active torsions:
REMARK  status: ('A' for Active; 'I' for Inactive)
REMARK    1  A    between atoms: O_2  and  C_24
REMARK    2  A    between atoms: O_2  and  C_25
REMARK    3  A    between atoms: N_3  and  C_11
REMARK    4  A    between atoms: N_6  and  C_22
REMARK    5  A    between atoms: C_8  and  C_11
REMARK    6  A    between atoms: C_12  and  C_16
REMARK    7  A    between atoms: C_17  and  C_18
REMARK    8  A    between atoms: C_22  and  C_24
REMARK                            x       y       z     vdW  Elec       q    Type
REMARK                         _______ _______ _______ _____ _____    ______ ____
ROOT
ATOM      1  O   UNL     1      -6.464  -8.114   9.397  0.00  0.00    -0.336 OA
ATOM      4  N   UNL     1      -6.328 -10.004  10.592  0.00  0.00    -0.190 NA
ATOM      5  N   UNL     1      -5.174  -8.138   9.943  0.00  0.00    -0.056 NA
ATOM     16  C   UNL     1      -7.076  -9.248   9.828  0.00  0.00    +0.245 A 
ATOM     17  C   UNL     1      -5.170  -9.282  10.634  0.00  0.00    +0.205 A 
ENDROOT
BRANCH  17  18
ATOM      6  N   UNL     1      -5.400 -10.288  13.280  0.00  0.00    -0.326 N 
ATOM      7  N   UNL     1      -3.065 -10.654  13.392  0.00  0.00    -0.240 NA
ATOM     18  C   UNL     1      -4.029  -9.731  11.376  0.00  0.00    +0.062 A 
ATOM     19  C   UNL     1      -4.123 -10.224  12.668  0.00  0.00    +0.130 A 
ATOM     20  C   UNL     1      -2.768  -9.675  10.790  0.00  0.00    +0.016 A 
ATOM     21  C   UNL     1      -1.657 -10.108  11.504  0.00  0.00    +0.020 A 
ATOM     23  C   UNL     1      -1.856 -10.585  12.790  0.00  0.00    +0.113 A 
ATOM     26  H   UNL     1      -6.194 -10.330  12.650  0.00  0.00    +0.148 HD
BRANCH   6  22
ATOM     22  C   UNL     1      -5.595 -10.781  14.604  0.00  0.00    +0.131 C 
BRANCH  22  24
ATOM     24  C   UNL     1      -5.843  -9.625  15.558  0.00  0.00    +0.178 C 
BRANCH  24   2
ATOM      2  O   UNL     1      -5.491 -10.018  16.880  0.00  0.00    -0.381 OA
ATOM     25  C   UNL     1      -4.247 -10.702  16.906  0.00  0.00    +0.194 C 
ENDBRANCH  24   2
ENDBRANCH  22  24
ENDBRANCH   6  22
ENDBRANCH  17  18
BRANCH  16  12
ATOM      3  N   UNL     1      -9.484  -9.270  10.453  0.00  0.00    -0.291 NA
ATOM     12  C   UNL     1      -8.502  -9.463   9.368  0.00  0.00    +0.146 C 
ATOM     13  C   UNL     1     -10.718  -8.807   9.818  0.00  0.00    +0.085 C 
ATOM     14  C   UNL     1      -8.930  -8.469   8.272  0.00  0.00    +0.030 C 
ATOM     15  C   UNL     1     -10.193  -7.808   8.806  0.00  0.00    +0.017 C 
BRANCH   3  11
ATOM     11  C   UNL     1      -9.697 -10.468  11.255  0.00  0.00    +0.088 C 
BRANCH  11   8
ATOM      8  C   UNL     1     -10.587 -10.190  12.422  0.00  0.00    +0.003 C 
ATOM      9  C   UNL     1     -10.098  -9.290  13.520  0.00  0.00    +0.005 C 
ATOM     10  C   UNL     1     -10.237 -10.764  13.764  0.00  0.00    +0.005 C 
ENDBRANCH  11   8
ENDBRANCH   3  11
ENDBRANCH  16  12
TORSDOF 7
ENDMDL
MODEL 2
REMARK VINA RESULT:      -1.6     15.875     18.351
REMARK  Name = 45783400
REMARK  8 active torsions:
REMARK  status: ('A' for Active; 'I' for Inactive)
REMARK    1  A    between atoms: O_2  and  C_24
REMARK    2  A    between atoms: O_2  and  C_25
REMARK    3  A    between atoms: N_3  and  C_11
REMARK    4  A    between atoms: N_6  and  C_22
REMARK    5  A    between atoms: C_8  and  C_11
REMARK    6  A    between atoms: C_12  and  C_16
REMARK    7  A    between atoms: C_17  and  C_18
REMARK    8  A    between atoms: C_22  and  C_24
REMARK                            x       y       z     vdW  Elec       q    Type
REMARK                         _______ _______ _______ _____ _____    ______ ____
ROOT
ATOM      1  O   UNL     1      -3.721  -1.339  23.909  0.00  0.00    -0.336 OA
ATOM      4  N   UNL     1      -2.665   0.491  24.654  0.00  0.00    -0.190 NA
ATOM      5  N   UNL     1      -4.718  -0.389  24.161  0.00  0.00    -0.056 NA
ATOM     16  C   UNL     1      -2.543  -0.740  24.226  0.00  0.00    +0.245 A 
ATOM     17  C   UNL     1      -4.018   0.662  24.597  0.00  0.00    +0.205 A 
ENDROOT
BRANCH  17  18
ATOM      6  N   UNL     1      -2.623   3.136  24.518  0.00  0.00    -0.326 N 
ATOM      7  N   UNL     1      -4.531   4.288  25.310  0.00  0.00    -0.240 NA
ATOM     18  C   UNL     1      -4.638   1.895  24.983  0.00  0.00    +0.062 A 
ATOM     19  C   UNL     1      -3.973   3.111  24.951  0.00  0.00    +0.130 A 
ATOM     20  C   UNL     1      -5.962   1.889  25.411  0.00  0.00    +0.016 A 
ATOM     21  C   UNL     1      -6.571   3.081  25.788  0.00  0.00    +0.020 A 
ATOM     23  C   UNL     1      -5.819   4.243  25.720  0.00  0.00    +0.113 A 
ATOM     26  H   UNL     1      -2.334   2.369  23.918  0.00  0.00    +0.148 HD
BRANCH   6  22
ATOM     22  C   UNL     1      -1.858   4.337  24.451  0.00  0.00    +0.131 C 
BRANCH  22  24
ATOM     24  C   UNL     1      -0.421   4.062  24.859  0.00  0.00    +0.178 C 
BRANCH  24   2
ATOM      2  O   UNL     1      -0.256   2.670  25.105  0.00  0.00    -0.381 OA
ATOM     25  C   UNL     1       0.144   2.423  26.445  0.00  0.00    +0.194 C 
ENDBRANCH  24   2
ENDBRANCH  22  24
ENDBRANCH   6  22
ENDBRANCH  17  18
BRANCH  16  12
ATOM      3  N   UNL     1      -0.061  -0.832  24.389  0.00  0.00    -0.291 NA
ATOM     12  C   UNL     1      -1.290  -1.570  24.039  0.00  0.00    +0.146 C 
ATOM     13  C   UNL     1       0.905  -1.831  24.848  0.00  0.00    +0.085 C 
ATOM     14  C   UNL     1      -1.266  -2.821  24.937  0.00  0.00    +0.030 C 
ATOM     15  C   UNL     1       0.041  -2.728  25.712  0.00  0.00    +0.017 C 
BRANCH   3  11
ATOM     11  C   UNL     1       0.460  -0.029  23.291  0.00  0.00    +0.088 C 
BRANCH  11   8
ATOM      8  C   UNL     1       1.904  -0.319  23.043  0.00  0.00    +0.003 C 
ATOM      9  C   UNL     1       2.870   0.822  22.907  0.00  0.00    +0.005 C 
ATOM     10  C   UNL     1       2.499   0.006  21.704  0.00  0.00    +0.005 C 
ENDBRANCH  11   8
ENDBRANCH   3  11
ENDBRANCH  16  12
TORSDOF 7
ENDMDL
MODEL 3
REMARK VINA RESULT:      -1.4     15.220     17.702
REMARK  Name = 45783400
REMARK  8 active torsions:
REMARK  status: ('A' for Active; 'I' for Inactive)
REMARK    1  A    between atoms: O_2  and  C_24
REMARK    2  A    between atoms: O_2  and  C_25
REMARK    3  A    between atoms: N_3  and  C_11
REMARK    4  A    between atoms: N_6  and  C_22
REMARK    5  A    between atoms: C_8  and  C_11
REMARK    6  A    between atoms: C_12  and  C_16
REMARK    7  A    between atoms: C_17  and  C_18
REMARK    8  A    between atoms: C_22  and  C_24
REMARK                            x       y       z     vdW  Elec       q    Type
REMARK                         _______ _______ _______ _____ _____    ______ ____
ROOT
ATOM      1  O   UNL     1      -0.611   3.408  25.861  0.00  0.00    -0.336 OA
ATOM      4  N   UNL     1      -1.021   2.386  23.910  0.00  0.00    -0.190 NA
ATOM      5  N   UNL     1       0.523   2.637  25.579  0.00  0.00    -0.056 NA
ATOM     16  C   UNL     1      -1.471   3.203  24.828  0.00  0.00    +0.245 A 
ATOM     17  C   UNL     1       0.206   2.065  24.413  0.00  0.00    +0.205 A 
ENDROOT
BRANCH  17  18
ATOM      6  N   UNL     1      -0.486  -0.646  23.924  0.00  0.00    -0.326 N 
ATOM      7  N   UNL     1       1.582  -1.026  22.840  0.00  0.00    -0.240 NA
ATOM     18  C   UNL     1       1.090   1.168  23.729  0.00  0.00    +0.062 A 
ATOM     19  C   UNL     1       0.769  -0.157  23.482  0.00  0.00    +0.130 A 
ATOM     20  C   UNL     1       2.326   1.631  23.288  0.00  0.00    +0.016 A 
ATOM     21  C   UNL     1       3.189   0.767  22.623  0.00  0.00    +0.020 A 
ATOM     23  C   UNL     1       2.774  -0.540  22.426  0.00  0.00    +0.113 A 
ATOM     26  H   UNL     1      -1.214   0.049  24.054  0.00  0.00    +0.148 HD
BRANCH   6  22
ATOM     22  C   UNL     1      -0.905  -1.993  23.716  0.00  0.00    +0.131 C 
BRANCH  22  24
ATOM     24  C   UNL     1      -1.185  -2.663  25.050  0.00  0.00    +0.178 C 
BRANCH  24   2
ATOM      2  O   UNL     1      -2.579  -2.597  25.330  0.00  0.00    -0.381 OA
ATOM     25  C   UNL     1      -3.339  -3.298  24.357  0.00  0.00    +0.194 C 
ENDBRANCH  24   2
ENDBRANCH  22  24
ENDBRANCH   6  22
ENDBRANCH  17  18
BRANCH  16  12
ATOM      3  N   UNL     1      -3.925   3.043  25.210  0.00  0.00    -0.291 NA
ATOM     12  C   UNL     1      -2.793   3.937  24.895  0.00  0.00    +0.146 C 
ATOM     13  C   UNL     1      -4.913   3.859  25.916  0.00  0.00    +0.085 C 
ATOM     14  C   UNL     1      -2.823   5.011  25.999  0.00  0.00    +0.030 C 
ATOM     15  C   UNL     1      -4.039   4.671  26.850  0.00  0.00    +0.017 C 
BRANCH   3  11
ATOM     11  C   UNL     1      -4.489   2.394  24.034  0.00  0.00    +0.088 C 
BRANCH  11   8
ATOM      8  C   UNL     1      -4.921   0.997  24.339  0.00  0.00    +0.003 C 
ATOM      9  C   UNL     1      -4.134   0.184  25.325  0.00  0.00    +0.005 C 
ATOM     10  C   UNL     1      -4.079  -0.152  23.864  0.00  0.00    +0.005 C 
ENDBRANCH  11   8
ENDBRANCH   3  11
ENDBRANCH  16  12
TORSDOF 7
ENDMDL
MODEL 4
REMARK VINA RESULT:      -1.4      1.611      2.109
REMARK  Name = 45783400
REMARK  8 active torsions:
REMARK  status: ('A' for Active; 'I' for Inactive)
REMARK    1  A    between atoms: O_2  and  C_24
REMARK    2  A    between atoms: O_2  and  C_25
REMARK    3  A    between atoms: N_3  and  C_11
REMARK    4  A    between atoms: N_6  and  C_22
REMARK    5  A    between atoms: C_8  and  C_11
REMARK    6  A    between atoms: C_12  and  C_16
REMARK    7  A    between atoms: C_17  and  C_18
REMARK    8  A    between atoms: C_22  and  C_24
REMARK                            x       y       z     vdW  Elec       q    Type
REMARK                         _______ _______ _______ _____ _____    ______ ____
ROOT
ATOM      1  O   UNL     1      -6.198  -6.323   9.902  0.00  0.00    -0.336 OA
ATOM      4  N   UNL     1      -6.021  -8.501   9.409  0.00  0.00    -0.190 NA
ATOM      5  N   UNL     1      -5.154  -6.818  10.693  0.00  0.00    -0.056 NA
ATOM     16  C   UNL     1      -6.653  -7.378   9.177  0.00  0.00    +0.245 A 
ATOM     17  C   UNL     1      -5.110  -8.108  10.346  0.00  0.00    +0.205 A 
ENDROOT
BRANCH  17  18
ATOM      6  N   UNL     1      -5.805  -9.821  12.502  0.00  0.00    -0.326 N 
ATOM      7  N   UNL     1      -3.629 -10.749  12.526  0.00  0.00    -0.240 NA
ATOM     18  C   UNL     1      -4.171  -9.029  10.916  0.00  0.00    +0.062 A 
ATOM     19  C   UNL     1      -4.493  -9.871  11.968  0.00  0.00    +0.130 A 
ATOM     20  C   UNL     1      -2.879  -9.091  10.404  0.00  0.00    +0.016 A 
ATOM     21  C   UNL     1      -1.962  -9.981  10.951  0.00  0.00    +0.020 A 
ATOM     23  C   UNL     1      -2.382 -10.781  12.002  0.00  0.00    +0.113 A 
ATOM     26  H   UNL     1      -6.525  -9.468  11.881  0.00  0.00    +0.148 HD
BRANCH   6  22
ATOM     22  C   UNL     1      -6.228 -10.648  13.584  0.00  0.00    +0.131 C 
BRANCH  22  24
ATOM     24  C   UNL     1      -6.775  -9.792  14.712  0.00  0.00    +0.178 C 
BRANCH  24   2
ATOM      2  O   UNL     1      -5.757  -9.584  15.685  0.00  0.00    -0.381 OA
ATOM     25  C   UNL     1      -6.147 -10.073  16.959  0.00  0.00    +0.194 C 
ENDBRANCH  24   2
ENDBRANCH  22  24
ENDBRANCH   6  22
ENDBRANCH  17  18
BRANCH  16  12
ATOM      3  N   UNL     1      -9.059  -7.743   8.654  0.00  0.00    -0.291 NA
ATOM     12  C   UNL     1      -7.800  -7.101   8.228  0.00  0.00    +0.146 C 
ATOM     13  C   UNL     1     -10.144  -6.899   8.154  0.00  0.00    +0.085 C 
ATOM     14  C   UNL     1      -8.140  -5.602   8.126  0.00  0.00    +0.030 C 
ATOM     15  C   UNL     1      -9.623  -5.507   8.455  0.00  0.00    +0.017 C 
BRANCH   3  11
ATOM     11  C   UNL     1      -9.183  -9.122   8.200  0.00  0.00    +0.088 C 
BRANCH  11   8
ATOM      8  C   UNL     1      -9.418 -10.052   9.345  0.00  0.00    +0.003 C 
ATOM      9  C   UNL     1      -9.289  -9.536  10.748  0.00  0.00    +0.005 C 
ATOM     10  C   UNL     1      -8.257 -10.475  10.197  0.00  0.00    +0.005 C 
ENDBRANCH  11   8
ENDBRANCH   3  11
ENDBRANCH  16  12
TORSDOF 7
ENDMDL
MODEL 5
REMARK VINA RESULT:      -1.0     14.827     17.286
REMARK  Name = 45783400
REMARK  8 active torsions:
REMARK  status: ('A' for Active; 'I' for Inactive)
REMARK    1  A    between atoms: O_2  and  C_24
REMARK    2  A    between atoms: O_2  and  C_25
REMARK    3  A    between atoms: N_3  and  C_11
REMARK    4  A    between atoms: N_6  and  C_22
REMARK    5  A    between atoms: C_8  and  C_11
REMARK    6  A    between atoms: C_12  and  C_16
REMARK    7  A    between atoms: C_17  and  C_18
REMARK    8  A    between atoms: C_22  and  C_24
REMARK                            x       y       z     vdW  Elec       q    Type
REMARK                         _______ _______ _______ _____ _____    ______ ____
ROOT
ATOM      1  O   UNL     1      -0.743  -2.401  25.345  0.00  0.00    -0.336 OA
ATOM      4  N   UNL     1      -0.920  -0.513  24.151  0.00  0.00    -0.190 NA
ATOM      5  N   UNL     1       0.564  -2.031  25.005  0.00  0.00    -0.056 NA
ATOM     16  C   UNL     1      -1.554  -1.455  24.804  0.00  0.00    +0.245 A 
ATOM     17  C   UNL     1       0.378  -0.909  24.302  0.00  0.00    +0.205 A 
ENDROOT
BRANCH  17  18
ATOM      6  N   UNL     1       0.328   1.926  24.139  0.00  0.00    -0.326 N 
ATOM      7  N   UNL     1       2.464   1.950  23.123  0.00  0.00    -0.240 NA
ATOM     18  C   UNL     1       1.463  -0.163  23.738  0.00  0.00    +0.062 A 
ATOM     19  C   UNL     1       1.456   1.220  23.650  0.00  0.00    +0.130 A 
ATOM     20  C   UNL     1       2.578  -0.840  23.253  0.00  0.00    +0.016 A 
ATOM     21  C   UNL     1       3.635  -0.123  22.703  0.00  0.00    +0.020 A 
ATOM     23  C   UNL     1       3.530   1.258  22.662  0.00  0.00    +0.113 A 
ATOM     26  H   UNL     1      -0.226   1.447  24.842  0.00  0.00    +0.148 HD
BRANCH   6  22
ATOM     22  C   UNL     1       0.230   3.348  24.093  0.00  0.00    +0.131 C 
BRANCH  22  24
ATOM     24  C   UNL     1      -0.575   3.853  25.277  0.00  0.00    +0.178 C 
BRANCH  24   2
ATOM      2  O   UNL     1      -1.963   3.790  24.969  0.00  0.00    -0.381 OA
ATOM     25  C   UNL     1      -2.760   4.197  26.072  0.00  0.00    +0.194 C 
ENDBRANCH  24   2
ENDBRANCH  22  24
ENDBRANCH   6  22
ENDBRANCH  17  18
BRANCH  16  12
ATOM      3  N   UNL     1      -3.844  -0.577  24.377  0.00  0.00    -0.291 NA
ATOM     12  C   UNL     1      -3.041  -1.628  25.034  0.00  0.00    +0.146 C 
ATOM     13  C   UNL     1      -5.136  -1.184  24.057  0.00  0.00    +0.085 C 
ATOM     14  C   UNL     1      -3.582  -2.951  24.459  0.00  0.00    +0.030 C 
ATOM     15  C   UNL     1      -4.723  -2.546  23.536  0.00  0.00    +0.017 C 
BRANCH   3  11
ATOM     11  C   UNL     1      -3.987   0.625  25.187  0.00  0.00    +0.088 C 
BRANCH  11   8
ATOM      8  C   UNL     1      -5.334   1.247  25.001  0.00  0.00    +0.003 C 
ATOM      9  C   UNL     1      -5.427   2.697  24.625  0.00  0.00    +0.005 C 
ATOM     10  C   UNL     1      -5.821   2.252  26.003  0.00  0.00    +0.005 C 
ENDBRANCH  11   8
ENDBRANCH   3  11
ENDBRANCH  16  12
TORSDOF 7
ENDMDL
MODEL 6
REMARK VINA RESULT:      -0.9     15.012     17.978
REMARK  Name = 45783400
REMARK  8 active torsions:
REMARK  status: ('A' for Active; 'I' for Inactive)
REMARK    1  A    between atoms: O_2  and  C_24
REMARK    2  A    between atoms: O_2  and  C_25
REMARK    3  A    between atoms: N_3  and  C_11
REMARK    4  A    between atoms: N_6  and  C_22
REMARK    5  A    between atoms: C_8  and  C_11
REMARK    6  A    between atoms: C_12  and  C_16
REMARK    7  A    between atoms: C_17  and  C_18
REMARK    8  A    between atoms: C_22  and  C_24
REMARK                            x       y       z     vdW  Elec       q    Type
REMARK                         _______ _______ _______ _____ _____    ______ ____
ROOT
ATOM      1  O   UNL     1      -5.304   1.887  24.905  0.00  0.00    -0.336 OA
ATOM      4  N   UNL     1      -3.157   1.251  24.850  0.00  0.00    -0.190 NA
ATOM      5  N   UNL     1      -5.311   0.515  24.626  0.00  0.00    -0.056 NA
ATOM     16  C   UNL     1      -3.997   2.240  25.022  0.00  0.00    +0.245 A 
ATOM     17  C   UNL     1      -4.009   0.213  24.610  0.00  0.00    +0.205 A 
ENDROOT
BRANCH  17  18
ATOM      6  N   UNL     1      -1.238  -0.359  24.358  0.00  0.00    -0.326 N 
ATOM      7  N   UNL     1      -1.698  -2.650  23.991  0.00  0.00    -0.240 NA
ATOM     18  C   UNL     1      -3.528  -1.114  24.356  0.00  0.00    +0.062 A 
ATOM     19  C   UNL     1      -2.180  -1.410  24.230  0.00  0.00    +0.130 A 
ATOM     20  C   UNL     1      -4.439  -2.157  24.228  0.00  0.00    +0.016 A 
ATOM     21  C   UNL     1      -3.981  -3.446  23.982  0.00  0.00    +0.020 A 
ATOM     23  C   UNL     1      -2.613  -3.639  23.873  0.00  0.00    +0.113 A 
ATOM     26  H   UNL     1      -1.544   0.451  24.888  0.00  0.00    +0.148 HD
BRANCH   6  22
ATOM     22  C   UNL     1       0.168  -0.566  24.245  0.00  0.00    +0.131 C 
BRANCH  22  24
ATOM     24  C   UNL     1       0.718   0.225  23.071  0.00  0.00    +0.178 C 
BRANCH  24   2
ATOM      2  O   UNL     1       1.937  -0.364  22.632  0.00  0.00    -0.381 OA
ATOM     25  C   UNL     1       3.011   0.564  22.681  0.00  0.00    +0.194 C 
ENDBRANCH  24   2
ENDBRANCH  22  24
ENDBRANCH   6  22
ENDBRANCH  17  18
BRANCH  16  12
ATOM      3  N   UNL     1      -2.275   4.018  25.283  0.00  0.00    -0.291 NA
ATOM     12  C   UNL     1      -3.715   3.696  25.328  0.00  0.00    +0.146 C 
ATOM     13  C   UNL     1      -2.177   5.424  24.889  0.00  0.00    +0.085 C 
ATOM     14  C   UNL     1      -4.362   4.654  24.310  0.00  0.00    +0.030 C 
ATOM     15  C   UNL     1      -3.219   5.514  23.790  0.00  0.00    +0.017 C 
BRANCH   3  11
ATOM     11  C   UNL     1      -1.588   3.752  26.540  0.00  0.00    +0.088 C 
BRANCH  11   8
ATOM      8  C   UNL     1      -0.714   2.545  26.437  0.00  0.00    +0.003 C 
ATOM      9  C   UNL     1       0.631   2.553  27.102  0.00  0.00    +0.005 C 
ATOM     10  C   UNL     1       0.534   2.612  25.606  0.00  0.00    +0.005 C 
ENDBRANCH  11   8
ENDBRANCH   3  11
ENDBRANCH  16  12
TORSDOF 7
ENDMDL
MODEL 7
REMARK VINA RESULT:      -0.8     15.062     17.840
REMARK  Name = 45783400
REMARK  8 active torsions:
REMARK  status: ('A' for Active; 'I' for Inactive)
REMARK    1  A    between atoms: O_2  and  C_24
REMARK    2  A    between atoms: O_2  and  C_25
REMARK    3  A    between atoms: N_3  and  C_11
REMARK    4  A    between atoms: N_6  and  C_22
REMARK    5  A    between atoms: C_8  and  C_11
REMARK    6  A    between atoms: C_12  and  C_16
REMARK    7  A    between atoms: C_17  and  C_18
REMARK    8  A    between atoms: C_22  and  C_24
REMARK                            x       y       z     vdW  Elec       q    Type
REMARK                         _______ _______ _______ _____ _____    ______ ____
ROOT
ATOM      1  O   UNL     1      -3.941   2.208  23.722  0.00  0.00    -0.336 OA
ATOM      4  N   UNL     1      -3.870   0.751  25.422  0.00  0.00    -0.190 NA
ATOM      5  N   UNL     1      -3.463   1.006  23.186  0.00  0.00    -0.056 NA
ATOM     16  C   UNL     1      -4.155   1.971  25.043  0.00  0.00    +0.245 A 
ATOM     17  C   UNL     1      -3.450   0.196  24.249  0.00  0.00    +0.205 A 
ENDROOT
BRANCH  17  18
ATOM      6  N   UNL     1      -0.708  -0.509  24.022  0.00  0.00    -0.326 N 
ATOM      7  N   UNL     1      -1.255  -2.810  23.986  0.00  0.00    -0.240 NA
ATOM     18  C   UNL     1      -3.021  -1.170  24.172  0.00  0.00    +0.062 A 
ATOM     19  C   UNL     1      -1.688  -1.531  24.061  0.00  0.00    +0.130 A 
ATOM     20  C   UNL     1      -3.971  -2.186  24.208  0.00  0.00    +0.016 A 
ATOM     21  C   UNL     1      -3.564  -3.513  24.134  0.00  0.00    +0.020 A 
ATOM     23  C   UNL     1      -2.206  -3.770  24.025  0.00  0.00    +0.113 A 
ATOM     26  H   UNL     1      -0.972   0.378  24.440  0.00  0.00    +0.148 HD
BRANCH   6  22
ATOM     22  C   UNL     1       0.687  -0.783  23.910  0.00  0.00    +0.131 C 
BRANCH  22  24
ATOM     24  C   UNL     1       1.318   0.138  22.880  0.00  0.00    +0.178 C 
BRANCH  24   2
ATOM      2  O   UNL     1       2.663  -0.262  22.647  0.00  0.00    -0.381 OA
ATOM     25  C   UNL     1       3.550   0.846  22.690  0.00  0.00    +0.194 C 
ENDBRANCH  24   2
ENDBRANCH  22  24
ENDBRANCH   6  22
ENDBRANCH  17  18
BRANCH  16  12
ATOM      3  N   UNL     1      -4.262   4.441  25.325  0.00  0.00    -0.291 NA
ATOM     12  C   UNL     1      -4.682   3.131  25.861  0.00  0.00    +0.146 C 
ATOM     13  C   UNL     1      -5.314   5.393  25.686  0.00  0.00    +0.085 C 
ATOM     14  C   UNL     1      -6.221   3.193  25.884  0.00  0.00    +0.030 C 
ATOM     15  C   UNL     1      -6.570   4.594  25.401  0.00  0.00    +0.017 C 
BRANCH   3  11
ATOM     11  C   UNL     1      -2.952   4.864  25.803  0.00  0.00    +0.088 C 
BRANCH  11   8
ATOM      8  C   UNL     1      -1.875   4.486  24.840  0.00  0.00    +0.003 C 
ATOM      9  C   UNL     1      -0.707   3.677  25.326  0.00  0.00    +0.005 C 
ATOM     10  C   UNL     1      -0.521   5.122  24.966  0.00  0.00    +0.005 C 
ENDBRANCH  11   8
ENDBRANCH   3  11
ENDBRANCH  16  12
TORSDOF 7
ENDMDL
MODEL 8
REMARK VINA RESULT:      -0.7     15.465     17.705
REMARK  Name = 45783400
REMARK  8 active torsions:
REMARK  status: ('A' for Active; 'I' for Inactive)
REMARK    1  A    between atoms: O_2  and  C_24
REMARK    2  A    between atoms: O_2  and  C_25
REMARK    3  A    between atoms: N_3  and  C_11
REMARK    4  A    between atoms: N_6  and  C_22
REMARK    5  A    between atoms: C_8  and  C_11
REMARK    6  A    between atoms: C_12  and  C_16
REMARK    7  A    between atoms: C_17  and  C_18
REMARK    8  A    between atoms: C_22  and  C_24
REMARK                            x       y       z     vdW  Elec       q    Type
REMARK                         _______ _______ _______ _____ _____    ______ ____
ROOT
ATOM      1  O   UNL     1      -3.161   2.445  22.701  0.00  0.00    -0.336 OA
ATOM      4  N   UNL     1      -2.745   1.594  24.732  0.00  0.00    -0.190 NA
ATOM      5  N   UNL     1      -2.877   1.088  22.505  0.00  0.00    -0.056 NA
ATOM     16  C   UNL     1      -3.062   2.660  24.040  0.00  0.00    +0.245 A 
ATOM     17  C   UNL     1      -2.643   0.655  23.747  0.00  0.00    +0.205 A 
ENDROOT
BRANCH  17  18
ATOM      6  N   UNL     1       0.045  -0.264  23.709  0.00  0.00    -0.326 N 
ATOM      7  N   UNL     1      -0.647  -2.450  24.293  0.00  0.00    -0.240 NA
ATOM     18  C   UNL     1      -2.303  -0.707  24.038  0.00  0.00    +0.062 A 
ATOM     19  C   UNL     1      -0.997  -1.172  24.023  0.00  0.00    +0.130 A 
ATOM     20  C   UNL     1      -3.313  -1.612  24.348  0.00  0.00    +0.016 A 
ATOM     21  C   UNL     1      -2.992  -2.934  24.631  0.00  0.00    +0.020 A 
ATOM     23  C   UNL     1      -1.656  -3.300  24.591  0.00  0.00    +0.113 A 
ATOM     26  H   UNL     1      -0.155   0.717  23.875  0.00  0.00    +0.148 HD
BRANCH   6  22
ATOM     22  C   UNL     1       1.417  -0.650  23.670  0.00  0.00    +0.131 C 
BRANCH  22  24
ATOM     24  C   UNL     1       2.128   0.068  22.537  0.00  0.00    +0.178 C 
BRANCH  24   2
ATOM      2  O   UNL     1       3.056   1.002  23.075  0.00  0.00    -0.381 OA
ATOM     25  C   UNL     1       4.385   0.503  23.026  0.00  0.00    +0.194 C 
ENDBRANCH  24   2
ENDBRANCH  22  24
ENDBRANCH   6  22
ENDBRANCH  17  18
BRANCH  16  12
ATOM      3  N   UNL     1      -4.210   4.113  25.702  0.00  0.00    -0.291 NA
ATOM     12  C   UNL     1      -3.328   4.071  24.519  0.00  0.00    +0.146 C 
ATOM     13  C   UNL     1      -3.837   5.311  26.454  0.00  0.00    +0.085 C 
ATOM     14  C   UNL     1      -2.046   4.801  24.961  0.00  0.00    +0.030 C 
ATOM     15  C   UNL     1      -2.323   5.268  26.382  0.00  0.00    +0.017 C 
BRANCH   3  11
ATOM     11  C   UNL     1      -5.627   4.096  25.363  0.00  0.00    +0.088 C 
BRANCH  11   8
ATOM      8  C   UNL     1      -6.286   2.846  25.847  0.00  0.00    +0.003 C 
ATOM      9  C   UNL     1      -5.475   1.591  25.977  0.00  0.00    +0.005 C 
ATOM     10  C   UNL     1      -6.501   1.712  24.888  0.00  0.00    +0.005 C 
ENDBRANCH  11   8
ENDBRANCH   3  11
ENDBRANCH  16  12
TORSDOF 7
ENDMDL
MODEL 9
REMARK VINA RESULT:      -0.3     15.087     17.879
REMARK  Name = 45783400
REMARK  8 active torsions:
REMARK  status: ('A' for Active; 'I' for Inactive)
REMARK    1  A    between atoms: O_2  and  C_24
REMARK    2  A    between atoms: O_2  and  C_25
REMARK    3  A    between atoms: N_3  and  C_11
REMARK    4  A    between atoms: N_6  and  C_22
REMARK    5  A    between atoms: C_8  and  C_11
REMARK    6  A    between atoms: C_12  and  C_16
REMARK    7  A    between atoms: C_17  and  C_18
REMARK    8  A    between atoms: C_22  and  C_24
REMARK                            x       y       z     vdW  Elec       q    Type
REMARK                         _______ _______ _______ _____ _____    ______ ____
ROOT
ATOM      1  O   UNL     1      -1.457  -0.586  26.229  0.00  0.00    -0.336 OA
ATOM      4  N   UNL     1      -2.493   0.835  24.841  0.00  0.00    -0.190 NA
ATOM      5  N   UNL     1      -0.654   0.560  26.173  0.00  0.00    -0.056 NA
ATOM     16  C   UNL     1      -2.518  -0.341  25.416  0.00  0.00    +0.245 A 
ATOM     17  C   UNL     1      -1.331   1.351  25.336  0.00  0.00    +0.205 A 
ENDROOT
BRANCH  17  18
ATOM      6  N   UNL     1       1.067   1.752  23.867  0.00  0.00    -0.326 N 
ATOM      7  N   UNL     1       0.749   4.096  23.902  0.00  0.00    -0.240 NA
ATOM     18  C   UNL     1      -0.874   2.661  24.973  0.00  0.00    +0.062 A 
ATOM     19  C   UNL     1       0.293   2.874  24.258  0.00  0.00    +0.130 A 
ATOM     20  C   UNL     1      -1.621   3.773  25.348  0.00  0.00    +0.016 A 
ATOM     21  C   UNL     1      -1.184   5.046  25.000  0.00  0.00    +0.020 A 
ATOM     23  C   UNL     1      -0.004   5.153  24.283  0.00  0.00    +0.113 A 
ATOM     26  H   UNL     1       0.568   0.871  23.796  0.00  0.00    +0.148 HD
BRANCH   6  22
ATOM     22  C   UNL     1       2.281   1.873  23.129  0.00  0.00    +0.131 C 
BRANCH  22  24
ATOM     24  C   UNL     1       2.827   0.495  22.797  0.00  0.00    +0.178 C 
BRANCH  24   2
ATOM      2  O   UNL     1       4.185   0.610  22.388  0.00  0.00    -0.381 OA
ATOM     25  C   UNL     1       5.076   0.353  23.463  0.00  0.00    +0.194 C 
ENDBRANCH  24   2
ENDBRANCH  22  24
ENDBRANCH   6  22
ENDBRANCH  17  18
BRANCH  16  12
ATOM      3  N   UNL     1      -4.440  -1.270  24.136  0.00  0.00    -0.291 NA
ATOM     12  C   UNL     1      -3.550  -1.443  25.302  0.00  0.00    +0.146 C 
ATOM     13  C   UNL     1      -4.853  -2.613  23.728  0.00  0.00    +0.085 C 
ATOM     14  C   UNL     1      -2.917  -2.834  25.107  0.00  0.00    +0.030 C 
ATOM     15  C   UNL     1      -3.555  -3.388  23.841  0.00  0.00    +0.017 C 
BRANCH   3  11
ATOM     11  C   UNL     1      -5.580  -0.405  24.408  0.00  0.00    +0.088 C 
BRANCH  11   8
ATOM      8  C   UNL     1      -5.176   0.790  25.208  0.00  0.00    +0.003 C 
ATOM      9  C   UNL     1      -6.238   1.668  25.804  0.00  0.00    +0.005 C 
ATOM     10  C   UNL     1      -5.416   2.163  24.650  0.00  0.00    +0.005 C 
ENDBRANCH  11   8
ENDBRANCH   3  11
ENDBRANCH  16  12
TORSDOF 7
ENDMDL
