MODEL 1
REMARK VINA RESULT:       2.6      0.000      0.000
REMARK  Name = 28961008
REMARK  5 active torsions:
REMARK  status: ('A' for Active; 'I' for Inactive)
REMARK    1  A    between atoms: N_6  and  C_16
REMARK    2  A    between atoms: N_7  and  C_11
REMARK    3  A    between atoms: N_10  and  C_20
REMARK    4  A    between atoms: C_12  and  C_15
REMARK    5  A    between atoms: C_18  and  C_19
REMARK                            x       y       z     vdW  Elec       q    Type
REMARK                         _______ _______ _______ _____ _____    ______ ____
ROOT
ATOM      6  N   UNL     1      -4.404   4.448  24.348  0.00  0.00    -0.293 NA
ATOM     11  C   UNL     1      -5.434   3.346  26.126  0.00  0.00    +0.090 C 
ATOM     12  C   UNL     1      -3.401   4.507  25.428  0.00  0.00    +0.147 C 
ATOM     13  C   UNL     1      -4.001   3.652  26.562  0.00  0.00    +0.052 C 
ATOM     14  C   UNL     1      -5.706   4.349  25.015  0.00  0.00    +0.107 C 
ATOM     16  C   UNL     1      -4.342   5.590  23.444  0.00  0.00    +0.105 C 
ENDROOT
BRANCH  11   7
ATOM      3  O   UNL     1      -3.305   1.536  25.496  0.00  0.00    -0.253 OA
ATOM      7  N   UNL     1      -5.567   1.988  25.652  0.00  0.00    -0.295 N 
ATOM     10  N   UNL     1      -4.903  -0.086  24.928  0.00  0.00    -0.269 N 
ATOM     17  C   UNL     1      -4.469   1.169  25.367  0.00  0.00    +0.304 C 
ATOM     32  H   UNL     1      -6.497   1.637  25.450  0.00  0.00    +0.151 HD
ATOM     33  H   UNL     1      -5.908  -0.230  24.877  0.00  0.00    +0.156 HD
BRANCH  10  20
ATOM      1  F   UNL     1      -1.796  -4.422  23.419  0.00  0.00    -0.205 F 
ATOM     20  C   UNL     1      -4.110  -1.193  24.543  0.00  0.00    +0.035 A 
ATOM     26  C   UNL     1      -4.656  -2.198  23.744  0.00  0.00    +0.026 A 
ATOM     27  C   UNL     1      -2.783  -1.278  24.962  0.00  0.00    +0.026 A 
ATOM     29  C   UNL     1      -3.874  -3.288  23.365  0.00  0.00    +0.040 A 
ATOM     30  C   UNL     1      -2.001  -2.369  24.582  0.00  0.00    +0.040 A 
ATOM     31  C   UNL     1      -2.547  -3.374  23.783  0.00  0.00    +0.124 A 
ENDBRANCH  10  20
ENDBRANCH  11   7
BRANCH  12  15
ATOM      2  O   UNL     1      -1.032   4.953  25.026  0.00  0.00    -0.336 OA
ATOM      8  N   UNL     1      -1.649   2.839  24.610  0.00  0.00    -0.190 NA
ATOM      9  N   UNL     1       0.123   4.287  24.598  0.00  0.00    -0.056 NA
ATOM     15  C   UNL     1      -2.029   4.029  25.004  0.00  0.00    +0.245 A 
ATOM     18  C   UNL     1      -0.321   3.047  24.373  0.00  0.00    +0.202 A 
BRANCH  18  19
ATOM      4  O   UNL     1       4.017   1.245  23.028  0.00  0.00    -0.453 OA
ATOM      5  O   UNL     1       3.093  -0.938  22.597  0.00  0.00    -0.453 OA
ATOM     19  C   UNL     1       0.535   1.992  23.912  0.00  0.00    +0.026 A 
ATOM     21  C   UNL     1       1.896   2.239  23.717  0.00  0.00    +0.061 A 
ATOM     22  C   UNL     1      -0.005   0.719  23.660  0.00  0.00    +0.015 A 
ATOM     23  C   UNL     1       2.679   1.193  23.273  0.00  0.00    +0.167 A 
ATOM     24  C   UNL     1       2.152  -0.054  23.027  0.00  0.00    +0.166 A 
ATOM     25  C   UNL     1       0.811  -0.323  23.212  0.00  0.00    +0.050 A 
ATOM     28  C   UNL     1       4.272  -0.108  22.600  0.00  0.00    +0.466 C 
ENDBRANCH  18  19
ENDBRANCH  12  15
TORSDOF 4
ENDMDL
