MODEL 1
REMARK VINA RESULT:      -4.8      0.000      0.000
REMARK  Name = 26762305
REMARK  9 active torsions:
REMARK  status: ('A' for Active; 'I' for Inactive)
REMARK    1  A    between atoms: N_6  and  C_11
REMARK    2  A    between atoms: N_7  and  C_20
REMARK    3  A    between atoms: N_8  and  C_21
REMARK    4  A    between atoms: C_10  and  C_16
REMARK    5  A    between atoms: C_16  and  C_17
REMARK    6  A    between atoms: C_17  and  C_19
REMARK    7  A    between atoms: C_20  and  C_22
REMARK    8  A    between atoms: C_20  and  C_23
REMARK    9  A    between atoms: C_21  and  C_24
REMARK                            x       y       z     vdW  Elec       q    Type
REMARK                         _______ _______ _______ _____ _____    ______ ____
ROOT
ATOM      1  O   UNL     1       1.062   2.286  26.802  0.00  0.00    -0.274 OA
ATOM      4  N   UNL     1      -1.971   2.038  24.853  0.00  0.00    -0.285 NA
ATOM      5  N   UNL     1       0.094   3.838  25.443  0.00  0.00    -0.313 N 
ATOM      9  C   UNL     1      -1.178   1.807  26.060  0.00  0.00    +0.145 C 
ATOM     10  C   UNL     1      -2.204   3.458  24.596  0.00  0.00    +0.075 C 
ATOM     11  C   UNL     1      -0.882  -0.013  24.490  0.00  0.00    +0.090 C 
ATOM     12  C   UNL     1      -0.903   0.308  25.985  0.00  0.00    +0.052 C 
ATOM     13  C   UNL     1      -1.353   1.256  23.783  0.00  0.00    +0.107 C 
ATOM     14  C   UNL     1      -0.894   4.227  24.457  0.00  0.00    +0.123 C 
ATOM     15  C   UNL     1       0.100   2.635  26.113  0.00  0.00    +0.230 C 
ATOM     30  H   UNL     1       0.922   4.420  25.524  0.00  0.00    +0.149 HD
ENDROOT
BRANCH  11   6
ATOM      2  O   UNL     1       1.173   1.797  23.509  0.00  0.00    -0.253 OA
ATOM      6  N   UNL     1       0.492  -0.354  24.055  0.00  0.00    -0.295 N 
ATOM      7  N   UNL     1       2.620   0.002  23.257  0.00  0.00    -0.297 N 
ATOM     18  C   UNL     1       1.406   0.593  23.598  0.00  0.00    +0.300 C 
ATOM     31  H   UNL     1       0.806  -1.314  24.166  0.00  0.00    +0.151 HD
ATOM     32  H   UNL     1       2.741  -0.991  23.437  0.00  0.00    +0.150 HD
BRANCH   7  20
ATOM     20  C   UNL     1       3.744   0.756  22.754  0.00  0.00    +0.068 C 
ATOM     22  C   UNL     1       3.908   0.527  21.257  0.00  0.00    +0.027 C 
ATOM     23  C   UNL     1       5.015   0.391  23.511  0.00  0.00    +0.027 C 
ENDBRANCH   7  20
ENDBRANCH  11   6
BRANCH  10  16
ATOM     16  C   UNL     1      -3.108   3.691  23.385  0.00  0.00    +0.029 C 
BRANCH  16  17
ATOM     17  C   UNL     1      -4.530   4.017  23.817  0.00  0.00    +0.097 C 
BRANCH  17  19
ATOM      3  O   UNL     1      -5.523   3.504  25.964  0.00  0.00    -0.276 OA
ATOM      8  N   UNL     1      -4.815   1.763  24.604  0.00  0.00    -0.311 N 
ATOM     19  C   UNL     1      -5.017   3.097  24.923  0.00  0.00    +0.213 C 
ATOM     33  H   UNL     1      -4.362   1.512  23.730  0.00  0.00    +0.149 HD
BRANCH   8  21
ATOM     21  C   UNL     1      -5.192   0.691  25.495  0.00  0.00    +0.139 C 
BRANCH  21  24
ATOM     24  C   UNL     1      -4.494  -0.594  25.154  0.00  0.00    -0.030 A 
ATOM     25  C   UNL     1      -4.540  -1.089  23.852  0.00  0.00    +0.005 A 
ATOM     26  C   UNL     1      -3.800  -1.293  26.142  0.00  0.00    +0.005 A 
ATOM     27  C   UNL     1      -3.892  -2.283  23.536  0.00  0.00    +0.000 A 
ATOM     28  C   UNL     1      -3.152  -2.487  25.827  0.00  0.00    +0.000 A 
ATOM     29  C   UNL     1      -3.198  -2.982  24.523  0.00  0.00    +0.000 A 
ENDBRANCH  21  24
ENDBRANCH   8  21
ENDBRANCH  17  19
ENDBRANCH  16  17
ENDBRANCH  10  16
TORSDOF 7
ENDMDL
MODEL 2
REMARK VINA RESULT:      -4.1      1.666      2.477
REMARK  Name = 26762305
REMARK  9 active torsions:
REMARK  status: ('A' for Active; 'I' for Inactive)
REMARK    1  A    between atoms: N_6  and  C_11
REMARK    2  A    between atoms: N_7  and  C_20
REMARK    3  A    between atoms: N_8  and  C_21
REMARK    4  A    between atoms: C_10  and  C_16
REMARK    5  A    between atoms: C_16  and  C_17
REMARK    6  A    between atoms: C_17  and  C_19
REMARK    7  A    between atoms: C_20  and  C_22
REMARK    8  A    between atoms: C_20  and  C_23
REMARK    9  A    between atoms: C_21  and  C_24
REMARK                            x       y       z     vdW  Elec       q    Type
REMARK                         _______ _______ _______ _____ _____    ______ ____
ROOT
ATOM      1  O   UNL     1      -0.439  -1.928  25.396  0.00  0.00    -0.274 OA
ATOM      4  N   UNL     1      -0.582   1.353  23.888  0.00  0.00    -0.285 NA
ATOM      5  N   UNL     1      -0.578   0.114  26.401  0.00  0.00    -0.313 N 
ATOM      9  C   UNL     1      -0.943  -0.063  23.959  0.00  0.00    +0.145 C 
ATOM     10  C   UNL     1      -1.076   2.118  25.031  0.00  0.00    +0.075 C 
ATOM     11  C   UNL     1       1.088   0.231  22.672  0.00  0.00    +0.090 C 
ATOM     12  C   UNL     1      -0.151  -0.658  22.799  0.00  0.00    +0.052 C 
ATOM     13  C   UNL     1       0.853   1.412  23.612  0.00  0.00    +0.107 C 
ATOM     14  C   UNL     1      -0.549   1.561  26.350  0.00  0.00    +0.123 C 
ATOM     15  C   UNL     1      -0.599  -0.708  25.296  0.00  0.00    +0.230 C 
ATOM     30  H   UNL     1      -0.407  -0.323  27.301  0.00  0.00    +0.149 HD
ENDROOT
BRANCH  11   6
ATOM      2  O   UNL     1       3.780   1.276  23.023  0.00  0.00    -0.253 OA
ATOM      6  N   UNL     1       2.300  -0.512  23.087  0.00  0.00    -0.295 N 
ATOM      7  N   UNL     1       4.512  -0.841  23.627  0.00  0.00    -0.297 N 
ATOM     18  C   UNL     1       3.552   0.084  23.226  0.00  0.00    +0.300 C 
ATOM     31  H   UNL     1       2.198  -1.487  23.353  0.00  0.00    +0.151 HD
ATOM     32  H   UNL     1       4.210  -1.787  23.841  0.00  0.00    +0.150 HD
BRANCH   7  20
ATOM     20  C   UNL     1       5.895  -0.489  23.846  0.00  0.00    +0.068 C 
ATOM     22  C   UNL     1       6.001   0.926  24.398  0.00  0.00    +0.027 C 
ATOM     23  C   UNL     1       6.696  -0.642  22.559  0.00  0.00    +0.027 C 
ENDBRANCH   7  20
ENDBRANCH  11   6
BRANCH  10  16
ATOM     16  C   UNL     1      -0.774   3.612  24.907  0.00  0.00    +0.029 C 
BRANCH  16  17
ATOM     17  C   UNL     1      -2.050   4.413  24.693  0.00  0.00    +0.097 C 
BRANCH  17  19
ATOM      3  O   UNL     1      -3.840   3.954  26.256  0.00  0.00    -0.276 OA
ATOM      8  N   UNL     1      -3.669   2.673  24.329  0.00  0.00    -0.311 N 
ATOM     19  C   UNL     1      -3.278   3.678  25.201  0.00  0.00    +0.213 C 
ATOM     33  H   UNL     1      -3.131   2.491  23.488  0.00  0.00    +0.149 HD
BRANCH   8  21
ATOM     21  C   UNL     1      -4.811   1.828  24.589  0.00  0.00    +0.139 C 
BRANCH  21  24
ATOM     24  C   UNL     1      -4.422   0.384  24.727  0.00  0.00    -0.030 A 
ATOM     25  C   UNL     1      -4.431  -0.450  23.609  0.00  0.00    +0.005 A 
ATOM     26  C   UNL     1      -4.052  -0.122  25.972  0.00  0.00    +0.005 A 
ATOM     27  C   UNL     1      -4.071  -1.791  23.737  0.00  0.00    +0.000 A 
ATOM     28  C   UNL     1      -3.691  -1.463  26.100  0.00  0.00    +0.000 A 
ATOM     29  C   UNL     1      -3.700  -2.298  24.983  0.00  0.00    +0.000 A 
ENDBRANCH  21  24
ENDBRANCH   8  21
ENDBRANCH  17  19
ENDBRANCH  16  17
ENDBRANCH  10  16
TORSDOF 7
ENDMDL
MODEL 3
REMARK VINA RESULT:      -3.2      1.579      2.485
REMARK  Name = 26762305
REMARK  9 active torsions:
REMARK  status: ('A' for Active; 'I' for Inactive)
REMARK    1  A    between atoms: N_6  and  C_11
REMARK    2  A    between atoms: N_7  and  C_20
REMARK    3  A    between atoms: N_8  and  C_21
REMARK    4  A    between atoms: C_10  and  C_16
REMARK    5  A    between atoms: C_16  and  C_17
REMARK    6  A    between atoms: C_17  and  C_19
REMARK    7  A    between atoms: C_20  and  C_22
REMARK    8  A    between atoms: C_20  and  C_23
REMARK    9  A    between atoms: C_21  and  C_24
REMARK                            x       y       z     vdW  Elec       q    Type
REMARK                         _______ _______ _______ _____ _____    ______ ____
ROOT
ATOM      1  O   UNL     1      -0.412  -1.648  25.749  0.00  0.00    -0.274 OA
ATOM      4  N   UNL     1      -0.785   1.447  23.922  0.00  0.00    -0.285 NA
ATOM      5  N   UNL     1      -0.513   0.488  26.540  0.00  0.00    -0.313 N 
ATOM      9  C   UNL     1      -1.099   0.041  24.177  0.00  0.00    +0.145 C 
ATOM     10  C   UNL     1      -1.191   2.323  25.019  0.00  0.00    +0.075 C 
ATOM     11  C   UNL     1       0.794   0.228  22.677  0.00  0.00    +0.090 C 
ATOM     12  C   UNL     1      -0.403  -0.663  23.016  0.00  0.00    +0.052 C 
ATOM     13  C   UNL     1       0.615   1.500  23.504  0.00  0.00    +0.107 C 
ATOM     14  C   UNL     1      -0.528   1.921  26.333  0.00  0.00    +0.123 C 
ATOM     15  C   UNL     1      -0.614  -0.450  25.536  0.00  0.00    +0.230 C 
ATOM     30  H   UNL     1      -0.247   0.155  27.461  0.00  0.00    +0.149 HD
ENDROOT
BRANCH  11   6
ATOM      2  O   UNL     1       3.465   1.376  22.741  0.00  0.00    -0.253 OA
ATOM      6  N   UNL     1       2.059  -0.445  23.050  0.00  0.00    -0.295 N 
ATOM      7  N   UNL     1       4.315  -0.666  23.441  0.00  0.00    -0.297 N 
ATOM     18  C   UNL     1       3.295   0.197  23.048  0.00  0.00    +0.300 C 
ATOM     31  H   UNL     1       2.011  -1.399  23.395  0.00  0.00    +0.151 HD
ATOM     32  H   UNL     1       4.064  -1.602  23.747  0.00  0.00    +0.150 HD
BRANCH   7  20
ATOM     20  C   UNL     1       5.698  -0.258  23.526  0.00  0.00    +0.068 C 
ATOM     22  C   UNL     1       6.476  -1.207  24.427  0.00  0.00    +0.027 C 
ATOM     23  C   UNL     1       5.801   1.180  24.018  0.00  0.00    +0.027 C 
ENDBRANCH   7  20
ENDBRANCH  11   6
BRANCH  10  16
ATOM     16  C   UNL     1      -0.943   3.800  24.708  0.00  0.00    +0.029 C 
BRANCH  16  17
ATOM     17  C   UNL     1      -2.239   4.595  24.756  0.00  0.00    +0.097 C 
BRANCH  17  19
ATOM      3  O   UNL     1      -3.819   4.032  26.502  0.00  0.00    -0.276 OA
ATOM      8  N   UNL     1      -3.826   2.802  24.534  0.00  0.00    -0.311 N 
ATOM     19  C   UNL     1      -3.373   3.802  25.382  0.00  0.00    +0.213 C 
ATOM     33  H   UNL     1      -3.382   2.661  23.631  0.00  0.00    +0.149 HD
BRANCH   8  21
ATOM     21  C   UNL     1      -4.900   1.908  24.900  0.00  0.00    +0.139 C 
BRANCH  21  24
ATOM     24  C   UNL     1      -4.465   0.471  24.881  0.00  0.00    -0.030 A 
ATOM     25  C   UNL     1      -4.053  -0.148  26.060  0.00  0.00    +0.005 A 
ATOM     26  C   UNL     1      -4.473  -0.244  23.683  0.00  0.00    +0.005 A 
ATOM     27  C   UNL     1      -3.649  -1.483  26.043  0.00  0.00    +0.000 A 
ATOM     28  C   UNL     1      -4.069  -1.578  23.665  0.00  0.00    +0.000 A 
ATOM     29  C   UNL     1      -3.657  -2.199  24.845  0.00  0.00    +0.000 A 
ENDBRANCH  21  24
ENDBRANCH   8  21
ENDBRANCH  17  19
ENDBRANCH  16  17
ENDBRANCH  10  16
TORSDOF 7
ENDMDL
MODEL 4
REMARK VINA RESULT:      -1.8      2.173      5.046
REMARK  Name = 26762305
REMARK  9 active torsions:
REMARK  status: ('A' for Active; 'I' for Inactive)
REMARK    1  A    between atoms: N_6  and  C_11
REMARK    2  A    between atoms: N_7  and  C_20
REMARK    3  A    between atoms: N_8  and  C_21
REMARK    4  A    between atoms: C_10  and  C_16
REMARK    5  A    between atoms: C_16  and  C_17
REMARK    6  A    between atoms: C_17  and  C_19
REMARK    7  A    between atoms: C_20  and  C_22
REMARK    8  A    between atoms: C_20  and  C_23
REMARK    9  A    between atoms: C_21  and  C_24
REMARK                            x       y       z     vdW  Elec       q    Type
REMARK                         _______ _______ _______ _____ _____    ______ ____
ROOT
ATOM      1  O   UNL     1       1.802   0.189  23.047  0.00  0.00    -0.274 OA
ATOM      4  N   UNL     1      -1.497   0.246  24.518  0.00  0.00    -0.285 NA
ATOM      5  N   UNL     1       0.590  -1.528  23.929  0.00  0.00    -0.313 N 
ATOM      9  C   UNL     1      -0.515   0.647  23.511  0.00  0.00    +0.145 C 
ATOM     10  C   UNL     1      -1.804  -1.183  24.467  0.00  0.00    +0.075 C 
ATOM     11  C   UNL     1      -0.431   2.137  25.419  0.00  0.00    +0.090 C 
ATOM     12  C   UNL     1      -0.219   2.091  23.904  0.00  0.00    +0.052 C 
ATOM     13  C   UNL     1      -1.041   0.789  25.796  0.00  0.00    +0.107 C 
ATOM     14  C   UNL     1      -0.552  -2.033  24.662  0.00  0.00    +0.123 C 
ATOM     15  C   UNL     1       0.734  -0.226  23.503  0.00  0.00    +0.230 C 
ATOM     30  H   UNL     1       1.406  -2.129  23.869  0.00  0.00    +0.149 HD
ENDROOT
BRANCH  11   6
ATOM      2  O   UNL     1       0.015   2.537  28.265  0.00  0.00    -0.253 OA
ATOM      6  N   UNL     1       0.863   2.320  26.115  0.00  0.00    -0.295 N 
ATOM      7  N   UNL     1       2.300   2.652  27.880  0.00  0.00    -0.297 N 
ATOM     18  C   UNL     1       0.970   2.507  27.491  0.00  0.00    +0.300 C 
ATOM     31  H   UNL     1       1.716   2.232  25.571  0.00  0.00    +0.151 HD
ATOM     32  H   UNL     1       3.024   2.536  27.177  0.00  0.00    +0.150 HD
BRANCH   7  20
ATOM     20  C   UNL     1       2.696   2.858  29.254  0.00  0.00    +0.068 C 
ATOM     22  C   UNL     1       1.717   2.169  30.196  0.00  0.00    +0.027 C 
ATOM     23  C   UNL     1       2.804   4.346  29.561  0.00  0.00    +0.027 C 
ENDBRANCH   7  20
ENDBRANCH  11   6
BRANCH  10  16
ATOM     16  C   UNL     1      -2.897  -1.580  25.461  0.00  0.00    +0.029 C 
BRANCH  16  17
ATOM     17  C   UNL     1      -4.278  -1.461  24.832  0.00  0.00    +0.097 C 
BRANCH  17  19
ATOM      3  O   UNL     1      -4.115   0.350  23.235  0.00  0.00    -0.276 OA
ATOM      8  N   UNL     1      -5.332   0.672  25.184  0.00  0.00    -0.311 N 
ATOM     19  C   UNL     1      -4.548  -0.062  24.306  0.00  0.00    +0.213 C 
ATOM     33  H   UNL     1      -5.626   0.264  26.067  0.00  0.00    +0.149 HD
BRANCH   8  21
ATOM     21  C   UNL     1      -5.726   2.034  24.912  0.00  0.00    +0.139 C 
BRANCH  21  24
ATOM     24  C   UNL     1      -4.574   2.988  25.038  0.00  0.00    -0.030 A 
ATOM     25  C   UNL     1      -4.000   3.544  23.895  0.00  0.00    +0.005 A 
ATOM     26  C   UNL     1      -4.078   3.319  26.299  0.00  0.00    +0.005 A 
ATOM     27  C   UNL     1      -2.929   4.430  24.013  0.00  0.00    +0.000 A 
ATOM     28  C   UNL     1      -3.008   4.205  26.417  0.00  0.00    +0.000 A 
ATOM     29  C   UNL     1      -2.433   4.761  25.274  0.00  0.00    +0.000 A 
ENDBRANCH  21  24
ENDBRANCH   8  21
ENDBRANCH  17  19
ENDBRANCH  16  17
ENDBRANCH  10  16
TORSDOF 7
ENDMDL
