MODEL 1
REMARK VINA RESULT:      -4.0      0.000      0.000
REMARK  Name = 75368548
REMARK  2 active torsions:
REMARK  status: ('A' for Active; 'I' for Inactive)
REMARK    1  A    between atoms: N_2  and  C_6
REMARK    2  A    between atoms: N_4  and  C_17
REMARK                            x       y       z     vdW  Elec       q    Type
REMARK                         _______ _______ _______ _____ _____    ______ ____
ROOT
ATOM      1  O   UNL     1      -6.682   1.582  26.642  0.00  0.00    -0.253 OA
ATOM      2  N   UNL     1      -2.306   0.823  24.173  0.00  0.00    -0.296 NA
ATOM      3  N   UNL     1      -4.827   1.536  25.196  0.00  0.00    -0.279 N 
ATOM      5  N   UNL     1      -5.714   3.525  25.748  0.00  0.00    -0.297 N 
ATOM      7  C   UNL     1      -4.098   2.497  24.395  0.00  0.00    +0.109 C 
ATOM      8  C   UNL     1      -2.594   2.237  24.492  0.00  0.00    +0.108 C 
ATOM      9  C   UNL     1      -3.002  -0.081  25.110  0.00  0.00    +0.104 C 
ATOM     12  C   UNL     1      -4.518   0.127  25.069  0.00  0.00    +0.125 C 
ATOM     13  C   UNL     1      -4.554   3.845  24.947  0.00  0.00    +0.129 C 
ATOM     16  C   UNL     1      -5.845   2.136  25.943  0.00  0.00    +0.303 C 
ATOM     18  H   UNL     1      -6.313   4.215  26.189  0.00  0.00    +0.150 HD
ENDROOT
BRANCH   2   6
ATOM      4  N   UNL     1       1.728   0.620  22.848  0.00  0.00    -0.305 NA
ATOM      6  C   UNL     1      -0.866   0.579  24.203  0.00  0.00    +0.059 C 
ATOM     10  C   UNL     1      -0.467  -0.477  23.168  0.00  0.00    +0.034 C 
ATOM     11  C   UNL     1      -0.101   1.878  23.944  0.00  0.00    +0.034 C 
ATOM     14  C   UNL     1       1.052  -0.656  23.123  0.00  0.00    +0.085 C 
ATOM     15  C   UNL     1       1.406   1.623  23.874  0.00  0.00    +0.085 C 
ATOM     17  C   UNL     1       3.174   0.425  22.759  0.00  0.00    +0.104 C 
ENDBRANCH   2   6
TORSDOF 1
ENDMDL
MODEL 2
REMARK VINA RESULT:      -3.8      1.349      2.241
REMARK  Name = 75368548
REMARK  2 active torsions:
REMARK  status: ('A' for Active; 'I' for Inactive)
REMARK    1  A    between atoms: N_2  and  C_6
REMARK    2  A    between atoms: N_4  and  C_17
REMARK                            x       y       z     vdW  Elec       q    Type
REMARK                         _______ _______ _______ _____ _____    ______ ____
ROOT
ATOM      1  O   UNL     1      -6.136   4.549  25.769  0.00  0.00    -0.253 OA
ATOM      2  N   UNL     1      -1.905   1.907  24.802  0.00  0.00    -0.296 NA
ATOM      3  N   UNL     1      -4.383   2.994  25.568  0.00  0.00    -0.279 N 
ATOM      5  N   UNL     1      -6.492   2.287  25.254  0.00  0.00    -0.297 N 
ATOM      7  C   UNL     1      -4.267   1.560  25.400  0.00  0.00    +0.109 C 
ATOM      8  C   UNL     1      -3.156   1.230  24.404  0.00  0.00    +0.108 C 
ATOM      9  C   UNL     1      -2.086   3.372  24.837  0.00  0.00    +0.104 C 
ATOM     12  C   UNL     1      -3.191   3.777  25.817  0.00  0.00    +0.125 C 
ATOM     13  C   UNL     1      -5.668   1.135  24.966  0.00  0.00    +0.129 C 
ATOM     16  C   UNL     1      -5.714   3.420  25.562  0.00  0.00    +0.303 C 
ATOM     18  H   UNL     1      -7.503   2.304  25.162  0.00  0.00    +0.150 HD
ENDROOT
BRANCH   2   6
ATOM      4  N   UNL     1       1.777   0.282  23.435  0.00  0.00    -0.305 NA
ATOM      6  C   UNL     1      -0.821   1.549  23.890  0.00  0.00    +0.059 C 
ATOM     10  C   UNL     1       0.495   2.206  24.318  0.00  0.00    +0.034 C 
ATOM     11  C   UNL     1      -0.653   0.030  23.835  0.00  0.00    +0.034 C 
ATOM     14  C   UNL     1       1.653   1.747  23.428  0.00  0.00    +0.085 C 
ATOM     15  C   UNL     1       0.542  -0.359  22.961  0.00  0.00    +0.085 C 
ATOM     17  C   UNL     1       2.917  -0.138  22.621  0.00  0.00    +0.104 C 
ENDBRANCH   2   6
TORSDOF 1
ENDMDL
MODEL 3
REMARK VINA RESULT:      -3.2      3.109      4.741
REMARK  Name = 75368548
REMARK  2 active torsions:
REMARK  status: ('A' for Active; 'I' for Inactive)
REMARK    1  A    between atoms: N_2  and  C_6
REMARK    2  A    between atoms: N_4  and  C_17
REMARK                            x       y       z     vdW  Elec       q    Type
REMARK                         _______ _______ _______ _____ _____    ______ ____
ROOT
ATOM      1  O   UNL     1      -0.181   5.785  24.558  0.00  0.00    -0.253 OA
ATOM      2  N   UNL     1      -1.582   0.915  24.926  0.00  0.00    -0.296 NA
ATOM      3  N   UNL     1      -0.991   3.656  25.143  0.00  0.00    -0.279 N 
ATOM      5  N   UNL     1      -2.294   5.446  25.521  0.00  0.00    -0.297 N 
ATOM      7  C   UNL     1      -2.142   3.129  25.846  0.00  0.00    +0.109 C 
ATOM      8  C   UNL     1      -2.676   1.886  25.134  0.00  0.00    +0.108 C 
ATOM      9  C   UNL     1      -0.505   1.502  24.105  0.00  0.00    +0.104 C 
ATOM     12  C   UNL     1       0.078   2.758  24.759  0.00  0.00    +0.125 C 
ATOM     13  C   UNL     1      -3.108   4.309  25.891  0.00  0.00    +0.129 C 
ATOM     16  C   UNL     1      -1.041   5.047  25.019  0.00  0.00    +0.303 C 
ATOM     18  H   UNL     1      -2.615   6.409  25.539  0.00  0.00    +0.150 HD
ENDROOT
BRANCH   2   6
ATOM      4  N   UNL     1      -3.593  -2.807  24.510  0.00  0.00    -0.305 NA
ATOM      6  C   UNL     1      -2.095  -0.301  24.300  0.00  0.00    +0.059 C 
ATOM     10  C   UNL     1      -1.510  -1.550  24.968  0.00  0.00    +0.034 C 
ATOM     11  C   UNL     1      -3.623  -0.335  24.377  0.00  0.00    +0.034 C 
ATOM     14  C   UNL     1      -2.128  -2.824  24.386  0.00  0.00    +0.085 C 
ATOM     15  C   UNL     1      -4.172  -1.649  23.815  0.00  0.00    +0.085 C 
ATOM     17  C   UNL     1      -4.164  -4.051  23.996  0.00  0.00    +0.104 C 
ENDBRANCH   2   6
TORSDOF 1
ENDMDL
MODEL 4
REMARK VINA RESULT:      -2.6     18.948     20.262
REMARK  Name = 75368548
REMARK  2 active torsions:
REMARK  status: ('A' for Active; 'I' for Inactive)
REMARK    1  A    between atoms: N_2  and  C_6
REMARK    2  A    between atoms: N_4  and  C_17
REMARK                            x       y       z     vdW  Elec       q    Type
REMARK                         _______ _______ _______ _____ _____    ______ ____
ROOT
ATOM      1  O   UNL     1      15.731  -0.924  22.323  0.00  0.00    -0.253 OA
ATOM      2  N   UNL     1      17.402  -4.991  24.870  0.00  0.00    -0.296 NA
ATOM      3  N   UNL     1      16.814  -2.512  23.680  0.00  0.00    -0.279 N 
ATOM      5  N   UNL     1      16.307  -0.508  24.560  0.00  0.00    -0.297 N 
ATOM      7  C   UNL     1      17.405  -2.533  25.002  0.00  0.00    +0.109 C 
ATOM      8  C   UNL     1      17.052  -3.835  25.720  0.00  0.00    +0.108 C 
ATOM      9  C   UNL     1      16.668  -4.946  23.590  0.00  0.00    +0.104 C 
ATOM     12  C   UNL     1      16.971  -3.662  22.814  0.00  0.00    +0.125 C 
ATOM     13  C   UNL     1      16.860  -1.268  25.659  0.00  0.00    +0.129 C 
ATOM     16  C   UNL     1      16.228  -1.278  23.383  0.00  0.00    +0.303 C 
ATOM     18  H   UNL     1      15.940   0.434  24.644  0.00  0.00    +0.150 HD
ENDROOT
BRANCH   2   6
ATOM      4  N   UNL     1      15.598  -8.729  25.786  0.00  0.00    -0.305 NA
ATOM      6  C   UNL     1      17.125  -6.242  25.573  0.00  0.00    +0.059 C 
ATOM     10  C   UNL     1      15.682  -6.274  26.086  0.00  0.00    +0.034 C 
ATOM     11  C   UNL     1      17.378  -7.436  24.651  0.00  0.00    +0.034 C 
ATOM     14  C   UNL     1      15.357  -7.626  26.727  0.00  0.00    +0.085 C 
ATOM     15  C   UNL     1      16.998  -8.750  25.338  0.00  0.00    +0.085 C 
ATOM     17  C   UNL     1      15.236 -10.008  26.395  0.00  0.00    +0.104 C 
ENDBRANCH   2   6
TORSDOF 1
ENDMDL
MODEL 5
REMARK VINA RESULT:      -2.1      2.742      6.085
REMARK  Name = 75368548
REMARK  2 active torsions:
REMARK  status: ('A' for Active; 'I' for Inactive)
REMARK    1  A    between atoms: N_2  and  C_6
REMARK    2  A    between atoms: N_4  and  C_17
REMARK                            x       y       z     vdW  Elec       q    Type
REMARK                         _______ _______ _______ _____ _____    ______ ____
ROOT
ATOM      1  O   UNL     1       0.499  -2.267  25.721  0.00  0.00    -0.253 OA
ATOM      2  N   UNL     1      -2.878   0.928  23.669  0.00  0.00    -0.296 NA
ATOM      3  N   UNL     1      -1.166  -1.144  24.494  0.00  0.00    -0.279 N 
ATOM      5  N   UNL     1      -1.577  -3.235  25.207  0.00  0.00    -0.297 N 
ATOM      7  C   UNL     1      -2.449  -1.483  23.915  0.00  0.00    +0.109 C 
ATOM      8  C   UNL     1      -3.449  -0.350  24.140  0.00  0.00    +0.108 C 
ATOM      9  C   UNL     1      -1.632   1.249  24.394  0.00  0.00    +0.104 C 
ATOM     12  C   UNL     1      -0.581   0.150  24.215  0.00  0.00    +0.125 C 
ATOM     13  C   UNL     1      -2.811  -2.804  24.589  0.00  0.00    +0.129 C 
ATOM     16  C   UNL     1      -0.606  -2.214  25.199  0.00  0.00    +0.303 C 
ATOM     18  H   UNL     1      -1.450  -4.130  25.668  0.00  0.00    +0.150 HD
ENDROOT
BRANCH   2   6
ATOM      4  N   UNL     1      -5.186   3.971  25.535  0.00  0.00    -0.305 NA
ATOM      6  C   UNL     1      -3.850   2.008  23.825  0.00  0.00    +0.059 C 
ATOM     10  C   UNL     1      -4.951   1.615  24.814  0.00  0.00    +0.034 C 
ATOM     11  C   UNL     1      -3.154   3.285  24.298  0.00  0.00    +0.034 C 
ATOM     14  C   UNL     1      -5.910   2.783  25.061  0.00  0.00    +0.085 C 
ATOM     15  C   UNL     1      -4.170   4.399  24.562  0.00  0.00    +0.085 C 
ATOM     17  C   UNL     1      -6.119   5.062  25.814  0.00  0.00    +0.104 C 
ENDBRANCH   2   6
TORSDOF 1
ENDMDL
MODEL 6
REMARK VINA RESULT:      -2.1      1.977      2.704
REMARK  Name = 75368548
REMARK  2 active torsions:
REMARK  status: ('A' for Active; 'I' for Inactive)
REMARK    1  A    between atoms: N_2  and  C_6
REMARK    2  A    between atoms: N_4  and  C_17
REMARK                            x       y       z     vdW  Elec       q    Type
REMARK                         _______ _______ _______ _____ _____    ______ ____
ROOT
ATOM      1  O   UNL     1      -6.426   4.021  26.160  0.00  0.00    -0.253 OA
ATOM      2  N   UNL     1      -3.461   0.653  23.775  0.00  0.00    -0.296 NA
ATOM      3  N   UNL     1      -5.023   2.788  24.729  0.00  0.00    -0.279 N 
ATOM      5  N   UNL     1      -4.536   4.946  25.120  0.00  0.00    -0.297 N 
ATOM      7  C   UNL     1      -3.902   3.074  23.858  0.00  0.00    +0.109 C 
ATOM      8  C   UNL     1      -2.842   1.979  23.980  0.00  0.00    +0.108 C 
ATOM      9  C   UNL     1      -4.514   0.402  24.778  0.00  0.00    +0.104 C 
ATOM     12  C   UNL     1      -5.613   1.466  24.715  0.00  0.00    +0.125 C 
ATOM     13  C   UNL     1      -3.447   4.462  24.300  0.00  0.00    +0.129 C 
ATOM     16  C   UNL     1      -5.454   3.922  25.423  0.00  0.00    +0.303 C 
ATOM     18  H   UNL     1      -4.590   5.885  25.502  0.00  0.00    +0.150 HD
ENDROOT
BRANCH   2   6
ATOM      4  N   UNL     1      -0.442  -1.889  25.355  0.00  0.00    -0.305 NA
ATOM      6  C   UNL     1      -2.444  -0.395  23.830  0.00  0.00    +0.059 C 
ATOM     10  C   UNL     1      -1.070   0.190  24.168  0.00  0.00    +0.034 C 
ATOM     11  C   UNL     1      -2.829  -1.454  24.865  0.00  0.00    +0.034 C 
ATOM     14  C   UNL     1      -0.027  -0.917  24.333  0.00  0.00    +0.085 C 
ATOM     15  C   UNL     1      -1.729  -2.508  25.008  0.00  0.00    +0.085 C 
ATOM     17  C   UNL     1       0.586  -2.912  25.537  0.00  0.00    +0.104 C 
ENDBRANCH   2   6
TORSDOF 1
ENDMDL
MODEL 7
REMARK VINA RESULT:      -1.8      3.003      4.823
REMARK  Name = 75368548
REMARK  2 active torsions:
REMARK  status: ('A' for Active; 'I' for Inactive)
REMARK    1  A    between atoms: N_2  and  C_6
REMARK    2  A    between atoms: N_4  and  C_17
REMARK                            x       y       z     vdW  Elec       q    Type
REMARK                         _______ _______ _______ _____ _____    ______ ____
ROOT
ATOM      1  O   UNL     1      -4.351  -3.480  23.777  0.00  0.00    -0.253 OA
ATOM      2  N   UNL     1      -2.978   1.243  25.052  0.00  0.00    -0.296 NA
ATOM      3  N   UNL     1      -3.494  -1.500  24.717  0.00  0.00    -0.279 N 
ATOM      5  N   UNL     1      -2.125  -3.268  24.491  0.00  0.00    -0.297 N 
ATOM      7  C   UNL     1      -2.260  -1.092  25.355  0.00  0.00    +0.109 C 
ATOM      8  C   UNL     1      -1.852   0.302  24.878  0.00  0.00    +0.108 C 
ATOM      9  C   UNL     1      -4.155   0.806  24.275  0.00  0.00    +0.104 C 
ATOM     12  C   UNL     1      -4.619  -0.590  24.699  0.00  0.00    +0.125 C 
ATOM     13  C   UNL     1      -1.282  -2.206  24.994  0.00  0.00    +0.129 C 
ATOM     16  C   UNL     1      -3.443  -2.825  24.272  0.00  0.00    +0.303 C 
ATOM     18  H   UNL     1      -1.792  -4.194  24.244  0.00  0.00    +0.150 HD
ENDROOT
BRANCH   2   6
ATOM      4  N   UNL     1      -0.877   4.939  25.058  0.00  0.00    -0.305 NA
ATOM      6  C   UNL     1      -2.578   2.592  24.655  0.00  0.00    +0.059 C 
ATOM     10  C   UNL     1      -2.819   3.591  25.791  0.00  0.00    +0.034 C 
ATOM     11  C   UNL     1      -1.104   2.611  24.248  0.00  0.00    +0.034 C 
ATOM     14  C   UNL     1      -2.302   4.983  25.417  0.00  0.00    +0.085 C 
ATOM     15  C   UNL     1      -0.642   4.034  23.924  0.00  0.00    +0.085 C 
ATOM     17  C   UNL     1      -0.385   6.281  24.753  0.00  0.00    +0.104 C 
ENDBRANCH   2   6
TORSDOF 1
ENDMDL
MODEL 8
REMARK VINA RESULT:      -1.7      2.712      6.347
REMARK  Name = 75368548
REMARK  2 active torsions:
REMARK  status: ('A' for Active; 'I' for Inactive)
REMARK    1  A    between atoms: N_2  and  C_6
REMARK    2  A    between atoms: N_4  and  C_17
REMARK                            x       y       z     vdW  Elec       q    Type
REMARK                         _______ _______ _______ _____ _____    ______ ____
ROOT
ATOM      1  O   UNL     1       1.285  -1.045  21.278  0.00  0.00    -0.253 OA
ATOM      2  N   UNL     1      -1.468   0.782  25.138  0.00  0.00    -0.296 NA
ATOM      3  N   UNL     1       0.418  -0.167  23.281  0.00  0.00    -0.279 N 
ATOM      5  N   UNL     1       2.260   0.771  22.401  0.00  0.00    -0.297 N 
ATOM      7  C   UNL     1       0.831   0.817  24.260  0.00  0.00    +0.109 C 
ATOM      8  C   UNL     1      -0.364   1.661  24.701  0.00  0.00    +0.108 C 
ATOM      9  C   UNL     1      -1.900  -0.108  24.042  0.00  0.00    +0.104 C 
ATOM     12  C   UNL     1      -0.747  -0.985  23.546  0.00  0.00    +0.125 C 
ATOM     13  C   UNL     1       1.937   1.591  23.548  0.00  0.00    +0.129 C 
ATOM     16  C   UNL     1       1.312  -0.253  22.210  0.00  0.00    +0.303 C 
ATOM     18  H   UNL     1       3.024   0.959  21.760  0.00  0.00    +0.150 HD
ENDROOT
BRANCH   2   6
ATOM      4  N   UNL     1      -4.704   3.539  25.092  0.00  0.00    -0.305 NA
ATOM      6  C   UNL     1      -2.594   1.581  25.619  0.00  0.00    +0.059 C 
ATOM     10  C   UNL     1      -2.303   3.078  25.479  0.00  0.00    +0.034 C 
ATOM     11  C   UNL     1      -3.866   1.222  24.850  0.00  0.00    +0.034 C 
ATOM     14  C   UNL     1      -3.521   3.914  25.880  0.00  0.00    +0.085 C 
ATOM     15  C   UNL     1      -5.034   2.118  25.271  0.00  0.00    +0.085 C 
ATOM     17  C   UNL     1      -5.845   4.379  25.451  0.00  0.00    +0.104 C 
ENDBRANCH   2   6
TORSDOF 1
ENDMDL
MODEL 9
REMARK VINA RESULT:      -1.4      3.110      4.756
REMARK  Name = 75368548
REMARK  2 active torsions:
REMARK  status: ('A' for Active; 'I' for Inactive)
REMARK    1  A    between atoms: N_2  and  C_6
REMARK    2  A    between atoms: N_4  and  C_17
REMARK                            x       y       z     vdW  Elec       q    Type
REMARK                         _______ _______ _______ _____ _____    ______ ____
ROOT
ATOM      1  O   UNL     1      -3.169  -3.870  25.531  0.00  0.00    -0.253 OA
ATOM      2  N   UNL     1      -1.458   0.851  24.751  0.00  0.00    -0.296 NA
ATOM      3  N   UNL     1      -2.492  -1.764  24.729  0.00  0.00    -0.279 N 
ATOM      5  N   UNL     1      -4.470  -2.589  24.056  0.00  0.00    -0.297 N 
ATOM      7  C   UNL     1      -2.971  -0.812  23.749  0.00  0.00    +0.109 C 
ATOM      8  C   UNL     1      -2.839   0.614  24.285  0.00  0.00    +0.108 C 
ATOM      9  C   UNL     1      -1.095  -0.092  25.828  0.00  0.00    +0.104 C 
ATOM     12  C   UNL     1      -1.208  -1.546  25.361  0.00  0.00    +0.125 C 
ATOM     13  C   UNL     1      -4.403  -1.266  23.476  0.00  0.00    +0.129 C 
ATOM     16  C   UNL     1      -3.345  -2.865  24.856  0.00  0.00    +0.303 C 
ATOM     18  H   UNL     1      -5.268  -3.211  23.971  0.00  0.00    +0.150 HD
ENDROOT
BRANCH   2   6
ATOM      4  N   UNL     1      -1.774   5.090  24.800  0.00  0.00    -0.305 NA
ATOM      6  C   UNL     1      -1.306   2.230  25.210  0.00  0.00    +0.059 C 
ATOM     10  C   UNL     1      -0.496   3.055  24.205  0.00  0.00    +0.034 C 
ATOM     11  C   UNL     1      -2.677   2.872  25.427  0.00  0.00    +0.034 C 
ATOM     14  C   UNL     1      -0.428   4.525  24.630  0.00  0.00    +0.085 C 
ATOM     15  C   UNL     1      -2.539   4.347  25.812  0.00  0.00    +0.085 C 
ATOM     17  C   UNL     1      -1.694   6.505  25.156  0.00  0.00    +0.104 C 
ENDBRANCH   2   6
TORSDOF 1
ENDMDL
MODEL 10
REMARK VINA RESULT:      -1.2      2.806      6.780
REMARK  Name = 75368548
REMARK  2 active torsions:
REMARK  status: ('A' for Active; 'I' for Inactive)
REMARK    1  A    between atoms: N_2  and  C_6
REMARK    2  A    between atoms: N_4  and  C_17
REMARK                            x       y       z     vdW  Elec       q    Type
REMARK                         _______ _______ _______ _____ _____    ______ ____
ROOT
ATOM      1  O   UNL     1       3.682   1.342  23.522  0.00  0.00    -0.253 OA
ATOM      2  N   UNL     1      -1.342   1.817  24.115  0.00  0.00    -0.296 NA
ATOM      3  N   UNL     1       1.333   1.355  23.383  0.00  0.00    -0.279 N 
ATOM      5  N   UNL     1       2.436  -0.525  22.836  0.00  0.00    -0.297 N 
ATOM      7  C   UNL     1       0.307   0.458  22.893  0.00  0.00    +0.109 C 
ATOM      8  C   UNL     1      -0.882   0.438  23.853  0.00  0.00    +0.108 C 
ATOM      9  C   UNL     1      -0.265   2.626  24.718  0.00  0.00    +0.104 C 
ATOM     12  C   UNL     1       0.965   2.689  23.809  0.00  0.00    +0.125 C 
ATOM     13  C   UNL     1       1.036  -0.875  22.743  0.00  0.00    +0.129 C 
ATOM     16  C   UNL     1       2.613   0.801  23.276  0.00  0.00    +0.303 C 
ATOM     18  H   UNL     1       3.199  -1.177  22.688  0.00  0.00    +0.150 HD
ENDROOT
BRANCH   2   6
ATOM      4  N   UNL     1      -5.413   2.073  25.311  0.00  0.00    -0.305 NA
ATOM      6  C   UNL     1      -2.517   1.804  24.983  0.00  0.00    +0.059 C 
ATOM     10  C   UNL     1      -3.218   3.166  24.977  0.00  0.00    +0.034 C 
ATOM     11  C   UNL     1      -3.494   0.713  24.540  0.00  0.00    +0.034 C 
ATOM     14  C   UNL     1      -4.508   3.124  25.799  0.00  0.00    +0.085 C 
ATOM     15  C   UNL     1      -4.775   0.750  25.376  0.00  0.00    +0.085 C 
ATOM     17  C   UNL     1      -6.660   2.077  26.074  0.00  0.00    +0.104 C 
ENDBRANCH   2   6
TORSDOF 1
ENDMDL
