MODEL 1
REMARK VINA RESULT:      -3.8      0.000      0.000
REMARK  Name = 75537020
REMARK  3 active torsions:
REMARK  status: ('A' for Active; 'I' for Inactive)
REMARK    1  A    between atoms: N_3  and  C_8
REMARK    2  A    between atoms: N_6  and  C_20
REMARK    3  A    between atoms: C_20  and  C_21
REMARK                            x       y       z     vdW  Elec       q    Type
REMARK                         _______ _______ _______ _____ _____    ______ ____
ROOT
ATOM      1  O   UNL     1      15.489 -10.161  27.953  0.00  0.00    -0.252 OA
ATOM      2  O   UNL     1      17.401  -5.888  22.863  0.00  0.00    -0.253 OA
ATOM      3  N   UNL     1      15.274  -8.041  28.961  0.00  0.00    -0.281 N 
ATOM      4  N   UNL     1      15.868  -8.150  26.796  0.00  0.00    -0.278 N 
ATOM      5  N   UNL     1      17.159  -6.343  25.123  0.00  0.00    -0.282 N 
ATOM      6  N   UNL     1      16.933  -4.147  24.278  0.00  0.00    -0.300 N 
ATOM      7  C   UNL     1      15.710  -6.730  27.062  0.00  0.00    +0.112 C 
ATOM      9  C   UNL     1      15.528  -6.663  28.576  0.00  0.00    +0.133 C 
ATOM     12  C   UNL     1      16.913  -5.959  26.528  0.00  0.00    +0.133 C 
ATOM     13  C   UNL     1      15.534  -8.939  27.906  0.00  0.00    +0.305 C 
ATOM     14  C   UNL     1      16.230  -8.603  25.464  0.00  0.00    +0.128 C 
ATOM     18  C   UNL     1      17.405  -7.781  24.934  0.00  0.00    +0.128 C 
ATOM     19  C   UNL     1      17.181  -5.487  24.011  0.00  0.00    +0.302 C 
ATOM     22  H   UNL     1      16.715  -3.822  25.209  0.00  0.00    +0.150 HD
ENDROOT
BRANCH   3   8
ATOM      8  C   UNL     1      14.938  -8.406  30.316  0.00  0.00    +0.078 C 
ATOM     10  C   UNL     1      13.432  -8.647  30.449  0.00  0.00    +0.022 C 
ATOM     11  C   UNL     1      15.421  -7.338  31.301  0.00  0.00    +0.022 C 
ATOM     15  C   UNL     1      13.042  -8.984  31.886  0.00  0.00    +0.002 C 
ATOM     16  C   UNL     1      15.029  -7.678  32.736  0.00  0.00    +0.002 C 
ATOM     17  C   UNL     1      13.528  -7.920  32.867  0.00  0.00    +0.000 C 
ENDBRANCH   3   8
BRANCH   6  20
ATOM     20  C   UNL     1      16.918  -3.144  23.237  0.00  0.00    +0.102 C 
ATOM     21  C   UNL     1      15.504  -2.712  22.904  0.00  0.00    +0.024 C 
ENDBRANCH   6  20
TORSDOF 2
ENDMDL
MODEL 2
REMARK VINA RESULT:      -1.6     18.301     19.721
REMARK  Name = 75537020
REMARK  3 active torsions:
REMARK  status: ('A' for Active; 'I' for Inactive)
REMARK    1  A    between atoms: N_3  and  C_8
REMARK    2  A    between atoms: N_6  and  C_20
REMARK    3  A    between atoms: C_20  and  C_21
REMARK                            x       y       z     vdW  Elec       q    Type
REMARK                         _______ _______ _______ _____ _____    ______ ____
ROOT
ATOM      1  O   UNL     1      -3.935  -0.666  24.206  0.00  0.00    -0.252 OA
ATOM      2  O   UNL     1       2.882  -1.293  23.231  0.00  0.00    -0.253 OA
ATOM      3  N   UNL     1      -3.237   1.580  24.035  0.00  0.00    -0.281 N 
ATOM      4  N   UNL     1      -1.712  -0.048  23.755  0.00  0.00    -0.278 N 
ATOM      5  N   UNL     1       1.060  -0.063  23.964  0.00  0.00    -0.282 N 
ATOM      6  N   UNL     1       2.971   0.990  23.054  0.00  0.00    -0.300 N 
ATOM      7  C   UNL     1      -0.993   1.182  23.469  0.00  0.00    +0.112 C 
ATOM      9  C   UNL     1      -1.973   2.279  23.878  0.00  0.00    +0.133 C 
ATOM     12  C   UNL     1       0.336   1.200  24.219  0.00  0.00    +0.133 C 
ATOM     13  C   UNL     1      -3.070   0.181  24.017  0.00  0.00    +0.305 C 
ATOM     14  C   UNL     1      -1.033  -1.327  23.645  0.00  0.00    +0.128 C 
ATOM     18  C   UNL     1       0.315  -1.267  24.362  0.00  0.00    +0.128 C 
ATOM     19  C   UNL     1       2.342  -0.196  23.406  0.00  0.00    +0.302 C 
ATOM     22  H   UNL     1       2.517   1.886  23.161  0.00  0.00    +0.150 HD
ENDROOT
BRANCH   3   8
ATOM      8  C   UNL     1      -4.466   2.280  24.319  0.00  0.00    +0.078 C 
ATOM     10  C   UNL     1      -4.173   3.687  24.845  0.00  0.00    +0.022 C 
ATOM     11  C   UNL     1      -5.327   1.485  25.303  0.00  0.00    +0.022 C 
ATOM     15  C   UNL     1      -5.457   4.432  25.204  0.00  0.00    +0.002 C 
ATOM     16  C   UNL     1      -6.609   2.232  25.660  0.00  0.00    +0.002 C 
ATOM     17  C   UNL     1      -6.315   3.636  26.182  0.00  0.00    +0.000 C 
ENDBRANCH   3   8
BRANCH   6  20
ATOM     20  C   UNL     1       4.291   1.016  22.464  0.00  0.00    +0.102 C 
ATOM     21  C   UNL     1       5.344   0.530  23.440  0.00  0.00    +0.024 C 
ENDBRANCH   6  20
TORSDOF 2
ENDMDL
MODEL 3
REMARK VINA RESULT:      -0.1     18.132     19.849
REMARK  Name = 75537020
REMARK  3 active torsions:
REMARK  status: ('A' for Active; 'I' for Inactive)
REMARK    1  A    between atoms: N_3  and  C_8
REMARK    2  A    between atoms: N_6  and  C_20
REMARK    3  A    between atoms: C_20  and  C_21
REMARK                            x       y       z     vdW  Elec       q    Type
REMARK                         _______ _______ _______ _____ _____    ______ ____
ROOT
ATOM      1  O   UNL     1       0.001  -2.134  24.352  0.00  0.00    -0.252 OA
ATOM      2  O   UNL     1      -5.946   1.072  25.826  0.00  0.00    -0.253 OA
ATOM      3  N   UNL     1       0.452   0.092  23.715  0.00  0.00    -0.281 N 
ATOM      4  N   UNL     1      -1.536  -0.381  24.652  0.00  0.00    -0.278 N 
ATOM      5  N   UNL     1      -3.983   0.938  24.600  0.00  0.00    -0.282 N 
ATOM      6  N   UNL     1      -4.951   3.023  25.151  0.00  0.00    -0.300 N 
ATOM      7  C   UNL     1      -1.537   1.064  24.498  0.00  0.00    +0.112 C 
ATOM      9  C   UNL     1      -0.288   1.340  23.665  0.00  0.00    +0.133 C 
ATOM     12  C   UNL     1      -2.846   1.524  23.862  0.00  0.00    +0.133 C 
ATOM     13  C   UNL     1      -0.320  -0.956  24.257  0.00  0.00    +0.305 C 
ATOM     14  C   UNL     1      -2.675  -1.046  25.261  0.00  0.00    +0.128 C 
ATOM     18  C   UNL     1      -3.974  -0.533  24.639  0.00  0.00    +0.128 C 
ATOM     19  C   UNL     1      -5.023   1.639  25.231  0.00  0.00    +0.302 C 
ATOM     22  H   UNL     1      -4.179   3.490  24.698  0.00  0.00    +0.150 HD
ENDROOT
BRANCH   3   8
ATOM      8  C   UNL     1       1.765  -0.042  23.132  0.00  0.00    +0.078 C 
ATOM     10  C   UNL     1       2.601  -1.052  23.923  0.00  0.00    +0.022 C 
ATOM     11  C   UNL     1       2.463   1.317  23.051  0.00  0.00    +0.022 C 
ATOM     15  C   UNL     1       4.015  -1.175  23.359  0.00  0.00    +0.002 C 
ATOM     16  C   UNL     1       3.876   1.191  22.488  0.00  0.00    +0.002 C 
ATOM     17  C   UNL     1       4.708   0.183  23.275  0.00  0.00    +0.000 C 
ENDBRANCH   3   8
BRANCH   6  20
ATOM     20  C   UNL     1      -5.946   3.882  25.754  0.00  0.00    +0.102 C 
ATOM     21  C   UNL     1      -5.866   5.292  25.204  0.00  0.00    +0.024 C 
ENDBRANCH   6  20
TORSDOF 2
ENDMDL
