MODEL 1
REMARK VINA RESULT:      15.1      0.000      0.000
REMARK  Name = 45783339
REMARK  7 active torsions:
REMARK  status: ('A' for Active; 'I' for Inactive)
REMARK    1  A    between atoms: S_1  and  C_33
REMARK    2  A    between atoms: S_1  and  C_36
REMARK    3  A    between atoms: N_6  and  C_16
REMARK    4  A    between atoms: C_12  and  C_20
REMARK    5  A    between atoms: C_16  and  C_23
REMARK    6  A    between atoms: C_17  and  C_25
REMARK    7  A    between atoms: C_26  and  C_28
REMARK                            x       y       z     vdW  Elec       q    Type
REMARK                         _______ _______ _______ _____ _____    ______ ____
ROOT
ATOM      2  O   UNL     1      -2.263   3.213  25.240  0.00  0.00    -0.336 OA
ATOM      8  N   UNL     1      -2.667   2.029  23.383  0.00  0.00    -0.190 NA
ATOM      9  N   UNL     1      -1.071   2.538  24.942  0.00  0.00    -0.056 NA
ATOM     20  C   UNL     1      -3.149   2.856  24.274  0.00  0.00    +0.245 A 
ATOM     26  C   UNL     1      -1.389   1.862  23.834  0.00  0.00    +0.202 A 
ENDROOT
BRANCH  26  28
ATOM      7  N   UNL     1       3.140   0.430  22.973  0.00  0.00    -0.315 N 
ATOM     10  N   UNL     1       1.367  -0.646  21.831  0.00  0.00    -0.240 NA
ATOM     17  C   UNL     1       5.993   0.697  23.440  0.00  0.00    +0.078 C 
ATOM     18  C   UNL     1       5.381   0.865  22.051  0.00  0.00    +0.031 C 
ATOM     19  C   UNL     1       4.966   0.975  24.536  0.00  0.00    +0.031 C 
ATOM     21  C   UNL     1       4.068   0.101  21.884  0.00  0.00    +0.107 C 
ATOM     22  C   UNL     1       3.644   0.232  24.334  0.00  0.00    +0.107 C 
ATOM     24  C   UNL     1       1.771   0.292  22.717  0.00  0.00    +0.122 A 
ATOM     27  C   UNL     1       0.910   1.137  23.399  0.00  0.00    +0.055 A 
ATOM     28  C   UNL     1      -0.454   1.012  23.154  0.00  0.00    +0.027 A 
ATOM     34  C   UNL     1      -0.908   0.059  22.248  0.00  0.00    +0.031 A 
ATOM     35  C   UNL     1       0.035  -0.737  21.618  0.00  0.00    +0.113 A 
BRANCH  17  25
ATOM      3  O   UNL     1       7.520  -1.056  22.877  0.00  0.00    -0.276 OA
ATOM     11  N   UNL     1       6.009  -1.431  24.571  0.00  0.00    -0.329 N 
ATOM     25  C   UNL     1       6.597  -0.669  23.589  0.00  0.00    +0.214 C 
ATOM     37  H   UNL     1       6.337  -2.371  24.762  0.00  0.00    +0.145 HD
ATOM     38  H   UNL     1       5.206  -1.118  25.107  0.00  0.00    +0.145 HD
ENDBRANCH  17  25
ENDBRANCH  26  28
BRANCH  20  12
ATOM      6  N   UNL     1      -5.290   2.966  25.538  0.00  0.00    -0.287 NA
ATOM     12  C   UNL     1      -4.534   3.461  24.372  0.00  0.00    +0.146 C 
ATOM     13  C   UNL     1      -4.503   4.992  24.547  0.00  0.00    +0.030 C 
ATOM     14  C   UNL     1      -5.317   5.264  25.804  0.00  0.00    +0.017 C 
ATOM     15  C   UNL     1      -6.203   4.041  25.928  0.00  0.00    +0.085 C 
BRANCH   6  16
ATOM     16  C   UNL     1      -5.994   1.716  25.279  0.00  0.00    +0.120 C 
BRANCH  16  23
ATOM     23  C   UNL     1      -5.044   0.556  25.140  0.00  0.00    -0.033 A 
ATOM     29  C   UNL     1      -4.122   0.284  26.150  0.00  0.00    +0.007 A 
ATOM     30  C   UNL     1      -5.088  -0.247  24.000  0.00  0.00    +0.007 A 
ATOM     31  C   UNL     1      -3.243  -0.790  26.021  0.00  0.00    +0.027 A 
ATOM     32  C   UNL     1      -4.208  -1.323  23.872  0.00  0.00    +0.027 A 
ATOM     33  C   UNL     1      -3.285  -1.593  24.882  0.00  0.00    +0.088 A 
BRANCH  33   1
ATOM      1  S   UNL     1      -2.186  -2.940  24.723  0.00  0.00    -0.006 S 
ATOM      4  O   UNL     1      -2.482  -3.917  25.763  0.00  0.00    -0.170 OA
ATOM      5  O   UNL     1      -2.182  -3.352  23.327  0.00  0.00    -0.170 OA
ATOM     36  C   UNL     1      -0.588  -2.256  25.096  0.00  0.00    +0.200 C 
ENDBRANCH  33   1
ENDBRANCH  16  23
ENDBRANCH   6  16
ENDBRANCH  20  12
TORSDOF 6
ENDMDL
MODEL 2
REMARK VINA RESULT:      15.1      2.444      4.416
REMARK  Name = 45783339
REMARK  7 active torsions:
REMARK  status: ('A' for Active; 'I' for Inactive)
REMARK    1  A    between atoms: S_1  and  C_33
REMARK    2  A    between atoms: S_1  and  C_36
REMARK    3  A    between atoms: N_6  and  C_16
REMARK    4  A    between atoms: C_12  and  C_20
REMARK    5  A    between atoms: C_16  and  C_23
REMARK    6  A    between atoms: C_17  and  C_25
REMARK    7  A    between atoms: C_26  and  C_28
REMARK                            x       y       z     vdW  Elec       q    Type
REMARK                         _______ _______ _______ _____ _____    ______ ____
ROOT
ATOM      2  O   UNL     1      -1.552  -1.168  25.797  0.00  0.00    -0.336 OA
ATOM      8  N   UNL     1      -1.588  -1.372  23.567  0.00  0.00    -0.190 NA
ATOM      9  N   UNL     1      -0.300  -0.730  25.346  0.00  0.00    -0.056 NA
ATOM     20  C   UNL     1      -2.247  -1.529  24.686  0.00  0.00    +0.245 A 
ATOM     26  C   UNL     1      -0.399  -0.879  24.022  0.00  0.00    +0.202 A 
ENDROOT
BRANCH  26  28
ATOM      7  N   UNL     1       4.278  -0.021  23.190  0.00  0.00    -0.315 N 
ATOM     10  N   UNL     1       2.757   0.098  21.380  0.00  0.00    -0.240 NA
ATOM     17  C   UNL     1       7.000   0.236  24.168  0.00  0.00    +0.078 C 
ATOM     18  C   UNL     1       6.276   1.389  23.475  0.00  0.00    +0.031 C 
ATOM     19  C   UNL     1       6.010  -0.749  24.786  0.00  0.00    +0.031 C 
ATOM     21  C   UNL     1       5.186   0.914  22.515  0.00  0.00    +0.107 C 
ATOM     22  C   UNL     1       4.902  -1.185  23.824  0.00  0.00    +0.107 C 
ATOM     24  C   UNL     1       2.972  -0.121  22.696  0.00  0.00    +0.122 A 
ATOM     27  C   UNL     1       1.975  -0.444  23.602  0.00  0.00    +0.055 A 
ATOM     28  C   UNL     1       0.672  -0.547  23.126  0.00  0.00    +0.027 A 
ATOM     34  C   UNL     1       0.411  -0.327  21.778  0.00  0.00    +0.031 A 
ATOM     35  C   UNL     1       1.478  -0.009  20.954  0.00  0.00    +0.113 A 
BRANCH  17  25
ATOM      3  O   UNL     1       7.543  -1.301  22.417  0.00  0.00    -0.276 OA
ATOM     11  N   UNL     1       9.243  -0.053  23.336  0.00  0.00    -0.329 N 
ATOM     25  C   UNL     1       7.932  -0.452  23.214  0.00  0.00    +0.214 C 
ATOM     37  H   UNL     1       9.962  -0.449  22.740  0.00  0.00    +0.145 HD
ATOM     38  H   UNL     1       9.557   0.604  24.042  0.00  0.00    +0.145 HD
ENDBRANCH  17  25
ENDBRANCH  26  28
BRANCH  20  12
ATOM      6  N   UNL     1      -4.618  -1.503  23.931  0.00  0.00    -0.287 NA
ATOM     12  C   UNL     1      -3.654  -2.045  24.908  0.00  0.00    +0.146 C 
ATOM     13  C   UNL     1      -3.757  -3.574  24.753  0.00  0.00    +0.030 C 
ATOM     14  C   UNL     1      -4.845  -3.795  23.712  0.00  0.00    +0.017 C 
ATOM     15  C   UNL     1      -5.659  -2.519  23.770  0.00  0.00    +0.085 C 
BRANCH   6  16
ATOM     16  C   UNL     1      -5.168  -0.211  24.321  0.00  0.00    +0.120 C 
BRANCH  16  23
ATOM     23  C   UNL     1      -4.100   0.843  24.430  0.00  0.00    -0.033 A 
ATOM     29  C   UNL     1      -3.357   1.203  23.306  0.00  0.00    +0.007 A 
ATOM     30  C   UNL     1      -3.854   1.462  25.656  0.00  0.00    +0.007 A 
ATOM     31  C   UNL     1      -2.366   2.179  23.407  0.00  0.00    +0.027 A 
ATOM     32  C   UNL     1      -2.863   2.439  25.757  0.00  0.00    +0.027 A 
ATOM     33  C   UNL     1      -2.119   2.797  24.632  0.00  0.00    +0.088 A 
BRANCH  33   1
ATOM      1  S   UNL     1      -0.882   4.023  24.758  0.00  0.00    -0.006 S 
ATOM      4  O   UNL     1      -0.180   4.117  23.485  0.00  0.00    -0.170 OA
ATOM      5  O   UNL     1      -1.489   5.213  25.337  0.00  0.00    -0.170 OA
ATOM     36  C   UNL     1       0.273   3.367  25.939  0.00  0.00    +0.200 C 
ENDBRANCH  33   1
ENDBRANCH  16  23
ENDBRANCH   6  16
ENDBRANCH  20  12
TORSDOF 6
ENDMDL
MODEL 3
REMARK VINA RESULT:      15.9      2.695      3.891
REMARK  Name = 45783339
REMARK  7 active torsions:
REMARK  status: ('A' for Active; 'I' for Inactive)
REMARK    1  A    between atoms: S_1  and  C_33
REMARK    2  A    between atoms: S_1  and  C_36
REMARK    3  A    between atoms: N_6  and  C_16
REMARK    4  A    between atoms: C_12  and  C_20
REMARK    5  A    between atoms: C_16  and  C_23
REMARK    6  A    between atoms: C_17  and  C_25
REMARK    7  A    between atoms: C_26  and  C_28
REMARK                            x       y       z     vdW  Elec       q    Type
REMARK                         _______ _______ _______ _____ _____    ______ ____
ROOT
ATOM      2  O   UNL     1      -5.177   1.109  24.867  0.00  0.00    -0.336 OA
ATOM      8  N   UNL     1      -3.020   1.651  25.135  0.00  0.00    -0.190 NA
ATOM      9  N   UNL     1      -4.441  -0.012  24.461  0.00  0.00    -0.056 NA
ATOM     20  C   UNL     1      -4.264   2.041  25.247  0.00  0.00    +0.245 A 
ATOM     26  C   UNL     1      -3.179   0.385  24.649  0.00  0.00    +0.202 A 
ENDROOT
BRANCH  26  28
ATOM      7  N   UNL     1       1.404  -0.179  23.241  0.00  0.00    -0.315 N 
ATOM     10  N   UNL     1       0.139  -2.100  23.800  0.00  0.00    -0.240 NA
ATOM     17  C   UNL     1       3.908   0.962  22.315  0.00  0.00    +0.078 C 
ATOM     18  C   UNL     1       3.133  -0.064  21.491  0.00  0.00    +0.031 C 
ATOM     19  C   UNL     1       2.989   1.708  23.280  0.00  0.00    +0.031 C 
ATOM     21  C   UNL     1       2.257  -0.975  22.350  0.00  0.00    +0.107 C 
ATOM     22  C   UNL     1       2.092   0.783  24.105  0.00  0.00    +0.107 C 
ATOM     24  C   UNL     1       0.203  -0.756  23.669  0.00  0.00    +0.122 A 
ATOM     27  C   UNL     1      -0.853   0.101  23.934  0.00  0.00    +0.055 A 
ATOM     28  C   UNL     1      -2.053  -0.458  24.360  0.00  0.00    +0.027 A 
ATOM     34  C   UNL     1      -2.159  -1.837  24.505  0.00  0.00    +0.031 A 
ATOM     35  C   UNL     1      -1.044  -2.608  24.214  0.00  0.00    +0.113 A 
BRANCH  17  25
ATOM      3  O   UNL     1       5.889  -0.372  22.457  0.00  0.00    -0.276 OA
ATOM     11  N   UNL     1       5.036   0.520  24.398  0.00  0.00    -0.329 N 
ATOM     25  C   UNL     1       5.047   0.305  23.040  0.00  0.00    +0.214 C 
ATOM     37  H   UNL     1       5.759   0.125  24.990  0.00  0.00    +0.145 HD
ATOM     38  H   UNL     1       4.297   1.030  24.871  0.00  0.00    +0.145 HD
ENDBRANCH  17  25
ENDBRANCH  26  28
BRANCH  20  12
ATOM      6  N   UNL     1      -4.754   4.420  24.707  0.00  0.00    -0.287 NA
ATOM     12  C   UNL     1      -4.814   3.365  25.736  0.00  0.00    +0.146 C 
ATOM     13  C   UNL     1      -6.303   3.282  26.125  0.00  0.00    +0.030 C 
ATOM     14  C   UNL     1      -6.987   4.368  25.308  0.00  0.00    +0.017 C 
ATOM     15  C   UNL     1      -5.865   5.332  24.983  0.00  0.00    +0.085 C 
BRANCH   6  16
ATOM     16  C   UNL     1      -3.472   5.114  24.668  0.00  0.00    +0.120 C 
BRANCH  16  23
ATOM     23  C   UNL     1      -2.432   4.417  25.505  0.00  0.00    -0.033 A 
ATOM     29  C   UNL     1      -2.676   4.169  26.856  0.00  0.00    +0.007 A 
ATOM     30  C   UNL     1      -1.226   4.020  24.930  0.00  0.00    +0.007 A 
ATOM     31  C   UNL     1      -1.713   3.525  27.632  0.00  0.00    +0.027 A 
ATOM     32  C   UNL     1      -0.262   3.375  25.706  0.00  0.00    +0.027 A 
ATOM     33  C   UNL     1      -0.506   3.128  27.057  0.00  0.00    +0.088 A 
BRANCH  33   1
ATOM      1  S   UNL     1       0.698   2.317  28.027  0.00  0.00    -0.006 S 
ATOM      4  O   UNL     1       0.390   0.893  28.069  0.00  0.00    -0.170 OA
ATOM      5  O   UNL     1       2.009   2.760  27.575  0.00  0.00    -0.170 OA
ATOM     36  C   UNL     1       0.443   2.950  29.669  0.00  0.00    +0.200 C 
ENDBRANCH  33   1
ENDBRANCH  16  23
ENDBRANCH   6  16
ENDBRANCH  20  12
TORSDOF 6
ENDMDL
MODEL 4
REMARK VINA RESULT:      16.7      2.414      4.062
REMARK  Name = 45783339
REMARK  7 active torsions:
REMARK  status: ('A' for Active; 'I' for Inactive)
REMARK    1  A    between atoms: S_1  and  C_33
REMARK    2  A    between atoms: S_1  and  C_36
REMARK    3  A    between atoms: N_6  and  C_16
REMARK    4  A    between atoms: C_12  and  C_20
REMARK    5  A    between atoms: C_16  and  C_23
REMARK    6  A    between atoms: C_17  and  C_25
REMARK    7  A    between atoms: C_26  and  C_28
REMARK                            x       y       z     vdW  Elec       q    Type
REMARK                         _______ _______ _______ _____ _____    ______ ____
ROOT
ATOM      2  O   UNL     1      -5.339   0.543  24.440  0.00  0.00    -0.336 OA
ATOM      8  N   UNL     1      -3.532   0.364  25.751  0.00  0.00    -0.190 NA
ATOM      9  N   UNL     1      -4.420  -0.241  23.730  0.00  0.00    -0.056 NA
ATOM     20  C   UNL     1      -4.737   0.857  25.617  0.00  0.00    +0.245 A 
ATOM     26  C   UNL     1      -3.381  -0.302  24.569  0.00  0.00    +0.202 A 
ENDROOT
BRANCH  26  28
ATOM      7  N   UNL     1       1.255  -0.355  23.223  0.00  0.00    -0.315 N 
ATOM     10  N   UNL     1       0.167  -2.415  23.648  0.00  0.00    -0.240 NA
ATOM     17  C   UNL     1       3.654   1.065  22.413  0.00  0.00    +0.078 C 
ATOM     18  C   UNL     1       2.990   0.021  21.517  0.00  0.00    +0.031 C 
ATOM     19  C   UNL     1       2.655   1.666  23.400  0.00  0.00    +0.031 C 
ATOM     21  C   UNL     1       2.191  -1.016  22.306  0.00  0.00    +0.107 C 
ATOM     22  C   UNL     1       1.836   0.615  24.153  0.00  0.00    +0.107 C 
ATOM     24  C   UNL     1       0.107  -1.065  23.594  0.00  0.00    +0.122 A 
ATOM     27  C   UNL     1      -1.029  -0.327  23.886  0.00  0.00    +0.055 A 
ATOM     28  C   UNL     1      -2.177  -1.019  24.255  0.00  0.00    +0.027 A 
ATOM     34  C   UNL     1      -2.155  -2.407  24.321  0.00  0.00    +0.031 A 
ATOM     35  C   UNL     1      -0.969  -3.053  24.010  0.00  0.00    +0.113 A 
BRANCH  17  25
ATOM      3  O   UNL     1       5.617  -0.293  22.566  0.00  0.00    -0.276 OA
ATOM     11  N   UNL     1       4.946   0.864  24.437  0.00  0.00    -0.329 N 
ATOM     25  C   UNL     1       4.838   0.476  23.122  0.00  0.00    +0.214 C 
ATOM     37  H   UNL     1       5.709   0.530  25.015  0.00  0.00    +0.145 HD
ATOM     38  H   UNL     1       4.258   1.451  24.898  0.00  0.00    +0.145 HD
ENDBRANCH  17  25
ENDBRANCH  26  28
BRANCH  20  12
ATOM      6  N   UNL     1      -6.637   2.436  25.913  0.00  0.00    -0.287 NA
ATOM     12  C   UNL     1      -5.537   1.711  26.578  0.00  0.00    +0.146 C 
ATOM     13  C   UNL     1      -6.223   0.882  27.680  0.00  0.00    +0.030 C 
ATOM     14  C   UNL     1      -7.697   1.253  27.595  0.00  0.00    +0.017 C 
ATOM     15  C   UNL     1      -7.686   2.608  26.919  0.00  0.00    +0.085 C 
BRANCH   6  16
ATOM     16  C   UNL     1      -6.221   3.706  25.332  0.00  0.00    +0.120 C 
BRANCH  16  23
ATOM     23  C   UNL     1      -4.727   3.781  25.158  0.00  0.00    -0.033 A 
ATOM     29  C   UNL     1      -3.919   4.171  26.226  0.00  0.00    +0.007 A 
ATOM     30  C   UNL     1      -4.152   3.459  23.929  0.00  0.00    +0.007 A 
ATOM     31  C   UNL     1      -2.536   4.241  26.065  0.00  0.00    +0.027 A 
ATOM     32  C   UNL     1      -2.768   3.528  23.768  0.00  0.00    +0.027 A 
ATOM     33  C   UNL     1      -1.960   3.920  24.836  0.00  0.00    +0.088 A 
BRANCH  33   1
ATOM      1  S   UNL     1      -0.228   4.003  24.636  0.00  0.00    -0.006 S 
ATOM      4  O   UNL     1       0.146   3.260  23.439  0.00  0.00    -0.170 OA
ATOM      5  O   UNL     1       0.173   5.395  24.776  0.00  0.00    -0.170 OA
ATOM     36  C   UNL     1       0.422   3.105  26.026  0.00  0.00    +0.200 C 
ENDBRANCH  33   1
ENDBRANCH  16  23
ENDBRANCH   6  16
ENDBRANCH  20  12
TORSDOF 6
ENDMDL
MODEL 5
REMARK VINA RESULT:      16.7      2.643      8.716
REMARK  Name = 45783339
REMARK  7 active torsions:
REMARK  status: ('A' for Active; 'I' for Inactive)
REMARK    1  A    between atoms: S_1  and  C_33
REMARK    2  A    between atoms: S_1  and  C_36
REMARK    3  A    between atoms: N_6  and  C_16
REMARK    4  A    between atoms: C_12  and  C_20
REMARK    5  A    between atoms: C_16  and  C_23
REMARK    6  A    between atoms: C_17  and  C_25
REMARK    7  A    between atoms: C_26  and  C_28
REMARK                            x       y       z     vdW  Elec       q    Type
REMARK                         _______ _______ _______ _____ _____    ______ ____
ROOT
ATOM      2  O   UNL     1       1.928  -2.274  24.962  0.00  0.00    -0.336 OA
ATOM      8  N   UNL     1       0.624  -1.072  23.594  0.00  0.00    -0.190 NA
ATOM      9  N   UNL     1       0.608  -2.538  25.351  0.00  0.00    -0.056 NA
ATOM     20  C   UNL     1       1.847  -1.402  23.923  0.00  0.00    +0.245 A 
ATOM     26  C   UNL     1      -0.102  -1.794  24.497  0.00  0.00    +0.202 A 
ENDROOT
BRANCH  26  28
ATOM      7  N   UNL     1      -4.222   0.573  25.350  0.00  0.00    -0.315 N 
ATOM     10  N   UNL     1      -4.330  -1.658  24.565  0.00  0.00    -0.240 NA
ATOM     17  C   UNL     1      -5.611   2.963  26.237  0.00  0.00    +0.078 C 
ATOM     18  C   UNL     1      -5.803   1.613  26.925  0.00  0.00    +0.031 C 
ATOM     19  C   UNL     1      -4.267   3.032  25.514  0.00  0.00    +0.031 C 
ATOM     21  C   UNL     1      -5.532   0.430  25.996  0.00  0.00    +0.107 C 
ATOM     22  C   UNL     1      -3.994   1.822  24.619  0.00  0.00    +0.107 C 
ATOM     24  C   UNL     1      -3.577  -0.598  24.935  0.00  0.00    +0.122 A 
ATOM     27  C   UNL     1      -2.191  -0.591  24.931  0.00  0.00    +0.055 A 
ATOM     28  C   UNL     1      -1.536  -1.748  24.521  0.00  0.00    +0.027 A 
ATOM     34  C   UNL     1      -2.276  -2.859  24.134  0.00  0.00    +0.031 A 
ATOM     35  C   UNL     1      -3.658  -2.765  24.174  0.00  0.00    +0.113 A 
BRANCH  17  25
ATOM      3  O   UNL     1      -7.365   2.349  24.731  0.00  0.00    -0.276 OA
ATOM     11  N   UNL     1      -7.015   4.585  25.139  0.00  0.00    -0.329 N 
ATOM     25  C   UNL     1      -6.750   3.246  25.301  0.00  0.00    +0.214 C 
ATOM     37  H   UNL     1      -7.766   4.895  24.532  0.00  0.00    +0.145 HD
ATOM     38  H   UNL     1      -6.457   5.315  25.570  0.00  0.00    +0.145 HD
ENDBRANCH  17  25
ENDBRANCH  26  28
BRANCH  20  12
ATOM      6  N   UNL     1       3.467   0.460  23.602  0.00  0.00    -0.287 NA
ATOM     12  C   UNL     1       3.159  -0.954  23.314  0.00  0.00    +0.146 C 
ATOM     13  C   UNL     1       4.367  -1.738  23.863  0.00  0.00    +0.030 C 
ATOM     14  C   UNL     1       5.325  -0.676  24.384  0.00  0.00    +0.017 C 
ATOM     15  C   UNL     1       4.926   0.571  23.621  0.00  0.00    +0.085 C 
BRANCH   6  16
ATOM     16  C   UNL     1       2.858   1.386  22.656  0.00  0.00    +0.120 C 
BRANCH  16  23
ATOM     23  C   UNL     1       1.747   2.182  23.286  0.00  0.00    -0.033 A 
ATOM     29  C   UNL     1       0.962   1.613  24.288  0.00  0.00    +0.007 A 
ATOM     30  C   UNL     1       1.503   3.490  22.867  0.00  0.00    +0.007 A 
ATOM     31  C   UNL     1      -0.068   2.350  24.871  0.00  0.00    +0.027 A 
ATOM     32  C   UNL     1       0.473   4.229  23.451  0.00  0.00    +0.027 A 
ATOM     33  C   UNL     1      -0.313   3.658  24.452  0.00  0.00    +0.088 A 
BRANCH  33   1
ATOM      1  S   UNL     1      -1.599   4.583  25.186  0.00  0.00    -0.006 S 
ATOM      4  O   UNL     1      -2.020   3.917  26.412  0.00  0.00    -0.170 OA
ATOM      5  O   UNL     1      -1.181   5.976  25.228  0.00  0.00    -0.170 OA
ATOM     36  C   UNL     1      -2.950   4.451  24.037  0.00  0.00    +0.200 C 
ENDBRANCH  33   1
ENDBRANCH  16  23
ENDBRANCH   6  16
ENDBRANCH  20  12
TORSDOF 6
ENDMDL
