MODEL 1
REMARK VINA RESULT:      -0.2      0.000      0.000
REMARK  Name = 45783981
REMARK  14 active torsions:
REMARK  status: ('A' for Active; 'I' for Inactive)
REMARK    1  A    between atoms: N_2  and  C_13
REMARK    2  A    between atoms: N_2  and  C_19
REMARK    3  A    between atoms: N_5  and  C_28
REMARK    4  A    between atoms: N_5  and  C_29
REMARK    5  A    between atoms: N_5  and  C_30
REMARK    6  A    between atoms: C_6  and  C_10
REMARK    7  A    between atoms: C_7  and  C_13
REMARK    8  A    between atoms: C_9  and  C_14
REMARK    9  A    between atoms: C_10  and  C_15
REMARK   10  A    between atoms: C_10  and  C_16
REMARK   11  A    between atoms: C_11  and  C_17
REMARK   12  A    between atoms: C_14  and  C_18
REMARK   13  A    between atoms: C_19  and  C_21
REMARK   14  A    between atoms: C_20  and  C_22
REMARK                            x       y       z     vdW  Elec       q    Type
REMARK                         _______ _______ _______ _____ _____    ______ ____
ROOT
ATOM      6  C   UNL     1      -3.599   2.254  24.085  0.00  0.00    +0.000 C 
ATOM      7  C   UNL     1      -4.409   3.455  24.636  0.00  0.00    +0.029 C 
ATOM      8  C   UNL     1      -4.513   1.035  23.890  0.00  0.00    +0.012 C 
ATOM      9  C   UNL     1      -5.196   0.602  25.200  0.00  0.00    +0.024 C 
ATOM     11  C   UNL     1      -5.791   1.782  25.942  0.00  0.00    -0.073 C 
ATOM     12  C   UNL     1      -5.437   3.050  25.667  0.00  0.00    -0.023 C 
ATOM     17  C   UNL     1      -6.838   1.474  26.976  0.00  0.00    +0.039 C 
ENDROOT
BRANCH   6  10
ATOM     10  C   UNL     1      -2.901   2.597  22.765  0.00  0.00    -0.013 C 
ATOM     15  C   UNL     1      -3.803   3.472  21.899  0.00  0.00    +0.007 C 
ATOM     16  C   UNL     1      -2.509   1.323  22.023  0.00  0.00    +0.007 C 
ENDBRANCH   6  10
BRANCH   7  13
ATOM     13  C   UNL     1      -3.482   4.521  25.231  0.00  0.00    +0.089 C 
BRANCH  13   2
ATOM      2  N   UNL     1      -2.844   4.030  26.440  0.00  0.00    -0.305 NA
ATOM     31  H   UNL     1      -2.760   4.782  27.122  0.00  0.00    +0.123 HD
BRANCH   2  19
ATOM     19  C   UNL     1      -1.517   3.496  26.152  0.00  0.00    +0.170 C 
BRANCH  19  21
ATOM     21  C   UNL     1      -0.836   4.307  25.137  0.00  0.00    -0.090 C 
ATOM     25  C   UNL     1      -0.279   4.976  24.312  0.00  0.00    +0.005 C 
ENDBRANCH  19  21
ENDBRANCH   2  19
ENDBRANCH  13   2
ENDBRANCH   7  13
BRANCH   9  14
ATOM     14  C   UNL     1      -4.226  -0.177  26.097  0.00  0.00    +0.105 C 
BRANCH  14  18
ATOM      1  O   UNL     1      -2.000  -0.069  25.106  0.00  0.00    -0.420 OA
ATOM      3  N   UNL     1      -3.076  -1.995  24.733  0.00  0.00    -0.112 NA
ATOM      4  N   UNL     1      -1.840  -2.071  24.120  0.00  0.00    -0.107 NA
ATOM     18  C   UNL     1      -3.125  -0.809  25.296  0.00  0.00    +0.218 A 
ATOM     20  C   UNL     1      -1.246  -0.926  24.364  0.00  0.00    +0.248 A 
BRANCH  20  22
ATOM     22  C   UNL     1       0.050  -0.448  23.976  0.00  0.00    +0.039 A 
ATOM     23  C   UNL     1       1.003  -1.339  23.483  0.00  0.00    +0.015 A 
ATOM     24  C   UNL     1       0.356   0.908  24.092  0.00  0.00    +0.015 A 
ATOM     26  C   UNL     1       2.263  -0.873  23.105  0.00  0.00    +0.024 A 
ATOM     27  C   UNL     1       1.615   1.374  23.715  0.00  0.00    +0.024 A 
ATOM     28  C   UNL     1       2.569   0.483  23.221  0.00  0.00    +0.029 A 
BRANCH  28   5
ATOM      5  N   UNL     1       3.843   0.952  22.842  0.00  0.00    -0.336 N 
ATOM     29  C   UNL     1       5.034   0.194  23.174  0.00  0.00    +0.129 C 
ATOM     30  C   UNL     1       3.981   2.203  22.123  0.00  0.00    +0.129 C 
ENDBRANCH  28   5
ENDBRANCH  20  22
ENDBRANCH  14  18
ENDBRANCH   9  14
TORSDOF 9
ENDMDL
MODEL 2
REMARK VINA RESULT:       2.3      1.976      2.969
REMARK  Name = 45783981
REMARK  14 active torsions:
REMARK  status: ('A' for Active; 'I' for Inactive)
REMARK    1  A    between atoms: N_2  and  C_13
REMARK    2  A    between atoms: N_2  and  C_19
REMARK    3  A    between atoms: N_5  and  C_28
REMARK    4  A    between atoms: N_5  and  C_29
REMARK    5  A    between atoms: N_5  and  C_30
REMARK    6  A    between atoms: C_6  and  C_10
REMARK    7  A    between atoms: C_7  and  C_13
REMARK    8  A    between atoms: C_9  and  C_14
REMARK    9  A    between atoms: C_10  and  C_15
REMARK   10  A    between atoms: C_10  and  C_16
REMARK   11  A    between atoms: C_11  and  C_17
REMARK   12  A    between atoms: C_14  and  C_18
REMARK   13  A    between atoms: C_19  and  C_21
REMARK   14  A    between atoms: C_20  and  C_22
REMARK                            x       y       z     vdW  Elec       q    Type
REMARK                         _______ _______ _______ _____ _____    ______ ____
ROOT
ATOM      6  C   UNL     1      -1.803   3.879  24.790  0.00  0.00    +0.000 C 
ATOM      7  C   UNL     1      -1.989   3.430  26.261  0.00  0.00    +0.029 C 
ATOM      8  C   UNL     1      -3.049   4.627  24.296  0.00  0.00    +0.012 C 
ATOM      9  C   UNL     1      -4.321   3.764  24.385  0.00  0.00    +0.024 C 
ATOM     11  C   UNL     1      -4.437   3.069  25.726  0.00  0.00    -0.073 C 
ATOM     12  C   UNL     1      -3.388   2.941  26.557  0.00  0.00    -0.023 C 
ATOM     17  C   UNL     1      -5.800   2.564  26.112  0.00  0.00    +0.039 C 
ENDROOT
BRANCH   6  10
ATOM     10  C   UNL     1      -0.563   4.763  24.618  0.00  0.00    -0.013 C 
ATOM     15  C   UNL     1      -0.897   6.215  24.946  0.00  0.00    +0.007 C 
ATOM     16  C   UNL     1      -0.016   4.641  23.199  0.00  0.00    +0.007 C 
ENDBRANCH   6  10
BRANCH   7  13
ATOM     13  C   UNL     1      -0.977   2.343  26.641  0.00  0.00    +0.089 C 
BRANCH  13   2
ATOM      2  N   UNL     1       0.245   2.937  27.156  0.00  0.00    -0.305 NA
ATOM     31  H   UNL     1       0.998   2.834  26.476  0.00  0.00    +0.123 HD
BRANCH   2  19
ATOM     19  C   UNL     1       0.646   2.309  28.410  0.00  0.00    +0.170 C 
BRANCH  19  21
ATOM     21  C   UNL     1       1.997   2.727  28.795  0.00  0.00    -0.090 C 
ATOM     25  C   UNL     1       3.106   3.065  29.106  0.00  0.00    +0.005 C 
ENDBRANCH  19  21
ENDBRANCH   2  19
ENDBRANCH  13   2
ENDBRANCH   7  13
BRANCH   9  14
ATOM     14  C   UNL     1      -4.384   2.752  23.235  0.00  0.00    +0.105 C 
BRANCH  14  18
ATOM      1  O   UNL     1      -2.173   1.723  23.318  0.00  0.00    -0.420 OA
ATOM      3  N   UNL     1      -3.844   0.353  23.900  0.00  0.00    -0.112 NA
ATOM      4  N   UNL     1      -2.661  -0.355  23.991  0.00  0.00    -0.107 NA
ATOM     18  C   UNL     1      -3.512   1.560  23.505  0.00  0.00    +0.218 A 
ATOM     20  C   UNL     1      -1.713   0.483  23.643  0.00  0.00    +0.248 A 
BRANCH  20  22
ATOM     22  C   UNL     1      -0.293   0.299  23.554  0.00  0.00    +0.039 A 
ATOM     23  C   UNL     1       0.239  -0.988  23.466  0.00  0.00    +0.015 A 
ATOM     24  C   UNL     1       0.556   1.406  23.554  0.00  0.00    +0.015 A 
ATOM     26  C   UNL     1       1.620  -1.167  23.378  0.00  0.00    +0.024 A 
ATOM     27  C   UNL     1       1.936   1.227  23.466  0.00  0.00    +0.024 A 
ATOM     28  C   UNL     1       2.468  -0.060  23.378  0.00  0.00    +0.029 A 
BRANCH  28   5
ATOM      5  N   UNL     1       3.863  -0.241  23.292  0.00  0.00    -0.336 N 
ATOM     29  C   UNL     1       4.475  -1.467  23.770  0.00  0.00    +0.129 C 
ATOM     30  C   UNL     1       4.706   0.797  22.733  0.00  0.00    +0.129 C 
ENDBRANCH  28   5
ENDBRANCH  20  22
ENDBRANCH  14  18
ENDBRANCH   9  14
TORSDOF 9
ENDMDL
MODEL 3
REMARK VINA RESULT:       2.5      1.844      4.076
REMARK  Name = 45783981
REMARK  14 active torsions:
REMARK  status: ('A' for Active; 'I' for Inactive)
REMARK    1  A    between atoms: N_2  and  C_13
REMARK    2  A    between atoms: N_2  and  C_19
REMARK    3  A    between atoms: N_5  and  C_28
REMARK    4  A    between atoms: N_5  and  C_29
REMARK    5  A    between atoms: N_5  and  C_30
REMARK    6  A    between atoms: C_6  and  C_10
REMARK    7  A    between atoms: C_7  and  C_13
REMARK    8  A    between atoms: C_9  and  C_14
REMARK    9  A    between atoms: C_10  and  C_15
REMARK   10  A    between atoms: C_10  and  C_16
REMARK   11  A    between atoms: C_11  and  C_17
REMARK   12  A    between atoms: C_14  and  C_18
REMARK   13  A    between atoms: C_19  and  C_21
REMARK   14  A    between atoms: C_20  and  C_22
REMARK                            x       y       z     vdW  Elec       q    Type
REMARK                         _______ _______ _______ _____ _____    ______ ____
ROOT
ATOM      6  C   UNL     1      -3.266   0.875  25.323  0.00  0.00    +0.000 C 
ATOM      7  C   UNL     1      -4.785   0.619  25.490  0.00  0.00    +0.029 C 
ATOM      8  C   UNL     1      -2.847   2.136  26.093  0.00  0.00    +0.012 C 
ATOM      9  C   UNL     1      -3.607   3.389  25.619  0.00  0.00    +0.024 C 
ATOM     11  C   UNL     1      -5.096   3.132  25.500  0.00  0.00    -0.073 C 
ATOM     12  C   UNL     1      -5.605   1.888  25.457  0.00  0.00    -0.023 C 
ATOM     17  C   UNL     1      -5.992   4.340  25.477  0.00  0.00    +0.039 C 
ENDROOT
BRANCH   6  10
ATOM     10  C   UNL     1      -2.433  -0.322  25.793  0.00  0.00    -0.013 C 
ATOM     15  C   UNL     1      -3.163  -1.073  26.903  0.00  0.00    +0.007 C 
ATOM     16  C   UNL     1      -1.058   0.139  26.266  0.00  0.00    +0.007 C 
ENDBRANCH   6  10
BRANCH   7  13
ATOM     13  C   UNL     1      -5.303  -0.351  24.422  0.00  0.00    +0.089 C 
BRANCH  13   2
ATOM      2  N   UNL     1      -4.213  -0.820  23.583  0.00  0.00    -0.305 NA
ATOM     31  H   UNL     1      -4.347  -0.501  22.624  0.00  0.00    +0.123 HD
BRANCH   2  19
ATOM     19  C   UNL     1      -4.133  -2.277  23.595  0.00  0.00    +0.170 C 
BRANCH  19  21
ATOM     21  C   UNL     1      -2.774  -2.722  23.918  0.00  0.00    -0.090 C 
ATOM     25  C   UNL     1      -1.661  -3.083  24.189  0.00  0.00    +0.005 C 
ENDBRANCH  19  21
ENDBRANCH   2  19
ENDBRANCH  13   2
ENDBRANCH   7  13
BRANCH   9  14
ATOM     14  C   UNL     1      -3.033   3.916  24.299  0.00  0.00    +0.105 C 
BRANCH  14  18
ATOM      1  O   UNL     1      -1.056   2.545  23.893  0.00  0.00    -0.420 OA
ATOM      3  N   UNL     1      -2.777   2.095  22.536  0.00  0.00    -0.112 NA
ATOM      4  N   UNL     1      -1.735   1.253  22.197  0.00  0.00    -0.107 NA
ATOM     18  C   UNL     1      -2.336   2.831  23.531  0.00  0.00    +0.218 A 
ATOM     20  C   UNL     1      -0.752   1.550  23.014  0.00  0.00    +0.248 A 
BRANCH  20  22
ATOM     22  C   UNL     1       0.568   0.999  23.124  0.00  0.00    +0.039 A 
ATOM     23  C   UNL     1       1.673   1.847  23.199  0.00  0.00    +0.015 A 
ATOM     24  C   UNL     1       0.746  -0.384  23.155  0.00  0.00    +0.015 A 
ATOM     26  C   UNL     1       2.957   1.312  23.306  0.00  0.00    +0.024 A 
ATOM     27  C   UNL     1       2.030  -0.920  23.262  0.00  0.00    +0.024 A 
ATOM     28  C   UNL     1       3.135  -0.071  23.337  0.00  0.00    +0.029 A 
BRANCH  28   5
ATOM      5  N   UNL     1       4.432  -0.612  23.443  0.00  0.00    -0.336 N 
ATOM     29  C   UNL     1       4.621  -2.006  23.795  0.00  0.00    +0.129 C 
ATOM     30  C   UNL     1       5.596   0.221  23.210  0.00  0.00    +0.129 C 
ENDBRANCH  28   5
ENDBRANCH  20  22
ENDBRANCH  14  18
ENDBRANCH   9  14
TORSDOF 9
ENDMDL
MODEL 4
REMARK VINA RESULT:       2.8      1.599      3.222
REMARK  Name = 45783981
REMARK  14 active torsions:
REMARK  status: ('A' for Active; 'I' for Inactive)
REMARK    1  A    between atoms: N_2  and  C_13
REMARK    2  A    between atoms: N_2  and  C_19
REMARK    3  A    between atoms: N_5  and  C_28
REMARK    4  A    between atoms: N_5  and  C_29
REMARK    5  A    between atoms: N_5  and  C_30
REMARK    6  A    between atoms: C_6  and  C_10
REMARK    7  A    between atoms: C_7  and  C_13
REMARK    8  A    between atoms: C_9  and  C_14
REMARK    9  A    between atoms: C_10  and  C_15
REMARK   10  A    between atoms: C_10  and  C_16
REMARK   11  A    between atoms: C_11  and  C_17
REMARK   12  A    between atoms: C_14  and  C_18
REMARK   13  A    between atoms: C_19  and  C_21
REMARK   14  A    between atoms: C_20  and  C_22
REMARK                            x       y       z     vdW  Elec       q    Type
REMARK                         _______ _______ _______ _____ _____    ______ ____
ROOT
ATOM      6  C   UNL     1      -2.008   4.003  24.846  0.00  0.00    +0.000 C 
ATOM      7  C   UNL     1      -2.300   3.269  26.179  0.00  0.00    +0.029 C 
ATOM      8  C   UNL     1      -3.257   4.755  24.364  0.00  0.00    +0.012 C 
ATOM      9  C   UNL     1      -4.458   3.815  24.150  0.00  0.00    +0.024 C 
ATOM     11  C   UNL     1      -4.647   2.868  25.318  0.00  0.00    -0.073 C 
ATOM     12  C   UNL     1      -3.676   2.647  26.222  0.00  0.00    -0.023 C 
ATOM     17  C   UNL     1      -5.996   2.215  25.451  0.00  0.00    +0.039 C 
ENDROOT
BRANCH   6  10
ATOM     10  C   UNL     1      -0.834   4.978  24.979  0.00  0.00    -0.013 C 
ATOM     15  C   UNL     1      -1.340   6.417  25.018  0.00  0.00    +0.007 C 
ATOM     16  C   UNL     1       0.153   4.782  23.833  0.00  0.00    +0.007 C 
ENDBRANCH   6  10
BRANCH   7  13
ATOM     13  C   UNL     1      -1.244   2.192  26.461  0.00  0.00    +0.089 C 
BRANCH  13   2
ATOM      2  N   UNL     1      -1.684   0.900  25.963  0.00  0.00    -0.305 NA
ATOM     31  H   UNL     1      -2.670   0.758  26.182  0.00  0.00    +0.123 HD
BRANCH   2  19
ATOM     19  C   UNL     1      -0.903  -0.182  26.551  0.00  0.00    +0.170 C 
BRANCH  19  21
ATOM     21  C   UNL     1      -1.035  -1.410  25.762  0.00  0.00    -0.090 C 
ATOM     25  C   UNL     1      -1.149  -2.414  25.114  0.00  0.00    +0.005 C 
ENDBRANCH  19  21
ENDBRANCH   2  19
ENDBRANCH  13   2
ENDBRANCH   7  13
BRANCH   9  14
ATOM     14  C   UNL     1      -4.326   3.042  22.833  0.00  0.00    +0.105 C 
BRANCH  14  18
ATOM      1  O   UNL     1      -2.110   2.024  22.915  0.00  0.00    -0.420 OA
ATOM      3  N   UNL     1      -3.794   0.577  23.199  0.00  0.00    -0.112 NA
ATOM      4  N   UNL     1      -2.608  -0.129  23.268  0.00  0.00    -0.107 NA
ATOM     18  C   UNL     1      -3.455   1.830  22.993  0.00  0.00    +0.218 A 
ATOM     20  C   UNL     1      -1.652   0.755  23.097  0.00  0.00    +0.248 A 
BRANCH  20  22
ATOM     22  C   UNL     1      -0.227   0.593  23.073  0.00  0.00    +0.039 A 
ATOM     23  C   UNL     1       0.346  -0.427  22.313  0.00  0.00    +0.015 A 
ATOM     24  C   UNL     1       0.586   1.455  23.809  0.00  0.00    +0.015 A 
ATOM     26  C   UNL     1       1.732  -0.584  22.288  0.00  0.00    +0.024 A 
ATOM     27  C   UNL     1       1.971   1.299  23.784  0.00  0.00    +0.024 A 
ATOM     28  C   UNL     1       2.544   0.279  23.024  0.00  0.00    +0.029 A 
BRANCH  28   5
ATOM      5  N   UNL     1       3.944   0.118  23.001  0.00  0.00    -0.336 N 
ATOM     29  C   UNL     1       4.566  -1.009  23.670  0.00  0.00    +0.129 C 
ATOM     30  C   UNL     1       4.783   1.082  22.316  0.00  0.00    +0.129 C 
ENDBRANCH  28   5
ENDBRANCH  20  22
ENDBRANCH  14  18
ENDBRANCH   9  14
TORSDOF 9
ENDMDL
MODEL 5
REMARK VINA RESULT:       3.7      1.462      3.516
REMARK  Name = 45783981
REMARK  14 active torsions:
REMARK  status: ('A' for Active; 'I' for Inactive)
REMARK    1  A    between atoms: N_2  and  C_13
REMARK    2  A    between atoms: N_2  and  C_19
REMARK    3  A    between atoms: N_5  and  C_28
REMARK    4  A    between atoms: N_5  and  C_29
REMARK    5  A    between atoms: N_5  and  C_30
REMARK    6  A    between atoms: C_6  and  C_10
REMARK    7  A    between atoms: C_7  and  C_13
REMARK    8  A    between atoms: C_9  and  C_14
REMARK    9  A    between atoms: C_10  and  C_15
REMARK   10  A    between atoms: C_10  and  C_16
REMARK   11  A    between atoms: C_11  and  C_17
REMARK   12  A    between atoms: C_14  and  C_18
REMARK   13  A    between atoms: C_19  and  C_21
REMARK   14  A    between atoms: C_20  and  C_22
REMARK                            x       y       z     vdW  Elec       q    Type
REMARK                         _______ _______ _______ _____ _____    ______ ____
ROOT
ATOM      6  C   UNL     1      -1.969   2.854  25.063  0.00  0.00    +0.000 C 
ATOM      7  C   UNL     1      -3.086   3.927  25.044  0.00  0.00    +0.029 C 
ATOM      8  C   UNL     1      -1.295   2.757  23.687  0.00  0.00    +0.012 C 
ATOM      9  C   UNL     1      -2.295   2.399  22.571  0.00  0.00    +0.024 C 
ATOM     11  C   UNL     1      -3.552   3.241  22.651  0.00  0.00    -0.073 C 
ATOM     12  C   UNL     1      -3.883   3.927  23.760  0.00  0.00    -0.023 C 
ATOM     17  C   UNL     1      -4.399   3.313  21.410  0.00  0.00    +0.039 C 
ENDROOT
BRANCH   6  10
ATOM     10  C   UNL     1      -0.917   3.148  26.137  0.00  0.00    -0.013 C 
ATOM     15  C   UNL     1       0.098   4.165  25.622  0.00  0.00    +0.007 C 
ATOM     16  C   UNL     1      -0.221   1.860  26.568  0.00  0.00    +0.007 C 
ENDBRANCH   6  10
BRANCH   7  13
ATOM     13  C   UNL     1      -4.038   3.757  26.234  0.00  0.00    +0.089 C 
BRANCH  13   2
ATOM      2  N   UNL     1      -5.398   3.530  25.775  0.00  0.00    -0.305 NA
ATOM     31  H   UNL     1      -6.012   4.267  26.122  0.00  0.00    +0.123 HD
BRANCH   2  19
ATOM     19  C   UNL     1      -5.896   2.238  26.231  0.00  0.00    +0.170 C 
BRANCH  19  21
ATOM     21  C   UNL     1      -5.311   1.146  25.448  0.00  0.00    -0.090 C 
ATOM     25  C   UNL     1      -4.838   0.248  24.807  0.00  0.00    +0.005 C 
ENDBRANCH  19  21
ENDBRANCH   2  19
ENDBRANCH  13   2
ENDBRANCH   7  13
BRANCH   9  14
ATOM     14  C   UNL     1      -2.633   0.904  22.592  0.00  0.00    +0.105 C 
BRANCH  14  18
ATOM      1  O   UNL     1      -0.253   0.471  22.911  0.00  0.00    -0.420 OA
ATOM      3  N   UNL     1      -1.597  -0.938  24.015  0.00  0.00    -0.112 NA
ATOM      4  N   UNL     1      -0.290  -1.296  24.284  0.00  0.00    -0.107 NA
ATOM     18  C   UNL     1      -1.528   0.099  23.211  0.00  0.00    +0.218 A 
ATOM     20  C   UNL     1       0.460  -0.447  23.620  0.00  0.00    +0.248 A 
BRANCH  20  22
ATOM     22  C   UNL     1       1.887  -0.340  23.526  0.00  0.00    +0.039 A 
ATOM     23  C   UNL     1       2.694  -1.409  23.917  0.00  0.00    +0.015 A 
ATOM     24  C   UNL     1       2.469   0.833  23.044  0.00  0.00    +0.015 A 
ATOM     26  C   UNL     1       4.082  -1.305  23.826  0.00  0.00    +0.024 A 
ATOM     27  C   UNL     1       3.857   0.937  22.952  0.00  0.00    +0.024 A 
ATOM     28  C   UNL     1       4.663  -0.132  23.343  0.00  0.00    +0.029 A 
BRANCH  28   5
ATOM      5  N   UNL     1       6.066  -0.027  23.253  0.00  0.00    -0.336 N 
ATOM     29  C   UNL     1       6.821  -0.955  22.433  0.00  0.00    +0.129 C 
ATOM     30  C   UNL     1       6.774   1.004  23.985  0.00  0.00    +0.129 C 
ENDBRANCH  28   5
ENDBRANCH  20  22
ENDBRANCH  14  18
ENDBRANCH   9  14
TORSDOF 9
ENDMDL
