MODEL 1
REMARK VINA RESULT:       8.8      0.000      0.000
REMARK  Name = 25389533
REMARK  9 active torsions:
REMARK  status: ('A' for Active; 'I' for Inactive)
REMARK    1  A    between atoms: O_1  and  C_16
REMARK    2  A    between atoms: O_1  and  C_21
REMARK    3  A    between atoms: O_3  and  C_36
REMARK    4  A    between atoms: O_3  and  C_37
REMARK    5  A    between atoms: N_5  and  C_19
REMARK    6  A    between atoms: N_7  and  C_27
REMARK    7  A    between atoms: C_9  and  C_15
REMARK    8  A    between atoms: C_10  and  C_16
REMARK    9  A    between atoms: C_18  and  C_20
REMARK                            x       y       z     vdW  Elec       q    Type
REMARK                         _______ _______ _______ _____ _____    ______ ____
ROOT
ATOM      4  N   UNL     1      -5.353   2.560  26.110  0.00  0.00    -0.296 NA
ATOM      8  C   UNL     1      -5.099   1.229  23.886  0.00  0.00    +0.002 C 
ATOM      9  C   UNL     1      -4.245   0.579  25.010  0.00  0.00    +0.055 C 
ATOM     10  C   UNL     1      -5.036   3.490  24.995  0.00  0.00    +0.095 C 
ATOM     11  C   UNL     1      -4.679   2.703  23.715  0.00  0.00    +0.026 C 
ATOM     12  C   UNL     1      -6.561   1.228  24.382  0.00  0.00    +0.019 C 
ATOM     13  C   UNL     1      -4.288   1.536  26.236  0.00  0.00    +0.094 C 
ATOM     14  C   UNL     1      -6.623   1.869  25.779  0.00  0.00    +0.085 C 
ENDROOT
BRANCH   9  15
ATOM      5  N   UNL     1      -2.457  -1.174  24.594  0.00  0.00    -0.270 N 
ATOM      6  N   UNL     1      -1.162  -1.354  24.282  0.00  0.00    -0.171 NA
ATOM     15  C   UNL     1      -2.829   0.136  24.671  0.00  0.00    +0.044 A 
ATOM     17  C   UNL     1      -1.698   0.864  24.392  0.00  0.00    +0.053 A 
ATOM     18  C   UNL     1      -0.704  -0.105  24.161  0.00  0.00    +0.093 A 
ATOM     19  C   UNL     1      -3.298  -2.328  24.810  0.00  0.00    +0.172 C 
BRANCH  18  20
ATOM     20  C   UNL     1       0.675   0.139  23.827  0.00  0.00    +0.003 A 
ATOM     22  C   UNL     1       1.628  -0.861  24.027  0.00  0.00    +0.018 A 
ATOM     23  C   UNL     1       1.058   1.371  23.305  0.00  0.00    +0.011 A 
ATOM     24  C   UNL     1       2.978  -0.640  23.707  0.00  0.00    -0.017 A 
ATOM     25  C   UNL     1       2.393   1.608  22.981  0.00  0.00    +0.009 A 
ATOM     26  C   UNL     1       3.366   0.614  23.176  0.00  0.00    -0.018 A 
ATOM     28  C   UNL     1       3.949  -1.634  23.901  0.00  0.00    +0.008 A 
ATOM     29  C   UNL     1       4.715   0.835  22.855  0.00  0.00    +0.008 A 
ATOM     32  C   UNL     1       5.286  -1.397  23.576  0.00  0.00    +0.001 A 
ATOM     33  C   UNL     1       5.667  -0.164  23.055  0.00  0.00    +0.001 A 
ENDBRANCH  18  20
ENDBRANCH   9  15
BRANCH  10  16
ATOM     16  C   UNL     1      -3.947   4.498  25.367  0.00  0.00    +0.252 C 
BRANCH  16   1
ATOM      1  O   UNL     1      -2.832   4.283  24.524  0.00  0.00    -0.449 OA
BRANCH   1  21
ATOM      2  O   UNL     1      -0.665   4.983  24.735  0.00  0.00    -0.226 OA
ATOM      7  N   UNL     1      -1.596   3.399  26.184  0.00  0.00    -0.251 N 
ATOM     21  C   UNL     1      -1.593   4.284  25.124  0.00  0.00    +0.405 C 
ATOM     38  H   UNL     1      -2.469   2.904  26.355  0.00  0.00    +0.158 HD
BRANCH   7  27
ATOM     27  C   UNL     1      -0.535   3.092  27.066  0.00  0.00    +0.037 A 
ATOM     30  C   UNL     1      -0.758   3.066  28.443  0.00  0.00    +0.027 A 
ATOM     31  C   UNL     1       0.735   2.818  26.561  0.00  0.00    +0.027 A 
ATOM     34  C   UNL     1       0.289   2.764  29.314  0.00  0.00    +0.047 A 
ATOM     35  C   UNL     1       1.782   2.516  27.432  0.00  0.00    +0.047 A 
ATOM     36  C   UNL     1       1.559   2.488  28.808  0.00  0.00    +0.120 A 
BRANCH  36   3
ATOM      3  O   UNL     1       2.581   2.194  29.658  0.00  0.00    -0.495 OA
ATOM     37  C   UNL     1       2.232   1.632  30.922  0.00  0.00    +0.277 C 
ENDBRANCH  36   3
ENDBRANCH   7  27
ENDBRANCH   1  21
ENDBRANCH  16   1
ENDBRANCH  10  16
TORSDOF 7
ENDMDL
MODEL 2
REMARK VINA RESULT:      10.7      2.907      4.822
REMARK  Name = 25389533
REMARK  9 active torsions:
REMARK  status: ('A' for Active; 'I' for Inactive)
REMARK    1  A    between atoms: O_1  and  C_16
REMARK    2  A    between atoms: O_1  and  C_21
REMARK    3  A    between atoms: O_3  and  C_36
REMARK    4  A    between atoms: O_3  and  C_37
REMARK    5  A    between atoms: N_5  and  C_19
REMARK    6  A    between atoms: N_7  and  C_27
REMARK    7  A    between atoms: C_9  and  C_15
REMARK    8  A    between atoms: C_10  and  C_16
REMARK    9  A    between atoms: C_18  and  C_20
REMARK                            x       y       z     vdW  Elec       q    Type
REMARK                         _______ _______ _______ _____ _____    ______ ____
ROOT
ATOM      4  N   UNL     1      -4.305   4.611  24.839  0.00  0.00    -0.296 NA
ATOM      8  C   UNL     1      -1.724   4.919  24.989  0.00  0.00    +0.002 C 
ATOM      9  C   UNL     1      -2.093   3.995  23.795  0.00  0.00    +0.055 C 
ATOM     10  C   UNL     1      -3.843   4.351  26.227  0.00  0.00    +0.095 C 
ATOM     11  C   UNL     1      -2.301   4.325  26.290  0.00  0.00    +0.026 C 
ATOM     12  C   UNL     1      -2.441   6.265  24.748  0.00  0.00    +0.019 C 
ATOM     13  C   UNL     1      -3.618   3.698  23.893  0.00  0.00    +0.094 C 
ATOM     14  C   UNL     1      -3.935   6.004  24.490  0.00  0.00    +0.085 C 
ENDROOT
BRANCH   9  15
ATOM      5  N   UNL     1      -1.773   1.607  22.997  0.00  0.00    -0.270 N 
ATOM      6  N   UNL     1      -0.886   0.602  22.903  0.00  0.00    -0.171 NA
ATOM     15  C   UNL     1      -1.271   2.732  23.582  0.00  0.00    +0.044 A 
ATOM     17  C   UNL     1       0.034   2.442  23.894  0.00  0.00    +0.053 A 
ATOM     18  C   UNL     1       0.216   1.118  23.452  0.00  0.00    +0.093 A 
ATOM     19  C   UNL     1      -3.114   1.414  22.496  0.00  0.00    +0.172 C 
BRANCH  18  20
ATOM     20  C   UNL     1       1.422   0.336  23.547  0.00  0.00    +0.003 A 
ATOM     22  C   UNL     1       2.663   0.944  23.353  0.00  0.00    +0.018 A 
ATOM     23  C   UNL     1       1.349  -1.023  23.834  0.00  0.00    +0.011 A 
ATOM     24  C   UNL     1       3.849   0.196  23.442  0.00  0.00    -0.017 A 
ATOM     25  C   UNL     1       2.516  -1.781  23.927  0.00  0.00    +0.009 A 
ATOM     26  C   UNL     1       3.773  -1.187  23.734  0.00  0.00    -0.018 A 
ATOM     28  C   UNL     1       5.106   0.790  23.249  0.00  0.00    +0.008 A 
ATOM     29  C   UNL     1       4.959  -1.935  23.824  0.00  0.00    +0.008 A 
ATOM     32  C   UNL     1       6.274   0.031  23.343  0.00  0.00    +0.001 A 
ATOM     33  C   UNL     1       6.199  -1.329  23.629  0.00  0.00    +0.001 A 
ENDBRANCH  18  20
ENDBRANCH   9  15
BRANCH  10  16
ATOM     16  C   UNL     1      -4.459   3.082  26.819  0.00  0.00    +0.252 C 
BRANCH  16   1
ATOM      1  O   UNL     1      -5.610   2.751  26.067  0.00  0.00    -0.449 OA
BRANCH   1  21
ATOM      2  O   UNL     1      -6.449   1.236  24.573  0.00  0.00    -0.226 OA
ATOM      7  N   UNL     1      -4.391   0.908  25.637  0.00  0.00    -0.251 N 
ATOM     21  C   UNL     1      -5.562   1.580  25.344  0.00  0.00    +0.405 C 
ATOM     38  H   UNL     1      -3.770   1.356  26.308  0.00  0.00    +0.158 HD
BRANCH   7  27
ATOM     27  C   UNL     1      -3.943  -0.329  25.119  0.00  0.00    +0.037 A 
ATOM     30  C   UNL     1      -4.726  -1.023  24.197  0.00  0.00    +0.027 A 
ATOM     31  C   UNL     1      -2.719  -0.855  25.531  0.00  0.00    +0.027 A 
ATOM     34  C   UNL     1      -4.285  -2.244  23.686  0.00  0.00    +0.047 A 
ATOM     35  C   UNL     1      -2.278  -2.076  25.020  0.00  0.00    +0.047 A 
ATOM     36  C   UNL     1      -3.060  -2.769  24.097  0.00  0.00    +0.120 A 
BRANCH  36   3
ATOM      3  O   UNL     1      -2.630  -3.961  23.599  0.00  0.00    -0.495 OA
ATOM     37  C   UNL     1      -1.316  -3.996  23.045  0.00  0.00    +0.277 C 
ENDBRANCH  36   3
ENDBRANCH   7  27
ENDBRANCH   1  21
ENDBRANCH  16   1
ENDBRANCH  10  16
TORSDOF 7
ENDMDL
MODEL 3
REMARK VINA RESULT:      11.0      2.939      4.423
REMARK  Name = 25389533
REMARK  9 active torsions:
REMARK  status: ('A' for Active; 'I' for Inactive)
REMARK    1  A    between atoms: O_1  and  C_16
REMARK    2  A    between atoms: O_1  and  C_21
REMARK    3  A    between atoms: O_3  and  C_36
REMARK    4  A    between atoms: O_3  and  C_37
REMARK    5  A    between atoms: N_5  and  C_19
REMARK    6  A    between atoms: N_7  and  C_27
REMARK    7  A    between atoms: C_9  and  C_15
REMARK    8  A    between atoms: C_10  and  C_16
REMARK    9  A    between atoms: C_18  and  C_20
REMARK                            x       y       z     vdW  Elec       q    Type
REMARK                         _______ _______ _______ _____ _____    ______ ____
ROOT
ATOM      4  N   UNL     1      -4.783   4.871  24.789  0.00  0.00    -0.296 NA
ATOM      8  C   UNL     1      -3.015   3.763  26.347  0.00  0.00    +0.002 C 
ATOM      9  C   UNL     1      -2.396   4.071  24.955  0.00  0.00    +0.055 C 
ATOM     10  C   UNL     1      -5.348   3.643  25.406  0.00  0.00    +0.095 C 
ATOM     11  C   UNL     1      -4.254   2.863  26.165  0.00  0.00    +0.026 C 
ATOM     12  C   UNL     1      -3.511   5.107  26.921  0.00  0.00    +0.019 C 
ATOM     13  C   UNL     1      -3.554   4.539  24.027  0.00  0.00    +0.094 C 
ATOM     14  C   UNL     1      -4.411   5.800  25.884  0.00  0.00    +0.085 C 
ENDROOT
BRANCH   9  15
ATOM      5  N   UNL     1      -1.921   2.287  23.213  0.00  0.00    -0.270 N 
ATOM      6  N   UNL     1      -1.009   1.396  22.791  0.00  0.00    -0.171 NA
ATOM     15  C   UNL     1      -1.526   3.006  24.303  0.00  0.00    +0.044 A 
ATOM     17  C   UNL     1      -0.269   2.553  24.616  0.00  0.00    +0.053 A 
ATOM     18  C   UNL     1      -0.001   1.563  23.652  0.00  0.00    +0.093 A 
ATOM     19  C   UNL     1      -3.179   2.398  22.510  0.00  0.00    +0.172 C 
BRANCH  18  20
ATOM     20  C   UNL     1       1.197   0.772  23.538  0.00  0.00    +0.003 A 
ATOM     22  C   UNL     1       2.447   1.386  23.621  0.00  0.00    +0.018 A 
ATOM     23  C   UNL     1       1.108  -0.603  23.348  0.00  0.00    +0.011 A 
ATOM     24  C   UNL     1       3.626   0.630  23.512  0.00  0.00    -0.017 A 
ATOM     25  C   UNL     1       2.267  -1.370  23.239  0.00  0.00    +0.009 A 
ATOM     26  C   UNL     1       3.534  -0.769  23.318  0.00  0.00    -0.018 A 
ATOM     28  C   UNL     1       4.892   1.231  23.592  0.00  0.00    +0.008 A 
ATOM     29  C   UNL     1       4.712  -1.526  23.210  0.00  0.00    +0.008 A 
ATOM     32  C   UNL     1       6.052   0.463  23.483  0.00  0.00    +0.001 A 
ATOM     33  C   UNL     1       5.962  -0.913  23.292  0.00  0.00    +0.001 A 
ENDBRANCH  18  20
ENDBRANCH   9  15
BRANCH  10  16
ATOM     16  C   UNL     1      -6.075   2.761  24.389  0.00  0.00    +0.252 C 
BRANCH  16   1
ATOM      1  O   UNL     1      -6.624   1.651  25.071  0.00  0.00    -0.449 OA
BRANCH   1  21
ATOM      2  O   UNL     1      -5.739   0.413  26.777  0.00  0.00    -0.226 OA
ATOM      7  N   UNL     1      -4.878   0.310  24.604  0.00  0.00    -0.251 N 
ATOM     21  C   UNL     1      -5.731   0.745  25.599  0.00  0.00    +0.405 C 
ATOM     38  H   UNL     1      -5.028   0.703  23.677  0.00  0.00    +0.158 HD
BRANCH   7  27
ATOM     27  C   UNL     1      -3.816  -0.617  24.711  0.00  0.00    +0.037 A 
ATOM     30  C   UNL     1      -3.936  -1.884  24.139  0.00  0.00    +0.027 A 
ATOM     31  C   UNL     1      -2.650  -0.266  25.390  0.00  0.00    +0.027 A 
ATOM     34  C   UNL     1      -2.888  -2.799  24.245  0.00  0.00    +0.047 A 
ATOM     35  C   UNL     1      -1.602  -1.181  25.496  0.00  0.00    +0.047 A 
ATOM     36  C   UNL     1      -1.722  -2.447  24.923  0.00  0.00    +0.120 A 
BRANCH  36   3
ATOM      3  O   UNL     1      -0.699  -3.341  25.027  0.00  0.00    -0.495 OA
ATOM     37  C   UNL     1       0.468  -2.913  25.726  0.00  0.00    +0.277 C 
ENDBRANCH  36   3
ENDBRANCH   7  27
ENDBRANCH   1  21
ENDBRANCH  16   1
ENDBRANCH  10  16
TORSDOF 7
ENDMDL
