MODEL 1
REMARK VINA RESULT:       9.1      0.000      0.000
REMARK  Name = 51136623
REMARK  10 active torsions:
REMARK  status: ('A' for Active; 'I' for Inactive)
REMARK    1  A    between atoms: O_2  and  C_20
REMARK    2  A    between atoms: O_5  and  C_26
REMARK    3  A    between atoms: O_5  and  C_33
REMARK    4  A    between atoms: O_6  and  C_27
REMARK    5  A    between atoms: O_6  and  C_34
REMARK    6  A    between atoms: N_9  and  C_28
REMARK    7  A    between atoms: C_10  and  C_14
REMARK    8  A    between atoms: C_11  and  C_16
REMARK    9  A    between atoms: C_14  and  C_17
REMARK   10  A    between atoms: C_16  and  C_20
REMARK                            x       y       z     vdW  Elec       q    Type
REMARK                         _______ _______ _______ _____ _____    ______ ____
ROOT
ATOM      3  O   UNL     1      -3.416  -2.212  23.714  0.00  0.00    -0.252 OA
ATOM      7  N   UNL     1      -1.248  -1.684  24.314  0.00  0.00    -0.285 N 
ATOM      9  N   UNL     1      -3.071  -0.602  25.347  0.00  0.00    -0.269 N 
ATOM     10  C   UNL     1       0.708  -0.165  24.215  0.00  0.00    +0.016 C 
ATOM     11  C   UNL     1       1.338  -1.104  23.151  0.00  0.00    +0.006 C 
ATOM     12  C   UNL     1       0.266  -1.907  22.391  0.00  0.00    +0.023 C 
ATOM     13  C   UNL     1      -0.241  -0.972  25.115  0.00  0.00    +0.113 C 
ATOM     15  C   UNL     1      -0.680  -2.628  23.351  0.00  0.00    +0.109 C 
ATOM     18  C   UNL     1      -2.649  -1.552  24.418  0.00  0.00    +0.306 C 
ATOM     36  H   UNL     1      -2.483  -0.415  26.151  0.00  0.00    +0.156 HD
ENDROOT
BRANCH   9  28
ATOM      1  F   UNL     1      -7.701   2.447  25.170  0.00  0.00    -0.205 F 
ATOM     28  C   UNL     1      -4.253   0.178  25.302  0.00  0.00    +0.035 A 
ATOM     29  C   UNL     1      -4.875   0.432  24.078  0.00  0.00    +0.026 A 
ATOM     30  C   UNL     1      -4.797   0.690  26.479  0.00  0.00    +0.026 A 
ATOM     31  C   UNL     1      -6.039   1.199  24.034  0.00  0.00    +0.040 A 
ATOM     32  C   UNL     1      -5.961   1.457  26.435  0.00  0.00    +0.040 A 
ATOM     35  C   UNL     1      -6.582   1.712  25.213  0.00  0.00    +0.124 A 
ENDBRANCH   9  28
BRANCH  10  14
ATOM     14  C   UNL     1      -0.017   1.050  23.624  0.00  0.00    +0.061 C 
BRANCH  14  17
ATOM      8  N   UNL     1       0.490   2.168  25.687  0.00  0.00    -0.287 NA
ATOM     17  C   UNL     1      -0.357   2.029  24.721  0.00  0.00    +0.044 C 
ATOM     19  C   UNL     1      -1.639   2.774  24.644  0.00  0.00    +0.003 A 
ATOM     21  C   UNL     1      -2.100   3.361  25.828  0.00  0.00    -0.033 A 
ATOM     22  C   UNL     1      -1.292   3.190  27.081  0.00  0.00    +0.059 C 
ATOM     23  C   UNL     1       0.189   3.162  26.722  0.00  0.00    +0.146 C 
ATOM     24  C   UNL     1      -2.376   2.887  23.463  0.00  0.00    +0.059 A 
ATOM     25  C   UNL     1      -3.321   4.042  25.832  0.00  0.00    +0.053 A 
ATOM     26  C   UNL     1      -3.586   3.582  23.473  0.00  0.00    +0.162 A 
ATOM     27  C   UNL     1      -4.059   4.155  24.654  0.00  0.00    +0.162 A 
BRANCH  26   5
ATOM      5  O   UNL     1      -4.302   3.693  22.319  0.00  0.00    -0.491 OA
ATOM     33  C   UNL     1      -3.721   3.135  21.141  0.00  0.00    +0.277 C 
ENDBRANCH  26   5
BRANCH  27   6
ATOM      6  O   UNL     1      -5.243   4.829  24.669  0.00  0.00    -0.491 OA
ATOM     34  C   UNL     1      -5.887   4.979  25.933  0.00  0.00    +0.277 C 
ENDBRANCH  27   6
ENDBRANCH  14  17
ENDBRANCH  10  14
BRANCH  11  16
ATOM     16  C   UNL     1       2.258  -0.373  22.175  0.00  0.00    +0.124 C 
BRANCH  16  20
ATOM      4  O   UNL     1       4.004   1.223  22.761  0.00  0.00    -0.251 OA
ATOM     20  C   UNL     1       3.514   0.108  22.848  0.00  0.00    +0.305 C 
BRANCH  20   2
ATOM      2  O   UNL     1       4.048  -0.896  23.591  0.00  0.00    -0.481 OA
ATOM     37  H   UNL     1       4.487  -0.558  24.400  0.00  0.00    +0.295 HD
ENDBRANCH  20   2
ENDBRANCH  16  20
ENDBRANCH  11  16
TORSDOF 8
ENDMDL
MODEL 2
REMARK VINA RESULT:      10.3      2.409      5.057
REMARK  Name = 51136623
REMARK  10 active torsions:
REMARK  status: ('A' for Active; 'I' for Inactive)
REMARK    1  A    between atoms: O_2  and  C_20
REMARK    2  A    between atoms: O_5  and  C_26
REMARK    3  A    between atoms: O_5  and  C_33
REMARK    4  A    between atoms: O_6  and  C_27
REMARK    5  A    between atoms: O_6  and  C_34
REMARK    6  A    between atoms: N_9  and  C_28
REMARK    7  A    between atoms: C_10  and  C_14
REMARK    8  A    between atoms: C_11  and  C_16
REMARK    9  A    between atoms: C_14  and  C_17
REMARK   10  A    between atoms: C_16  and  C_20
REMARK                            x       y       z     vdW  Elec       q    Type
REMARK                         _______ _______ _______ _____ _____    ______ ____
ROOT
ATOM      3  O   UNL     1       1.098   1.584  25.690  0.00  0.00    -0.252 OA
ATOM      7  N   UNL     1       0.169   0.022  24.263  0.00  0.00    -0.285 N 
ATOM      9  N   UNL     1      -0.245   2.322  23.948  0.00  0.00    -0.269 N 
ATOM     10  C   UNL     1      -1.775  -1.312  23.496  0.00  0.00    +0.016 C 
ATOM     11  C   UNL     1      -1.213  -2.521  24.292  0.00  0.00    +0.006 C 
ATOM     12  C   UNL     1      -0.316  -2.070  25.459  0.00  0.00    +0.023 C 
ATOM     13  C   UNL     1      -0.619  -0.384  23.089  0.00  0.00    +0.113 C 
ATOM     15  C   UNL     1       0.767  -1.098  24.992  0.00  0.00    +0.109 C 
ATOM     18  C   UNL     1       0.401   1.342  24.702  0.00  0.00    +0.306 C 
ATOM     36  H   UNL     1      -0.428   2.137  22.969  0.00  0.00    +0.156 HD
ENDROOT
BRANCH   9  28
ATOM      1  F   UNL     1      -2.060   7.259  25.705  0.00  0.00    -0.205 F 
ATOM     28  C   UNL     1      -0.709   3.584  24.397  0.00  0.00    +0.035 A 
ATOM     29  C   UNL     1      -1.551   3.663  25.507  0.00  0.00    +0.026 A 
ATOM     30  C   UNL     1      -0.324   4.746  23.730  0.00  0.00    +0.026 A 
ATOM     31  C   UNL     1      -2.007   4.904  25.948  0.00  0.00    +0.040 A 
ATOM     32  C   UNL     1      -0.781   5.988  24.171  0.00  0.00    +0.040 A 
ATOM     35  C   UNL     1      -1.622   6.067  25.280  0.00  0.00    +0.124 A 
ENDBRANCH   9  28
BRANCH  10  14
ATOM     14  C   UNL     1      -2.859  -0.525  24.240  0.00  0.00    +0.061 C 
BRANCH  14  17
ATOM      8  N   UNL     1      -2.765   0.828  22.259  0.00  0.00    -0.287 NA
ATOM     17  C   UNL     1      -3.206   0.726  23.470  0.00  0.00    +0.044 C 
ATOM     19  C   UNL     1      -4.022   1.774  24.134  0.00  0.00    +0.003 A 
ATOM     21  C   UNL     1      -3.998   3.051  23.560  0.00  0.00    -0.033 A 
ATOM     22  C   UNL     1      -3.153   3.279  22.342  0.00  0.00    +0.059 C 
ATOM     23  C   UNL     1      -3.151   2.016  21.489  0.00  0.00    +0.146 C 
ATOM     24  C   UNL     1      -4.774   1.528  25.285  0.00  0.00    +0.059 A 
ATOM     25  C   UNL     1      -4.713   4.091  24.161  0.00  0.00    +0.053 A 
ATOM     26  C   UNL     1      -5.496   2.568  25.869  0.00  0.00    +0.162 A 
ATOM     27  C   UNL     1      -5.464   3.847  25.311  0.00  0.00    +0.162 A 
BRANCH  26   5
ATOM      5  O   UNL     1      -6.232   2.325  26.990  0.00  0.00    -0.491 OA
ATOM     33  C   UNL     1      -6.733   1.000  27.159  0.00  0.00    +0.277 C 
ENDBRANCH  26   5
BRANCH  27   6
ATOM      6  O   UNL     1      -6.163   4.868  25.882  0.00  0.00    -0.491 OA
ATOM     34  C   UNL     1      -6.527   5.957  25.035  0.00  0.00    +0.277 C 
ENDBRANCH  27   6
ENDBRANCH  14  17
ENDBRANCH  10  14
BRANCH  11  16
ATOM     16  C   UNL     1      -2.302  -3.473  24.785  0.00  0.00    +0.124 C 
BRANCH  16  20
ATOM      4  O   UNL     1      -4.503  -2.887  23.919  0.00  0.00    -0.251 OA
ATOM     20  C   UNL     1      -3.654  -2.814  24.794  0.00  0.00    +0.305 C 
BRANCH  20   2
ATOM      2  O   UNL     1      -3.810  -2.102  25.939  0.00  0.00    -0.481 OA
ATOM     37  H   UNL     1      -4.648  -1.593  25.942  0.00  0.00    +0.295 HD
ENDBRANCH  20   2
ENDBRANCH  16  20
ENDBRANCH  11  16
TORSDOF 8
ENDMDL
MODEL 3
REMARK VINA RESULT:      11.1      3.093      7.448
REMARK  Name = 51136623
REMARK  10 active torsions:
REMARK  status: ('A' for Active; 'I' for Inactive)
REMARK    1  A    between atoms: O_2  and  C_20
REMARK    2  A    between atoms: O_5  and  C_26
REMARK    3  A    between atoms: O_5  and  C_33
REMARK    4  A    between atoms: O_6  and  C_27
REMARK    5  A    between atoms: O_6  and  C_34
REMARK    6  A    between atoms: N_9  and  C_28
REMARK    7  A    between atoms: C_10  and  C_14
REMARK    8  A    between atoms: C_11  and  C_16
REMARK    9  A    between atoms: C_14  and  C_17
REMARK   10  A    between atoms: C_16  and  C_20
REMARK                            x       y       z     vdW  Elec       q    Type
REMARK                         _______ _______ _______ _____ _____    ______ ____
ROOT
ATOM      3  O   UNL     1       0.169   4.515  23.339  0.00  0.00    -0.252 OA
ATOM      7  N   UNL     1      -1.353   4.148  25.039  0.00  0.00    -0.285 N 
ATOM      9  N   UNL     1       0.395   2.614  24.649  0.00  0.00    -0.269 N 
ATOM     10  C   UNL     1      -3.342   2.971  25.936  0.00  0.00    +0.016 C 
ATOM     11  C   UNL     1      -4.196   4.217  25.576  0.00  0.00    +0.006 C 
ATOM     12  C   UNL     1      -3.565   5.033  24.433  0.00  0.00    +0.023 C 
ATOM     13  C   UNL     1      -1.888   3.401  26.187  0.00  0.00    +0.113 C 
ATOM     15  C   UNL     1      -2.101   5.365  24.723  0.00  0.00    +0.109 C 
ATOM     18  C   UNL     1      -0.216   3.810  24.275  0.00  0.00    +0.306 C 
ATOM     36  H   UNL     1       0.326   2.316  25.615  0.00  0.00    +0.156 HD
ENDROOT
BRANCH   9  28
ATOM      1  F   UNL     1       3.212  -0.887  21.398  0.00  0.00    -0.205 F 
ATOM     28  C   UNL     1       1.114   1.720  23.818  0.00  0.00    +0.035 A 
ATOM     29  C   UNL     1       2.493   1.871  23.659  0.00  0.00    +0.026 A 
ATOM     30  C   UNL     1       0.446   0.689  23.159  0.00  0.00    +0.026 A 
ATOM     31  C   UNL     1       3.201   0.991  22.842  0.00  0.00    +0.040 A 
ATOM     32  C   UNL     1       1.154  -0.192  22.341  0.00  0.00    +0.040 A 
ATOM     35  C   UNL     1       2.531  -0.041  22.182  0.00  0.00    +0.124 A 
ENDBRANCH   9  28
BRANCH  10  14
ATOM     14  C   UNL     1      -3.398   1.854  24.889  0.00  0.00    +0.061 C 
BRANCH  14  17
ATOM      8  N   UNL     1      -1.514   0.962  26.080  0.00  0.00    -0.287 NA
ATOM     17  C   UNL     1      -2.528   0.699  25.323  0.00  0.00    +0.044 C 
ATOM     19  C   UNL     1      -2.870  -0.670  24.859  0.00  0.00    +0.003 A 
ATOM     21  C   UNL     1      -1.860  -1.636  24.945  0.00  0.00    -0.033 A 
ATOM     22  C   UNL     1      -0.517  -1.230  25.477  0.00  0.00    +0.059 C 
ATOM     23  C   UNL     1      -0.703  -0.166  26.551  0.00  0.00    +0.146 C 
ATOM     24  C   UNL     1      -4.125  -1.000  24.344  0.00  0.00    +0.059 A 
ATOM     25  C   UNL     1      -2.105  -2.933  24.486  0.00  0.00    +0.053 A 
ATOM     26  C   UNL     1      -4.365  -2.302  23.903  0.00  0.00    +0.162 A 
ATOM     27  C   UNL     1      -3.358  -3.265  23.972  0.00  0.00    +0.162 A 
BRANCH  26   5
ATOM      5  O   UNL     1      -5.592  -2.623  23.404  0.00  0.00    -0.491 OA
ATOM     33  C   UNL     1      -5.646  -3.693  22.462  0.00  0.00    +0.277 C 
ENDBRANCH  26   5
BRANCH  27   6
ATOM      6  O   UNL     1      -3.586  -4.536  23.536  0.00  0.00    -0.491 OA
ATOM     34  C   UNL     1      -2.596  -5.118  22.690  0.00  0.00    +0.277 C 
ENDBRANCH  27   6
ENDBRANCH  14  17
ENDBRANCH  10  14
BRANCH  11  16
ATOM     16  C   UNL     1      -5.650   3.876  25.256  0.00  0.00    +0.124 C 
BRANCH  16  20
ATOM      4  O   UNL     1      -6.052   2.418  27.167  0.00  0.00    -0.251 OA
ATOM     20  C   UNL     1      -6.096   2.626  25.964  0.00  0.00    +0.305 C 
BRANCH  20   2
ATOM      2  O   UNL     1      -6.569   1.731  25.060  0.00  0.00    -0.481 OA
ATOM     37  H   UNL     1      -7.239   2.131  24.465  0.00  0.00    +0.295 HD
ENDBRANCH  20   2
ENDBRANCH  16  20
ENDBRANCH  11  16
TORSDOF 8
ENDMDL
MODEL 4
REMARK VINA RESULT:      12.6      2.251      5.809
REMARK  Name = 51136623
REMARK  10 active torsions:
REMARK  status: ('A' for Active; 'I' for Inactive)
REMARK    1  A    between atoms: O_2  and  C_20
REMARK    2  A    between atoms: O_5  and  C_26
REMARK    3  A    between atoms: O_5  and  C_33
REMARK    4  A    between atoms: O_6  and  C_27
REMARK    5  A    between atoms: O_6  and  C_34
REMARK    6  A    between atoms: N_9  and  C_28
REMARK    7  A    between atoms: C_10  and  C_14
REMARK    8  A    between atoms: C_11  and  C_16
REMARK    9  A    between atoms: C_14  and  C_17
REMARK   10  A    between atoms: C_16  and  C_20
REMARK                            x       y       z     vdW  Elec       q    Type
REMARK                         _______ _______ _______ _____ _____    ______ ____
ROOT
ATOM      3  O   UNL     1      -6.066   2.584  24.423  0.00  0.00    -0.252 OA
ATOM      7  N   UNL     1      -4.933   0.790  25.337  0.00  0.00    -0.285 N 
ATOM      9  N   UNL     1      -4.053   2.971  25.508  0.00  0.00    -0.269 N 
ATOM     10  C   UNL     1      -3.096  -0.872  25.249  0.00  0.00    +0.016 C 
ATOM     11  C   UNL     1      -4.115  -1.916  24.716  0.00  0.00    +0.006 C 
ATOM     12  C   UNL     1      -5.304  -1.243  24.006  0.00  0.00    +0.023 C 
ATOM     13  C   UNL     1      -3.832   0.178  26.097  0.00  0.00    +0.113 C 
ATOM     15  C   UNL     1      -5.943  -0.166  24.882  0.00  0.00    +0.109 C 
ATOM     18  C   UNL     1      -5.093   2.162  25.051  0.00  0.00    +0.306 C 
ATOM     36  H   UNL     1      -3.539   2.681  26.332  0.00  0.00    +0.156 HD
ENDROOT
BRANCH   9  28
ATOM      1  F   UNL     1      -2.261   7.722  23.276  0.00  0.00    -0.205 F 
ATOM     28  C   UNL     1      -3.595   4.185  24.937  0.00  0.00    +0.035 A 
ATOM     29  C   UNL     1      -4.284   4.757  23.867  0.00  0.00    +0.026 A 
ATOM     30  C   UNL     1      -2.456   4.808  25.446  0.00  0.00    +0.026 A 
ATOM     31  C   UNL     1      -3.833   5.950  23.306  0.00  0.00    +0.040 A 
ATOM     32  C   UNL     1      -2.005   6.003  24.884  0.00  0.00    +0.040 A 
ATOM     35  C   UNL     1      -2.693   6.574  23.815  0.00  0.00    +0.124 A 
ENDBRANCH   9  28
BRANCH  10  14
ATOM     14  C   UNL     1      -2.268  -0.192  24.153  0.00  0.00    +0.061 C 
BRANCH  14  17
ATOM      8  N   UNL     1      -1.489   1.303  25.863  0.00  0.00    -0.287 NA
ATOM     17  C   UNL     1      -1.194   0.666  24.778  0.00  0.00    +0.044 C 
ATOM     19  C   UNL     1       0.135   0.742  24.120  0.00  0.00    +0.003 A 
ATOM     21  C   UNL     1       0.958   1.814  24.484  0.00  0.00    -0.033 A 
ATOM     22  C   UNL     1       0.449   2.807  25.486  0.00  0.00    +0.059 C 
ATOM     23  C   UNL     1      -0.429   2.089  26.503  0.00  0.00    +0.146 C 
ATOM     24  C   UNL     1       0.561  -0.189  23.170  0.00  0.00    +0.059 A 
ATOM     25  C   UNL     1       2.206   1.965  23.871  0.00  0.00    +0.053 A 
ATOM     26  C   UNL     1       1.813  -0.038  22.575  0.00  0.00    +0.162 A 
ATOM     27  C   UNL     1       2.633   1.037  22.922  0.00  0.00    +0.162 A 
BRANCH  26   5
ATOM      5  O   UNL     1       2.228  -0.949  21.650  0.00  0.00    -0.491 OA
ATOM     33  C   UNL     1       1.237  -1.467  20.763  0.00  0.00    +0.277 C 
ENDBRANCH  26   5
BRANCH  27   6
ATOM      6  O   UNL     1       3.854   1.192  22.338  0.00  0.00    -0.491 OA
ATOM     34  C   UNL     1       4.968   0.594  22.999  0.00  0.00    +0.277 C 
ENDBRANCH  27   6
ENDBRANCH  14  17
ENDBRANCH  10  14
BRANCH  11  16
ATOM     16  C   UNL     1      -3.476  -2.971  23.815  0.00  0.00    +0.124 C 
BRANCH  16  20
ATOM      4  O   UNL     1      -1.494  -3.003  25.233  0.00  0.00    -0.251 OA
ATOM     20  C   UNL     1      -2.024  -3.180  24.147  0.00  0.00    +0.305 C 
BRANCH  20   2
ATOM      2  O   UNL     1      -1.358  -3.603  23.042  0.00  0.00    -0.481 OA
ATOM     37  H   UNL     1      -0.557  -3.063  22.868  0.00  0.00    +0.295 HD
ENDBRANCH  20   2
ENDBRANCH  16  20
ENDBRANCH  11  16
TORSDOF 8
ENDMDL
