MODEL 1
REMARK VINA RESULT:      18.2      0.000      0.000
REMARK  Name = 40777706
REMARK  10 active torsions:
REMARK  status: ('A' for Active; 'I' for Inactive)
REMARK    1  A    between atoms: N_3  and  C_15
REMARK    2  A    between atoms: N_4  and  C_8
REMARK    3  A    between atoms: C_6  and  C_9
REMARK    4  A    between atoms: C_12  and  C_16
REMARK    5  A    between atoms: C_13  and  C_18
REMARK    6  A    between atoms: C_14  and  C_17
REMARK    7  A    between atoms: C_14  and  C_24
REMARK    8  A    between atoms: C_14  and  C_25
REMARK    9  A    between atoms: C_14  and  C_26
REMARK   10  A    between atoms: C_21  and  C_27
REMARK                            x       y       z     vdW  Elec       q    Type
REMARK                         _______ _______ _______ _____ _____    ______ ____
ROOT
ATOM      3  N   UNL     1      -1.180   0.205  24.711  0.00  0.00    -0.236 N 
ATOM      5  N   UNL     1      -0.920  -1.072  25.038  0.00  0.00    -0.171 NA
ATOM      9  C   UNL     1       0.923  -0.037  24.170  0.00  0.00    +0.003 A 
ATOM     12  C   UNL     1      -0.110   0.869  24.187  0.00  0.00    +0.046 A 
ATOM     13  C   UNL     1       0.365  -1.215  24.705  0.00  0.00    +0.064 A 
ATOM     16  C   UNL     1      -0.163   2.281  23.756  0.00  0.00    +0.066 C 
ATOM     18  C   UNL     1       1.029  -2.513  24.918  0.00  0.00    +0.068 C 
ENDROOT
BRANCH   3  15
ATOM     15  C   UNL     1      -2.457   0.727  24.921  0.00  0.00    +0.066 A 
ATOM     17  C   UNL     1      -5.008   1.770  25.349  0.00  0.00    -0.042 A 
ATOM     19  C   UNL     1      -2.634   2.105  25.055  0.00  0.00    +0.028 A 
ATOM     20  C   UNL     1      -3.555  -0.129  25.000  0.00  0.00    +0.028 A 
ATOM     22  C   UNL     1      -3.910   2.626  25.269  0.00  0.00    +0.006 A 
ATOM     23  C   UNL     1      -4.831   0.393  25.215  0.00  0.00    +0.006 A 
BRANCH  17  14
ATOM     14  C   UNL     1      -6.373   2.328  25.578  0.00  0.00    -0.013 C 
ATOM     24  C   UNL     1      -6.979   1.809  26.918  0.00  0.00    +0.015 C 
ATOM     25  C   UNL     1      -7.350   1.923  24.431  0.00  0.00    +0.015 C 
ATOM     26  C   UNL     1      -6.454   3.889  25.662  0.00  0.00    +0.015 C 
ENDBRANCH  17  14
ENDBRANCH   3  15
BRANCH   9   6
ATOM      6  C   UNL     1       2.336   0.183  23.684  0.00  0.00    +0.047 C 
ATOM      7  C   UNL     1       2.630  -0.499  22.331  0.00  0.00    +0.039 C 
ATOM      8  C   UNL     1       3.606   0.430  21.597  0.00  0.00    +0.097 C 
ATOM     10  C   UNL     1       2.689   1.615  23.407  0.00  0.00    -0.021 C 
ATOM     11  C   UNL     1       3.383   1.743  22.271  0.00  0.00    -0.009 C 
BRANCH   8   4
ATOM      2  O   UNL     1       5.223   0.821  23.937  0.00  0.00    -0.270 OA
ATOM      4  N   UNL     1       4.979   0.039  21.767  0.00  0.00    -0.305 N 
ATOM     21  C   UNL     1       5.686   0.270  22.942  0.00  0.00    +0.251 C 
ATOM     31  H   UNL     1       5.464  -0.393  20.984  0.00  0.00    +0.150 HD
BRANCH  21  27
ATOM      1  S   UNL     1       8.261   0.748  23.815  0.00  0.00    -0.092 S 
ATOM     27  C   UNL     1       7.104  -0.172  22.949  0.00  0.00    +0.074 A 
ATOM     28  C   UNL     1       7.670  -1.269  22.336  0.00  0.00    +0.021 A 
ATOM     29  C   UNL     1       9.070  -1.354  22.580  0.00  0.00    +0.008 A 
ATOM     30  C   UNL     1       9.523  -0.321  23.369  0.00  0.00    +0.046 A 
ENDBRANCH  21  27
ENDBRANCH   8   4
ENDBRANCH   9   6
TORSDOF 5
ENDMDL
MODEL 2
REMARK VINA RESULT:      18.8      1.559      2.334
REMARK  Name = 40777706
REMARK  10 active torsions:
REMARK  status: ('A' for Active; 'I' for Inactive)
REMARK    1  A    between atoms: N_3  and  C_15
REMARK    2  A    between atoms: N_4  and  C_8
REMARK    3  A    between atoms: C_6  and  C_9
REMARK    4  A    between atoms: C_12  and  C_16
REMARK    5  A    between atoms: C_13  and  C_18
REMARK    6  A    between atoms: C_14  and  C_17
REMARK    7  A    between atoms: C_14  and  C_24
REMARK    8  A    between atoms: C_14  and  C_25
REMARK    9  A    between atoms: C_14  and  C_26
REMARK   10  A    between atoms: C_21  and  C_27
REMARK                            x       y       z     vdW  Elec       q    Type
REMARK                         _______ _______ _______ _____ _____    ______ ____
ROOT
ATOM      3  N   UNL     1      -0.781   0.789  23.497  0.00  0.00    -0.236 N 
ATOM      5  N   UNL     1      -0.739  -0.200  22.588  0.00  0.00    -0.171 NA
ATOM      9  C   UNL     1       1.351   0.593  23.061  0.00  0.00    +0.003 A 
ATOM     12  C   UNL     1       0.445   1.298  23.814  0.00  0.00    +0.046 A 
ATOM     13  C   UNL     1       0.566  -0.315  22.325  0.00  0.00    +0.064 A 
ATOM     16  C   UNL     1       0.641   2.391  24.788  0.00  0.00    +0.066 C 
ATOM     18  C   UNL     1       1.022  -1.321  21.348  0.00  0.00    +0.068 C 
ENDROOT
BRANCH   3  15
ATOM     15  C   UNL     1      -2.008   1.198  24.019  0.00  0.00    +0.066 A 
ATOM     17  C   UNL     1      -4.465   2.015  25.056  0.00  0.00    -0.042 A 
ATOM     19  C   UNL     1      -2.857   0.267  24.618  0.00  0.00    +0.028 A 
ATOM     20  C   UNL     1      -2.387   2.538  23.939  0.00  0.00    +0.028 A 
ATOM     22  C   UNL     1      -4.086   0.675  25.136  0.00  0.00    +0.006 A 
ATOM     23  C   UNL     1      -3.616   2.947  24.457  0.00  0.00    +0.006 A 
BRANCH  17  14
ATOM     14  C   UNL     1      -5.780   2.452  25.610  0.00  0.00    -0.013 C 
ATOM     24  C   UNL     1      -6.958   1.995  24.697  0.00  0.00    +0.015 C 
ATOM     25  C   UNL     1      -5.854   4.006  25.733  0.00  0.00    +0.015 C 
ATOM     26  C   UNL     1      -6.122   1.905  27.036  0.00  0.00    +0.015 C 
ENDBRANCH  17  14
ENDBRANCH   3  15
BRANCH   9   6
ATOM      6  C   UNL     1       2.853   0.758  23.029  0.00  0.00    +0.047 C 
ATOM      7  C   UNL     1       3.600  -0.277  23.895  0.00  0.00    +0.039 C 
ATOM      8  C   UNL     1       4.910  -0.576  23.154  0.00  0.00    +0.097 C 
ATOM     10  C   UNL     1       3.478   0.560  21.679  0.00  0.00    -0.021 C 
ATOM     11  C   UNL     1       4.599  -0.164  21.753  0.00  0.00    -0.009 C 
BRANCH   8   4
ATOM      2  O   UNL     1       7.667  -0.846  22.398  0.00  0.00    -0.270 OA
ATOM      4  N   UNL     1       6.015   0.204  23.642  0.00  0.00    -0.305 N 
ATOM     21  C   UNL     1       7.323   0.001  23.217  0.00  0.00    +0.251 C 
ATOM     31  H   UNL     1       5.837   0.908  24.354  0.00  0.00    +0.150 HD
BRANCH  21  27
ATOM      1  S   UNL     1       7.916   2.450  24.345  0.00  0.00    -0.092 S 
ATOM     27  C   UNL     1       8.353   0.873  23.837  0.00  0.00    +0.074 A 
ATOM     28  C   UNL     1       9.682   0.601  24.083  0.00  0.00    +0.021 A 
ATOM     29  C   UNL     1      10.348   1.700  24.696  0.00  0.00    +0.008 A 
ATOM     30  C   UNL     1       9.506   2.771  24.895  0.00  0.00    +0.046 A 
ENDBRANCH  21  27
ENDBRANCH   8   4
ENDBRANCH   9   6
TORSDOF 5
ENDMDL
