MODEL 1
REMARK VINA RESULT:      -7.2      0.000      0.000
REMARK  Name = 75536508
REMARK  7 active torsions:
REMARK  status: ('A' for Active; 'I' for Inactive)
REMARK    1  A    between atoms: O_2  and  C_8
REMARK    2  A    between atoms: N_4  and  C_7
REMARK    3  A    between atoms: N_4  and  C_12
REMARK    4  A    between atoms: N_5  and  C_11
REMARK    5  A    between atoms: C_9  and  C_11
REMARK    6  A    between atoms: C_12  and  C_13
REMARK    7  A    between atoms: C_14  and  C_17
REMARK                            x       y       z     vdW  Elec       q    Type
REMARK                         _______ _______ _______ _____ _____    ______ ____
ROOT
ATOM      1  O   UNL     1      -0.830   3.574  25.866  0.00  0.00    -0.371 OA
ATOM      7  C   UNL     1      -0.210   1.654  24.613  0.00  0.00    +0.111 C 
ATOM      8  C   UNL     1      -1.610   2.079  24.208  0.00  0.00    +0.164 C 
ATOM      9  C   UNL     1      -1.619   3.532  24.666  0.00  0.00    +0.165 C 
ATOM     10  C   UNL     1      -0.054   2.365  25.946  0.00  0.00    +0.181 C 
ENDROOT
BRANCH   8   2
ATOM      2  O   UNL     1      -1.835   1.963  22.817  0.00  0.00    -0.388 OA
ATOM     21  H   UNL     1      -1.254   2.595  22.359  0.00  0.00    +0.210 HD
ENDBRANCH   8   2
BRANCH   7   4
ATOM      4  N   UNL     1      -0.045   0.214  24.716  0.00  0.00    -0.305 NA
ATOM     20  H   UNL     1       0.916   0.007  24.991  0.00  0.00    +0.123 HD
BRANCH   4  12
ATOM     12  C   UNL     1      -0.952  -0.349  25.709  0.00  0.00    +0.118 C 
BRANCH  12  13
ATOM      6  N   UNL     1      -2.921  -3.127  24.057  0.00  0.00    -0.263 NA
ATOM     13  C   UNL     1      -2.092  -1.094  25.068  0.00  0.00    -0.015 A 
ATOM     15  C   UNL     1      -3.332  -0.490  24.889  0.00  0.00    +0.008 A 
ATOM     16  C   UNL     1      -1.940  -2.403  24.639  0.00  0.00    +0.115 A 
ATOM     18  C   UNL     1      -4.366  -1.202  24.293  0.00  0.00    +0.020 A 
ATOM     19  C   UNL     1      -4.113  -2.506  23.898  0.00  0.00    +0.111 A 
ENDBRANCH  12  13
ENDBRANCH   4  12
ENDBRANCH   7   4
BRANCH   9  11
ATOM     11  C   UNL     1      -3.014   4.062  24.950  0.00  0.00    +0.138 C 
BRANCH  11   5
ATOM      3  O   UNL     1      -5.801   4.227  25.747  0.00  0.00    -0.276 OA
ATOM      5  N   UNL     1      -3.981   3.003  24.964  0.00  0.00    -0.313 N 
ATOM     14  C   UNL     1      -5.302   3.173  25.363  0.00  0.00    +0.210 C 
ATOM     17  C   UNL     1      -6.107   1.905  25.256  0.00  0.00    +0.109 C 
ATOM     22  H   UNL     1      -3.674   2.081  24.667  0.00  0.00    +0.149 HD
ENDBRANCH  11   5
ENDBRANCH   9  11
TORSDOF 6
ENDMDL
MODEL 2
REMARK VINA RESULT:      -6.6      2.163      4.757
REMARK  Name = 75536508
REMARK  7 active torsions:
REMARK  status: ('A' for Active; 'I' for Inactive)
REMARK    1  A    between atoms: O_2  and  C_8
REMARK    2  A    between atoms: N_4  and  C_7
REMARK    3  A    between atoms: N_4  and  C_12
REMARK    4  A    between atoms: N_5  and  C_11
REMARK    5  A    between atoms: C_9  and  C_11
REMARK    6  A    between atoms: C_12  and  C_13
REMARK    7  A    between atoms: C_14  and  C_17
REMARK                            x       y       z     vdW  Elec       q    Type
REMARK                         _______ _______ _______ _____ _____    ______ ____
ROOT
ATOM      1  O   UNL     1       0.167  -0.781  23.437  0.00  0.00    -0.371 OA
ATOM      7  C   UNL     1      -0.200   1.453  24.155  0.00  0.00    +0.111 C 
ATOM      8  C   UNL     1      -0.809   0.502  25.169  0.00  0.00    +0.164 C 
ATOM      9  C   UNL     1      -0.050  -0.782  24.858  0.00  0.00    +0.165 C 
ATOM     10  C   UNL     1      -0.060   0.550  22.941  0.00  0.00    +0.181 C 
ENDROOT
BRANCH   8   2
ATOM      2  O   UNL     1      -0.608   0.923  26.503  0.00  0.00    -0.388 OA
ATOM     21  H   UNL     1      -0.675   0.145  27.083  0.00  0.00    +0.210 HD
ENDBRANCH   8   2
BRANCH   7   4
ATOM      4  N   UNL     1      -1.016   2.628  23.895  0.00  0.00    -0.305 NA
ATOM     20  H   UNL     1      -0.497   3.269  23.294  0.00  0.00    +0.123 HD
BRANCH   4  12
ATOM     12  C   UNL     1      -2.264   2.266  23.234  0.00  0.00    +0.118 C 
BRANCH  12  13
ATOM      6  N   UNL     1      -4.738   3.958  25.545  0.00  0.00    -0.263 NA
ATOM     13  C   UNL     1      -3.455   2.476  24.130  0.00  0.00    -0.015 A 
ATOM     15  C   UNL     1      -4.355   1.446  24.380  0.00  0.00    +0.008 A 
ATOM     16  C   UNL     1      -3.690   3.702  24.731  0.00  0.00    +0.115 A 
ATOM     18  C   UNL     1      -5.445   1.669  25.213  0.00  0.00    +0.020 A 
ATOM     19  C   UNL     1      -5.592   2.931  25.765  0.00  0.00    +0.111 A 
ENDBRANCH  12  13
ENDBRANCH   4  12
ENDBRANCH   7   4
BRANCH   9  11
ATOM     11  C   UNL     1      -0.803  -2.037  25.262  0.00  0.00    +0.138 C 
BRANCH  11   5
ATOM      3  O   UNL     1      -3.572  -1.562  25.992  0.00  0.00    -0.276 OA
ATOM      5  N   UNL     1      -1.965  -2.232  24.445  0.00  0.00    -0.313 N 
ATOM     14  C   UNL     1      -3.262  -1.978  24.879  0.00  0.00    +0.210 C 
ATOM     17  C   UNL     1      -4.291  -2.243  23.813  0.00  0.00    +0.109 C 
ATOM     22  H   UNL     1      -1.825  -2.578  23.500  0.00  0.00    +0.149 HD
ENDBRANCH  11   5
ENDBRANCH   9  11
TORSDOF 6
ENDMDL
MODEL 3
REMARK VINA RESULT:      -5.9      2.675      5.857
REMARK  Name = 75536508
REMARK  7 active torsions:
REMARK  status: ('A' for Active; 'I' for Inactive)
REMARK    1  A    between atoms: O_2  and  C_8
REMARK    2  A    between atoms: N_4  and  C_7
REMARK    3  A    between atoms: N_4  and  C_12
REMARK    4  A    between atoms: N_5  and  C_11
REMARK    5  A    between atoms: C_9  and  C_11
REMARK    6  A    between atoms: C_12  and  C_13
REMARK    7  A    between atoms: C_14  and  C_17
REMARK                            x       y       z     vdW  Elec       q    Type
REMARK                         _______ _______ _______ _____ _____    ______ ____
ROOT
ATOM      1  O   UNL     1      -0.388   0.464  25.280  0.00  0.00    -0.371 OA
ATOM      7  C   UNL     1      -2.295  -0.903  25.650  0.00  0.00    +0.111 C 
ATOM      8  C   UNL     1      -1.700  -1.240  24.295  0.00  0.00    +0.164 C 
ATOM      9  C   UNL     1      -0.281  -0.711  24.458  0.00  0.00    +0.165 C 
ATOM     10  C   UNL     1      -1.676   0.459  25.920  0.00  0.00    +0.181 C 
ENDROOT
BRANCH   8   2
ATOM      2  O   UNL     1      -1.717  -2.627  24.021  0.00  0.00    -0.388 OA
ATOM     21  H   UNL     1      -1.467  -3.102  24.832  0.00  0.00    +0.210 HD
ENDBRANCH   8   2
BRANCH   7   4
ATOM      4  N   UNL     1      -3.749  -0.876  25.659  0.00  0.00    -0.305 NA
ATOM     20  H   UNL     1      -4.068  -0.382  26.492  0.00  0.00    +0.123 HD
BRANCH   4  12
ATOM     12  C   UNL     1      -4.268  -0.196  24.478  0.00  0.00    +0.118 C 
BRANCH  12  13
ATOM      6  N   UNL     1      -5.712   2.981  25.944  0.00  0.00    -0.263 NA
ATOM     13  C   UNL     1      -4.509   1.268  24.735  0.00  0.00    -0.015 A 
ATOM     15  C   UNL     1      -3.796   2.243  24.047  0.00  0.00    +0.008 A 
ATOM     16  C   UNL     1      -5.447   1.685  25.665  0.00  0.00    +0.115 A 
ATOM     18  C   UNL     1      -4.041   3.587  24.305  0.00  0.00    +0.020 A 
ATOM     19  C   UNL     1      -5.000   3.901  25.254  0.00  0.00    +0.111 A 
ENDBRANCH  12  13
ENDBRANCH   4  12
ENDBRANCH   7   4
BRANCH   9  11
ATOM     11  C   UNL     1       0.382  -0.355  23.139  0.00  0.00    +0.138 C 
BRANCH  11   5
ATOM      3  O   UNL     1       2.517  -0.150  21.182  0.00  0.00    -0.276 OA
ATOM      5  N   UNL     1       1.704   0.160  23.343  0.00  0.00    -0.313 N 
ATOM     14  C   UNL     1       2.669   0.220  22.343  0.00  0.00    +0.210 C 
ATOM     17  C   UNL     1       3.960   0.829  22.820  0.00  0.00    +0.109 C 
ATOM     22  H   UNL     1       1.942   0.495  24.272  0.00  0.00    +0.149 HD
ENDBRANCH  11   5
ENDBRANCH   9  11
TORSDOF 6
ENDMDL
MODEL 4
REMARK VINA RESULT:      -5.9      1.687      4.177
REMARK  Name = 75536508
REMARK  7 active torsions:
REMARK  status: ('A' for Active; 'I' for Inactive)
REMARK    1  A    between atoms: O_2  and  C_8
REMARK    2  A    between atoms: N_4  and  C_7
REMARK    3  A    between atoms: N_4  and  C_12
REMARK    4  A    between atoms: N_5  and  C_11
REMARK    5  A    between atoms: C_9  and  C_11
REMARK    6  A    between atoms: C_12  and  C_13
REMARK    7  A    between atoms: C_14  and  C_17
REMARK                            x       y       z     vdW  Elec       q    Type
REMARK                         _______ _______ _______ _____ _____    ______ ____
ROOT
ATOM      1  O   UNL     1      -1.417   2.365  23.012  0.00  0.00    -0.371 OA
ATOM      7  C   UNL     1      -3.562   2.704  23.973  0.00  0.00    +0.111 C 
ATOM      8  C   UNL     1      -2.529   2.628  25.083  0.00  0.00    +0.164 C 
ATOM      9  C   UNL     1      -1.252   2.946  24.316  0.00  0.00    +0.165 C 
ATOM     10  C   UNL     1      -2.810   2.065  22.818  0.00  0.00    +0.181 C 
ENDROOT
BRANCH   8   2
ATOM      2  O   UNL     1      -2.769   3.560  26.118  0.00  0.00    -0.388 OA
ATOM     21  H   UNL     1      -2.213   3.322  26.880  0.00  0.00    +0.210 HD
ENDBRANCH   8   2
BRANCH   7   4
ATOM      4  N   UNL     1      -4.806   2.020  24.287  0.00  0.00    -0.305 NA
ATOM     20  H   UNL     1      -5.070   1.429  23.498  0.00  0.00    +0.123 HD
BRANCH   4  12
ATOM     12  C   UNL     1      -4.663   1.188  25.475  0.00  0.00    +0.118 C 
BRANCH  12  13
ATOM      6  N   UNL     1      -4.271  -2.063  23.576  0.00  0.00    -0.263 NA
ATOM     13  C   UNL     1      -4.228  -0.211  25.130  0.00  0.00    -0.015 A 
ATOM     15  C   UNL     1      -3.413  -0.940  25.988  0.00  0.00    +0.008 A 
ATOM     16  C   UNL     1      -4.625  -0.812  23.946  0.00  0.00    +0.115 A 
ATOM     18  C   UNL     1      -3.027  -2.230  25.643  0.00  0.00    +0.020 A 
ATOM     19  C   UNL     1      -3.478  -2.742  24.437  0.00  0.00    +0.111 A 
ENDBRANCH  12  13
ENDBRANCH   4  12
ENDBRANCH   7   4
BRANCH   9  11
ATOM     11  C   UNL     1      -0.003   2.385  24.973  0.00  0.00    +0.138 C 
BRANCH  11   5
ATOM      3  O   UNL     1      -0.286  -0.411  24.246  0.00  0.00    -0.276 OA
ATOM      5  N   UNL     1       0.791   1.644  24.037  0.00  0.00    -0.313 N 
ATOM     14  C   UNL     1       0.583   0.300  23.748  0.00  0.00    +0.210 C 
ATOM     17  C   UNL     1       1.540  -0.224  22.711  0.00  0.00    +0.109 C 
ATOM     22  H   UNL     1       1.545   2.135  23.565  0.00  0.00    +0.149 HD
ENDBRANCH  11   5
ENDBRANCH   9  11
TORSDOF 6
ENDMDL
MODEL 5
REMARK VINA RESULT:      -5.9      2.636      5.797
REMARK  Name = 75536508
REMARK  7 active torsions:
REMARK  status: ('A' for Active; 'I' for Inactive)
REMARK    1  A    between atoms: O_2  and  C_8
REMARK    2  A    between atoms: N_4  and  C_7
REMARK    3  A    between atoms: N_4  and  C_12
REMARK    4  A    between atoms: N_5  and  C_11
REMARK    5  A    between atoms: C_9  and  C_11
REMARK    6  A    between atoms: C_12  and  C_13
REMARK    7  A    between atoms: C_14  and  C_17
REMARK                            x       y       z     vdW  Elec       q    Type
REMARK                         _______ _______ _______ _____ _____    ______ ____
ROOT
ATOM      1  O   UNL     1      -0.372   0.409  25.295  0.00  0.00    -0.371 OA
ATOM      7  C   UNL     1      -2.275  -0.963  25.666  0.00  0.00    +0.111 C 
ATOM      8  C   UNL     1      -1.693  -1.283  24.301  0.00  0.00    +0.164 C 
ATOM      9  C   UNL     1      -0.272  -0.755  24.458  0.00  0.00    +0.165 C 
ATOM     10  C   UNL     1      -1.654   0.396  25.947  0.00  0.00    +0.181 C 
ENDROOT
BRANCH   8   2
ATOM      2  O   UNL     1      -1.712  -2.667  24.010  0.00  0.00    -0.388 OA
ATOM     21  H   UNL     1      -1.169  -3.126  24.674  0.00  0.00    +0.210 HD
ENDBRANCH   8   2
BRANCH   7   4
ATOM      4  N   UNL     1      -3.729  -0.936  25.688  0.00  0.00    -0.305 NA
ATOM     20  H   UNL     1      -4.040  -0.401  26.499  0.00  0.00    +0.123 HD
BRANCH   4  12
ATOM     12  C   UNL     1      -4.261  -0.317  24.480  0.00  0.00    +0.118 C 
BRANCH  12  13
ATOM      6  N   UNL     1      -3.777   3.411  24.040  0.00  0.00    -0.263 NA
ATOM     13  C   UNL     1      -4.445   1.168  24.646  0.00  0.00    -0.015 A 
ATOM     15  C   UNL     1      -5.404   1.679  25.513  0.00  0.00    +0.008 A 
ATOM     16  C   UNL     1      -3.664   2.068  23.938  0.00  0.00    +0.115 A 
ATOM     18  C   UNL     1      -5.550   3.055  25.646  0.00  0.00    +0.020 A 
ATOM     19  C   UNL     1      -4.721   3.871  24.894  0.00  0.00    +0.111 A 
ENDBRANCH  12  13
ENDBRANCH   4  12
ENDBRANCH   7   4
BRANCH   9  11
ATOM     11  C   UNL     1       0.378  -0.384  23.137  0.00  0.00    +0.138 C 
BRANCH  11   5
ATOM      3  O   UNL     1       2.505  -0.157  21.174  0.00  0.00    -0.276 OA
ATOM      5  N   UNL     1       1.696   0.147  23.337  0.00  0.00    -0.313 N 
ATOM     14  C   UNL     1       2.656   0.217  22.334  0.00  0.00    +0.210 C 
ATOM     17  C   UNL     1       3.942   0.840  22.807  0.00  0.00    +0.109 C 
ATOM     22  H   UNL     1       1.932   0.485  24.265  0.00  0.00    +0.149 HD
ENDBRANCH  11   5
ENDBRANCH   9  11
TORSDOF 6
ENDMDL
MODEL 6
REMARK VINA RESULT:      -5.7      1.531      3.769
REMARK  Name = 75536508
REMARK  7 active torsions:
REMARK  status: ('A' for Active; 'I' for Inactive)
REMARK    1  A    between atoms: O_2  and  C_8
REMARK    2  A    between atoms: N_4  and  C_7
REMARK    3  A    between atoms: N_4  and  C_12
REMARK    4  A    between atoms: N_5  and  C_11
REMARK    5  A    between atoms: C_9  and  C_11
REMARK    6  A    between atoms: C_12  and  C_13
REMARK    7  A    between atoms: C_14  and  C_17
REMARK                            x       y       z     vdW  Elec       q    Type
REMARK                         _______ _______ _______ _____ _____    ______ ____
ROOT
ATOM      1  O   UNL     1      -3.169   3.326  23.548  0.00  0.00    -0.371 OA
ATOM      7  C   UNL     1      -4.947   1.920  24.259  0.00  0.00    +0.111 C 
ATOM      8  C   UNL     1      -4.519   2.802  25.418  0.00  0.00    +0.164 C 
ATOM      9  C   UNL     1      -3.813   3.932  24.681  0.00  0.00    +0.165 C 
ATOM     10  C   UNL     1      -3.738   2.021  23.343  0.00  0.00    +0.181 C 
ENDROOT
BRANCH   8   2
ATOM      2  O   UNL     1      -5.614   3.272  26.180  0.00  0.00    -0.388 OA
ATOM     21  H   UNL     1      -5.961   4.075  25.753  0.00  0.00    +0.210 HD
ENDBRANCH   8   2
BRANCH   7   4
ATOM      4  N   UNL     1      -5.250   0.552  24.649  0.00  0.00    -0.305 NA
ATOM     20  H   UNL     1      -5.075  -0.066  23.857  0.00  0.00    +0.123 HD
BRANCH   4  12
ATOM     12  C   UNL     1      -4.421   0.130  25.771  0.00  0.00    +0.118 C 
BRANCH  12  13
ATOM      6  N   UNL     1      -0.948  -1.257  25.181  0.00  0.00    -0.263 NA
ATOM     13  C   UNL     1      -3.317  -0.796  25.334  0.00  0.00    -0.015 A 
ATOM     15  C   UNL     1      -3.600  -2.003  24.705  0.00  0.00    +0.008 A 
ATOM     16  C   UNL     1      -1.986  -0.473  25.547  0.00  0.00    +0.115 A 
ATOM     18  C   UNL     1      -2.560  -2.837  24.312  0.00  0.00    +0.020 A 
ATOM     19  C   UNL     1      -1.263  -2.423  24.571  0.00  0.00    +0.111 A 
ENDBRANCH  12  13
ENDBRANCH   4  12
ENDBRANCH   7   4
BRANCH   9  11
ATOM     11  C   UNL     1      -2.781   4.652  25.532  0.00  0.00    +0.138 C 
BRANCH  11   5
ATOM      3  O   UNL     1      -0.263   3.749  24.405  0.00  0.00    -0.276 OA
ATOM      5  N   UNL     1      -1.848   3.729  26.111  0.00  0.00    -0.313 N 
ATOM     14  C   UNL     1      -0.660   3.351  25.496  0.00  0.00    +0.210 C 
ATOM     17  C   UNL     1       0.144   2.391  26.332  0.00  0.00    +0.109 C 
ATOM     22  H   UNL     1      -2.078   3.333  27.018  0.00  0.00    +0.149 HD
ENDBRANCH  11   5
ENDBRANCH   9  11
TORSDOF 6
ENDMDL
MODEL 7
REMARK VINA RESULT:      -5.3      3.059      5.488
REMARK  Name = 75536508
REMARK  7 active torsions:
REMARK  status: ('A' for Active; 'I' for Inactive)
REMARK    1  A    between atoms: O_2  and  C_8
REMARK    2  A    between atoms: N_4  and  C_7
REMARK    3  A    between atoms: N_4  and  C_12
REMARK    4  A    between atoms: N_5  and  C_11
REMARK    5  A    between atoms: C_9  and  C_11
REMARK    6  A    between atoms: C_12  and  C_13
REMARK    7  A    between atoms: C_14  and  C_17
REMARK                            x       y       z     vdW  Elec       q    Type
REMARK                         _______ _______ _______ _____ _____    ______ ____
ROOT
ATOM      1  O   UNL     1       1.146   2.203  24.055  0.00  0.00    -0.371 OA
ATOM      7  C   UNL     1      -1.085   1.460  24.391  0.00  0.00    +0.111 C 
ATOM      8  C   UNL     1      -0.351   0.449  23.528  0.00  0.00    +0.164 C 
ATOM      9  C   UNL     1       1.099   0.780  23.858  0.00  0.00    +0.165 C 
ATOM     10  C   UNL     1      -0.197   2.684  24.240  0.00  0.00    +0.181 C 
ENDROOT
BRANCH   8   2
ATOM      2  O   UNL     1      -0.675  -0.887  23.857  0.00  0.00    -0.388 OA
ATOM     21  H   UNL     1      -0.744  -1.397  23.032  0.00  0.00    +0.210 HD
ENDBRANCH   8   2
BRANCH   7   4
ATOM      4  N   UNL     1      -2.455   1.700  23.970  0.00  0.00    -0.305 NA
ATOM     20  H   UNL     1      -2.617   1.231  23.078  0.00  0.00    +0.123 HD
BRANCH   4  12
ATOM     12  C   UNL     1      -3.404   1.189  24.952  0.00  0.00    +0.118 C 
BRANCH  12  13
ATOM      6  N   UNL     1      -3.285  -2.482  25.869  0.00  0.00    -0.263 NA
ATOM     13  C   UNL     1      -3.561  -0.305  24.854  0.00  0.00    -0.015 A 
ATOM     15  C   UNL     1      -4.103  -0.896  23.717  0.00  0.00    +0.008 A 
ATOM     16  C   UNL     1      -3.172  -1.135  25.893  0.00  0.00    +0.115 A 
ATOM     18  C   UNL     1      -4.235  -2.278  23.655  0.00  0.00    +0.020 A 
ATOM     19  C   UNL     1      -3.816  -3.020  24.747  0.00  0.00    +0.111 A 
ENDBRANCH  12  13
ENDBRANCH   4  12
ENDBRANCH   7   4
BRANCH   9  11
ATOM     11  C   UNL     1       2.070   0.381  22.761  0.00  0.00    +0.138 C 
BRANCH  11   5
ATOM      3  O   UNL     1       4.109  -1.482  23.657  0.00  0.00    -0.276 OA
ATOM      5  N   UNL     1       3.423   0.681  23.129  0.00  0.00    -0.313 N 
ATOM     14  C   UNL     1       4.337  -0.280  23.549  0.00  0.00    +0.210 C 
ATOM     17  C   UNL     1       5.692   0.302  23.848  0.00  0.00    +0.109 C 
ATOM     22  H   UNL     1       3.721   1.651  23.080  0.00  0.00    +0.149 HD
ENDBRANCH  11   5
ENDBRANCH   9  11
TORSDOF 6
ENDMDL
MODEL 8
REMARK VINA RESULT:      -5.2      2.134      4.746
REMARK  Name = 75536508
REMARK  7 active torsions:
REMARK  status: ('A' for Active; 'I' for Inactive)
REMARK    1  A    between atoms: O_2  and  C_8
REMARK    2  A    between atoms: N_4  and  C_7
REMARK    3  A    between atoms: N_4  and  C_12
REMARK    4  A    between atoms: N_5  and  C_11
REMARK    5  A    between atoms: C_9  and  C_11
REMARK    6  A    between atoms: C_12  and  C_13
REMARK    7  A    between atoms: C_14  and  C_17
REMARK                            x       y       z     vdW  Elec       q    Type
REMARK                         _______ _______ _______ _____ _____    ______ ____
ROOT
ATOM      1  O   UNL     1      -1.266  -2.095  23.675  0.00  0.00    -0.371 OA
ATOM      7  C   UNL     1      -0.054  -0.350  24.735  0.00  0.00    +0.111 C 
ATOM      8  C   UNL     1      -1.276  -0.683  25.573  0.00  0.00    +0.164 C 
ATOM      9  C   UNL     1      -1.599  -2.086  25.073  0.00  0.00    +0.165 C 
ATOM     10  C   UNL     1      -0.434  -0.957  23.395  0.00  0.00    +0.181 C 
ENDROOT
BRANCH   8   2
ATOM      2  O   UNL     1      -1.008  -0.666  26.961  0.00  0.00    -0.388 OA
ATOM     21  H   UNL     1      -1.541  -1.361  27.384  0.00  0.00    +0.210 HD
ENDBRANCH   8   2
BRANCH   7   4
ATOM      4  N   UNL     1       0.225   1.075  24.653  0.00  0.00    -0.305 NA
ATOM     20  H   UNL     1       1.207   1.209  24.411  0.00  0.00    +0.123 HD
BRANCH   4  12
ATOM     12  C   UNL     1      -0.603   1.715  23.638  0.00  0.00    +0.118 C 
BRANCH  12  13
ATOM      6  N   UNL     1      -3.846   3.622  24.054  0.00  0.00    -0.263 NA
ATOM     13  C   UNL     1      -1.677   2.574  24.252  0.00  0.00    -0.015 A 
ATOM     15  C   UNL     1      -1.527   3.105  25.528  0.00  0.00    +0.008 A 
ATOM     16  C   UNL     1      -2.844   2.859  23.562  0.00  0.00    +0.115 A 
ATOM     18  C   UNL     1      -2.536   3.895  26.068  0.00  0.00    +0.020 A 
ATOM     19  C   UNL     1      -3.665   4.122  25.298  0.00  0.00    +0.111 A 
ENDBRANCH  12  13
ENDBRANCH   4  12
ENDBRANCH   7   4
BRANCH   9  11
ATOM     11  C   UNL     1      -3.057  -2.466  25.257  0.00  0.00    +0.138 C 
BRANCH  11   5
ATOM      3  O   UNL     1      -4.049  -0.398  23.478  0.00  0.00    -0.276 OA
ATOM      5  N   UNL     1      -3.853  -1.326  25.605  0.00  0.00    -0.313 N 
ATOM     14  C   UNL     1      -4.286  -0.379  24.683  0.00  0.00    +0.210 C 
ATOM     17  C   UNL     1      -5.127   0.699  25.311  0.00  0.00    +0.109 C 
ATOM     22  H   UNL     1      -4.108  -1.209  26.582  0.00  0.00    +0.149 HD
ENDBRANCH  11   5
ENDBRANCH   9  11
TORSDOF 6
ENDMDL
MODEL 9
REMARK VINA RESULT:      -5.1      3.287      5.045
REMARK  Name = 75536508
REMARK  7 active torsions:
REMARK  status: ('A' for Active; 'I' for Inactive)
REMARK    1  A    between atoms: O_2  and  C_8
REMARK    2  A    between atoms: N_4  and  C_7
REMARK    3  A    between atoms: N_4  and  C_12
REMARK    4  A    between atoms: N_5  and  C_11
REMARK    5  A    between atoms: C_9  and  C_11
REMARK    6  A    between atoms: C_12  and  C_13
REMARK    7  A    between atoms: C_14  and  C_17
REMARK                            x       y       z     vdW  Elec       q    Type
REMARK                         _______ _______ _______ _____ _____    ______ ____
ROOT
ATOM      1  O   UNL     1      -1.883  -1.267  24.708  0.00  0.00    -0.371 OA
ATOM      7  C   UNL     1      -0.224   0.413  24.454  0.00  0.00    +0.111 C 
ATOM      8  C   UNL     1      -1.595   1.039  24.269  0.00  0.00    +0.164 C 
ATOM      9  C   UNL     1      -2.481   0.015  24.966  0.00  0.00    +0.165 C 
ATOM     10  C   UNL     1      -0.536  -1.060  24.248  0.00  0.00    +0.181 C 
ENDROOT
BRANCH   8   2
ATOM      2  O   UNL     1      -1.697   2.317  24.865  0.00  0.00    -0.388 OA
ATOM     21  H   UNL     1      -2.632   2.482  25.078  0.00  0.00    +0.210 HD
ENDBRANCH   8   2
BRANCH   7   4
ATOM      4  N   UNL     1       0.776   0.915  23.525  0.00  0.00    -0.305 NA
ATOM     20  H   UNL     1       1.472   1.452  24.043  0.00  0.00    +0.123 HD
BRANCH   4  12
ATOM     12  C   UNL     1       1.444  -0.179  22.831  0.00  0.00    +0.118 C 
BRANCH  12  13
ATOM      6  N   UNL     1       4.831  -1.457  23.937  0.00  0.00    -0.263 NA
ATOM     13  C   UNL     1       2.918  -0.216  23.131  0.00  0.00    -0.015 A 
ATOM     15  C   UNL     1       3.725   0.892  22.900  0.00  0.00    +0.008 A 
ATOM     16  C   UNL     1       3.515  -1.356  23.646  0.00  0.00    +0.115 A 
ATOM     18  C   UNL     1       5.083   0.828  23.187  0.00  0.00    +0.020 A 
ATOM     19  C   UNL     1       5.583  -0.358  23.700  0.00  0.00    +0.111 A 
ENDBRANCH  12  13
ENDBRANCH   4  12
ENDBRANCH   7   4
BRANCH   9  11
ATOM     11  C   UNL     1      -3.915   0.023  24.465  0.00  0.00    +0.138 C 
BRANCH  11   5
ATOM      3  O   UNL     1      -4.417   2.800  23.786  0.00  0.00    -0.276 OA
ATOM      5  N   UNL     1      -4.714   0.966  25.191  0.00  0.00    -0.313 N 
ATOM     14  C   UNL     1      -4.901   2.285  24.790  0.00  0.00    +0.210 C 
ATOM     17  C   UNL     1      -5.806   3.049  25.719  0.00  0.00    +0.109 C 
ATOM     22  H   UNL     1      -5.163   0.646  26.044  0.00  0.00    +0.149 HD
ENDBRANCH  11   5
ENDBRANCH   9  11
TORSDOF 6
ENDMDL
MODEL 10
REMARK VINA RESULT:      -5.1      1.858      4.109
REMARK  Name = 75536508
REMARK  7 active torsions:
REMARK  status: ('A' for Active; 'I' for Inactive)
REMARK    1  A    between atoms: O_2  and  C_8
REMARK    2  A    between atoms: N_4  and  C_7
REMARK    3  A    between atoms: N_4  and  C_12
REMARK    4  A    between atoms: N_5  and  C_11
REMARK    5  A    between atoms: C_9  and  C_11
REMARK    6  A    between atoms: C_12  and  C_13
REMARK    7  A    between atoms: C_14  and  C_17
REMARK                            x       y       z     vdW  Elec       q    Type
REMARK                         _______ _______ _______ _____ _____    ______ ____
ROOT
ATOM      1  O   UNL     1      -3.732   2.480  23.178  0.00  0.00    -0.371 OA
ATOM      7  C   UNL     1      -3.830   0.246  23.977  0.00  0.00    +0.111 C 
ATOM      8  C   UNL     1      -4.246   1.189  25.092  0.00  0.00    +0.164 C 
ATOM      9  C   UNL     1      -4.633   2.430  24.297  0.00  0.00    +0.165 C 
ATOM     10  C   UNL     1      -3.105   1.194  23.037  0.00  0.00    +0.181 C 
ENDROOT
BRANCH   8   2
ATOM      2  O   UNL     1      -5.329   0.692  25.853  0.00  0.00    -0.388 OA
ATOM     21  H   UNL     1      -5.997   1.395  25.930  0.00  0.00    +0.210 HD
ENDBRANCH   8   2
BRANCH   7   4
ATOM      4  N   UNL     1      -2.995  -0.856  24.427  0.00  0.00    -0.305 NA
ATOM     20  H   UNL     1      -2.523  -1.267  23.621  0.00  0.00    +0.123 HD
BRANCH   4  12
ATOM     12  C   UNL     1      -1.991  -0.398  25.380  0.00  0.00    +0.118 C 
BRANCH  12  13
ATOM      6  N   UNL     1       0.867   1.873  24.378  0.00  0.00    -0.263 NA
ATOM     13  C   UNL     1      -0.750   0.103  24.690  0.00  0.00    -0.015 A 
ATOM     15  C   UNL     1      -0.079  -0.684  23.761  0.00  0.00    +0.008 A 
ATOM     16  C   UNL     1      -0.241   1.363  24.961  0.00  0.00    +0.115 A 
ATOM     18  C   UNL     1       1.063  -0.194  23.139  0.00  0.00    +0.020 A 
ATOM     19  C   UNL     1       1.492   1.078  23.479  0.00  0.00    +0.111 A 
ENDBRANCH  12  13
ENDBRANCH   4  12
ENDBRANCH   7   4
BRANCH   9  11
ATOM     11  C   UNL     1      -4.527   3.714  25.100  0.00  0.00    +0.138 C 
BRANCH  11   5
ATOM      3  O   UNL     1      -2.002   3.631  26.530  0.00  0.00    -0.276 OA
ATOM      5  N   UNL     1      -3.324   4.427  24.786  0.00  0.00    -0.313 N 
ATOM     14  C   UNL     1      -2.154   4.327  25.530  0.00  0.00    +0.210 C 
ATOM     17  C   UNL     1      -1.035   5.161  24.965  0.00  0.00    +0.109 C 
ATOM     22  H   UNL     1      -3.337   5.039  23.975  0.00  0.00    +0.149 HD
ENDBRANCH  11   5
ENDBRANCH   9  11
TORSDOF 6
ENDMDL
