MODEL 1
REMARK VINA RESULT:       7.0      0.000      0.000
REMARK  Name = 11887496
REMARK  5 active torsions:
REMARK  status: ('A' for Active; 'I' for Inactive)
REMARK    1  A    between atoms: O_5  and  C_28
REMARK    2  A    between atoms: O_5  and  C_29
REMARK    3  A    between atoms: N_8  and  C_19
REMARK    4  A    between atoms: C_18  and  C_21
REMARK    5  A    between atoms: C_24  and  C_28
REMARK                            x       y       z     vdW  Elec       q    Type
REMARK                         _______ _______ _______ _____ _____    ______ ____
ROOT
ATOM      2  O   UNL     1      -0.954   3.400  25.770  0.00  0.00    -0.266 OA
ATOM      3  O   UNL     1      -3.631  -0.723  27.384  0.00  0.00    -0.270 OA
ATOM      6  N   UNL     1      -4.919   0.371  25.766  0.00  0.00    -0.297 N 
ATOM      7  N   UNL     1      -2.986   2.712  24.845  0.00  0.00    -0.310 N 
ATOM      9  C   UNL     1      -5.199   2.817  26.132  0.00  0.00    +0.027 C 
ATOM     10  C   UNL     1      -5.156   1.920  23.839  0.00  0.00    +0.054 C 
ATOM     11  C   UNL     1      -5.832   2.944  24.750  0.00  0.00    +0.018 C 
ATOM     12  C   UNL     1      -5.405   1.397  26.689  0.00  0.00    +0.113 C 
ATOM     13  C   UNL     1      -3.715   3.188  26.031  0.00  0.00    +0.130 C 
ATOM     14  C   UNL     1      -5.407   0.499  24.383  0.00  0.00    +0.117 C 
ATOM     15  C   UNL     1      -3.664   2.176  23.745  0.00  0.00    +0.027 A 
ATOM     16  C   UNL     1      -2.991   1.854  22.628  0.00  0.00    +0.024 A 
ATOM     17  C   UNL     1      -1.592   2.917  24.834  0.00  0.00    +0.273 A 
ATOM     18  C   UNL     1      -4.041  -0.611  26.230  0.00  0.00    +0.247 C 
ATOM     19  C   UNL     1      -0.876   2.520  23.580  0.00  0.00    +0.099 A 
ATOM     20  C   UNL     1      -1.569   2.030  22.547  0.00  0.00    +0.030 A 
ENDROOT
BRANCH  18  21
ATOM      1  F   UNL     1      -2.128  -4.366  22.555  0.00  0.00    -0.205 F 
ATOM     21  C   UNL     1      -3.539  -1.594  25.265  0.00  0.00    +0.037 A 
ATOM     22  C   UNL     1      -2.172  -1.846  25.180  0.00  0.00    +0.016 A 
ATOM     23  C   UNL     1      -4.431  -2.273  24.439  0.00  0.00    +0.016 A 
ATOM     25  C   UNL     1      -1.695  -2.783  24.263  0.00  0.00    +0.039 A 
ATOM     26  C   UNL     1      -3.954  -3.210  23.522  0.00  0.00    +0.039 A 
ATOM     27  C   UNL     1      -2.586  -3.465  23.435  0.00  0.00    +0.123 A 
ENDBRANCH  18  21
BRANCH  19   8
ATOM      4  O   UNL     1       1.081   0.460  23.190  0.00  0.00    -0.272 OA
ATOM      8  N   UNL     1       0.478   2.685  23.537  0.00  0.00    -0.278 N 
ATOM     24  C   UNL     1       1.374   1.643  23.344  0.00  0.00    +0.255 C 
ATOM     35  H   UNL     1       0.842   3.571  23.879  0.00  0.00    +0.155 HD
BRANCH  24  28
ATOM     28  C   UNL     1       2.807   2.135  23.343  0.00  0.00    +0.324 C 
BRANCH  28   5
ATOM      5  O   UNL     1       3.610   1.331  22.506  0.00  0.00    -0.483 OA
BRANCH   5  29
ATOM     29  C   UNL     1       4.347   0.338  23.107  0.00  0.00    +0.121 A 
ATOM     30  C   UNL     1       3.796  -0.926  23.255  0.00  0.00    +0.045 A 
ATOM     31  C   UNL     1       5.631   0.616  23.557  0.00  0.00    +0.045 A 
ATOM     32  C   UNL     1       4.544  -1.935  23.865  0.00  0.00    +0.004 A 
ATOM     33  C   UNL     1       6.378  -0.392  24.166  0.00  0.00    +0.004 A 
ATOM     34  C   UNL     1       5.834  -1.667  24.320  0.00  0.00    +0.000 A 
ENDBRANCH   5  29
ENDBRANCH  28   5
ENDBRANCH  24  28
ENDBRANCH  19   8
TORSDOF 5
ENDMDL
MODEL 2
REMARK VINA RESULT:       8.3      2.513      4.630
REMARK  Name = 11887496
REMARK  5 active torsions:
REMARK  status: ('A' for Active; 'I' for Inactive)
REMARK    1  A    between atoms: O_5  and  C_28
REMARK    2  A    between atoms: O_5  and  C_29
REMARK    3  A    between atoms: N_8  and  C_19
REMARK    4  A    between atoms: C_18  and  C_21
REMARK    5  A    between atoms: C_24  and  C_28
REMARK                            x       y       z     vdW  Elec       q    Type
REMARK                         _______ _______ _______ _____ _____    ______ ____
ROOT
ATOM      2  O   UNL     1      -0.145  -1.121  22.433  0.00  0.00    -0.266 OA
ATOM      3  O   UNL     1      -4.952   0.735  22.898  0.00  0.00    -0.270 OA
ATOM      6  N   UNL     1      -4.505  -0.561  24.793  0.00  0.00    -0.297 N 
ATOM      7  N   UNL     1      -1.484  -1.406  24.327  0.00  0.00    -0.310 N 
ATOM      9  C   UNL     1      -3.611  -2.834  24.318  0.00  0.00    +0.027 C 
ATOM     10  C   UNL     1      -2.933  -1.658  26.373  0.00  0.00    +0.054 C 
ATOM     11  C   UNL     1      -3.319  -3.023  25.803  0.00  0.00    +0.018 C 
ATOM     12  C   UNL     1      -4.762  -1.834  24.119  0.00  0.00    +0.113 C 
ATOM     13  C   UNL     1      -2.324  -2.381  23.616  0.00  0.00    +0.130 C 
ATOM     14  C   UNL     1      -4.111  -0.677  26.208  0.00  0.00    +0.117 C 
ATOM     15  C   UNL     1      -1.705  -1.105  25.675  0.00  0.00    +0.027 A 
ATOM     16  C   UNL     1      -0.856  -0.300  26.336  0.00  0.00    +0.024 A 
ATOM     17  C   UNL     1      -0.391  -0.873  23.614  0.00  0.00    +0.273 A 
ATOM     18  C   UNL     1      -4.623   0.633  24.078  0.00  0.00    +0.247 C 
ATOM     19  C   UNL     1       0.515   0.041  24.380  0.00  0.00    +0.099 A 
ATOM     20  C   UNL     1       0.275   0.284  25.673  0.00  0.00    +0.030 A 
ENDROOT
BRANCH  18  21
ATOM      1  F   UNL     1      -3.436   5.403  26.744  0.00  0.00    -0.205 F 
ATOM     21  C   UNL     1      -4.312   1.884  24.776  0.00  0.00    +0.037 A 
ATOM     22  C   UNL     1      -5.340   2.643  25.329  0.00  0.00    +0.016 A 
ATOM     23  C   UNL     1      -2.990   2.308  24.883  0.00  0.00    +0.016 A 
ATOM     25  C   UNL     1      -5.044   3.833  25.993  0.00  0.00    +0.039 A 
ATOM     26  C   UNL     1      -2.693   3.498  25.549  0.00  0.00    +0.039 A 
ATOM     27  C   UNL     1      -3.721   4.260  26.104  0.00  0.00    +0.123 A 
ENDBRANCH  18  21
BRANCH  19   8
ATOM      4  O   UNL     1       0.859   2.811  23.722  0.00  0.00    -0.272 OA
ATOM      8  N   UNL     1       1.574   0.592  23.720  0.00  0.00    -0.278 N 
ATOM     24  C   UNL     1       1.681   1.946  23.431  0.00  0.00    +0.255 C 
ATOM     35  H   UNL     1       2.195  -0.050  23.233  0.00  0.00    +0.155 HD
BRANCH  24  28
ATOM     28  C   UNL     1       2.965   2.257  22.692  0.00  0.00    +0.324 C 
BRANCH  28   5
ATOM      5  O   UNL     1       3.492   1.091  22.096  0.00  0.00    -0.483 OA
BRANCH   5  29
ATOM     29  C   UNL     1       4.255   0.269  22.891  0.00  0.00    +0.121 A 
ATOM     30  C   UNL     1       5.409   0.765  23.478  0.00  0.00    +0.045 A 
ATOM     31  C   UNL     1       3.858  -1.046  23.095  0.00  0.00    +0.045 A 
ATOM     32  C   UNL     1       6.183  -0.069  24.286  0.00  0.00    +0.004 A 
ATOM     33  C   UNL     1       4.631  -1.880  23.902  0.00  0.00    +0.004 A 
ATOM     34  C   UNL     1       5.793  -1.391  24.497  0.00  0.00    +0.000 A 
ENDBRANCH   5  29
ENDBRANCH  28   5
ENDBRANCH  24  28
ENDBRANCH  19   8
TORSDOF 5
ENDMDL
MODEL 3
REMARK VINA RESULT:       9.1      2.676      4.316
REMARK  Name = 11887496
REMARK  5 active torsions:
REMARK  status: ('A' for Active; 'I' for Inactive)
REMARK    1  A    between atoms: O_5  and  C_28
REMARK    2  A    between atoms: O_5  and  C_29
REMARK    3  A    between atoms: N_8  and  C_19
REMARK    4  A    between atoms: C_18  and  C_21
REMARK    5  A    between atoms: C_24  and  C_28
REMARK                            x       y       z     vdW  Elec       q    Type
REMARK                         _______ _______ _______ _____ _____    ______ ____
ROOT
ATOM      2  O   UNL     1      -2.129   1.657  21.695  0.00  0.00    -0.266 OA
ATOM      3  O   UNL     1      -2.132   5.250  25.418  0.00  0.00    -0.270 OA
ATOM      6  N   UNL     1      -3.775   3.673  25.952  0.00  0.00    -0.297 N 
ATOM      7  N   UNL     1      -3.428   1.537  23.633  0.00  0.00    -0.310 N 
ATOM      9  C   UNL     1      -5.361   3.151  24.107  0.00  0.00    +0.027 C 
ATOM     10  C   UNL     1      -4.784   1.412  25.753  0.00  0.00    +0.054 C 
ATOM     11  C   UNL     1      -5.931   2.001  24.931  0.00  0.00    +0.018 C 
ATOM     12  C   UNL     1      -4.764   4.228  25.028  0.00  0.00    +0.113 C 
ATOM     13  C   UNL     1      -4.323   2.589  23.128  0.00  0.00    +0.130 C 
ATOM     14  C   UNL     1      -4.224   2.489  26.704  0.00  0.00    +0.117 C 
ATOM     15  C   UNL     1      -3.677   0.899  24.853  0.00  0.00    +0.027 A 
ATOM     16  C   UNL     1      -2.914  -0.138  25.241  0.00  0.00    +0.024 A 
ATOM     17  C   UNL     1      -2.376   1.138  22.784  0.00  0.00    +0.273 A 
ATOM     18  C   UNL     1      -2.512   4.262  26.043  0.00  0.00    +0.247 C 
ATOM     19  C   UNL     1      -1.533  -0.002  23.267  0.00  0.00    +0.099 A 
ATOM     20  C   UNL     1      -1.821  -0.594  24.431  0.00  0.00    +0.030 A 
ENDROOT
BRANCH  18  21
ATOM      1  F   UNL     1       1.228   1.930  29.485  0.00  0.00    -0.205 F 
ATOM     21  C   UNL     1      -1.532   3.649  26.945  0.00  0.00    +0.037 A 
ATOM     22  C   UNL     1      -0.418   3.000  26.421  0.00  0.00    +0.016 A 
ATOM     23  C   UNL     1      -1.720   3.720  28.323  0.00  0.00    +0.016 A 
ATOM     25  C   UNL     1       0.515   2.418  27.279  0.00  0.00    +0.039 A 
ATOM     26  C   UNL     1      -0.787   3.139  29.183  0.00  0.00    +0.039 A 
ATOM     27  C   UNL     1       0.331   2.488  28.660  0.00  0.00    +0.123 A 
ENDBRANCH  18  21
BRANCH  19   8
ATOM      4  O   UNL     1       1.184   0.900  23.443  0.00  0.00    -0.272 OA
ATOM      8  N   UNL     1      -0.493  -0.405  22.483  0.00  0.00    -0.278 N 
ATOM     24  C   UNL     1       0.804   0.071  22.619  0.00  0.00    +0.255 C 
ATOM     35  H   UNL     1      -0.730  -0.906  21.629  0.00  0.00    +0.155 HD
BRANCH  24  28
ATOM     28  C   UNL     1       1.737  -0.560  21.607  0.00  0.00    +0.324 C 
BRANCH  28   5
ATOM      5  O   UNL     1       2.951   0.157  21.532  0.00  0.00    -0.483 OA
BRANCH   5  29
ATOM     29  C   UNL     1       3.870  -0.057  22.532  0.00  0.00    +0.121 A 
ATOM     30  C   UNL     1       3.962  -1.311  23.118  0.00  0.00    +0.045 A 
ATOM     31  C   UNL     1       4.692   0.985  22.939  0.00  0.00    +0.045 A 
ATOM     32  C   UNL     1       4.896  -1.528  24.132  0.00  0.00    +0.004 A 
ATOM     33  C   UNL     1       5.625   0.768  23.953  0.00  0.00    +0.004 A 
ATOM     34  C   UNL     1       5.727  -0.488  24.549  0.00  0.00    +0.000 A 
ENDBRANCH   5  29
ENDBRANCH  28   5
ENDBRANCH  24  28
ENDBRANCH  19   8
TORSDOF 5
ENDMDL
