MODEL 1
REMARK VINA RESULT:      18.5      0.000      0.000
REMARK  Name = 11866400
REMARK  7 active torsions:
REMARK  status: ('A' for Active; 'I' for Inactive)
REMARK    1  A    between atoms: S_1  and  C_23
REMARK    2  A    between atoms: S_1  and  C_29
REMARK    3  A    between atoms: O_5  and  C_30
REMARK    4  A    between atoms: O_5  and  C_31
REMARK    5  A    between atoms: N_7  and  C_10
REMARK    6  A    between atoms: C_18  and  C_23
REMARK    7  A    between atoms: C_21  and  C_24
REMARK                            x       y       z     vdW  Elec       q    Type
REMARK                         _______ _______ _______ _____ _____    ______ ____
ROOT
ATOM      2  O   UNL     1      -3.496  -1.174  25.241  0.00  0.00    -0.273 OA
ATOM      3  O   UNL     1      -0.213   0.533  21.565  0.00  0.00    -0.270 OA
ATOM      6  N   UNL     1      -1.728   0.773  23.307  0.00  0.00    -0.286 N 
ATOM      8  N   UNL     1      -1.305  -1.708  24.862  0.00  0.00    -0.283 N 
ATOM      9  C   UNL     1      -1.994   0.647  24.734  0.00  0.00    +0.164 C 
ATOM     10  C   UNL     1      -4.225   1.860  24.360  0.00  0.00    +0.077 C 
ATOM     11  C   UNL     1      -3.029   1.635  25.283  0.00  0.00    +0.054 C 
ATOM     12  C   UNL     1      -3.727   2.225  22.967  0.00  0.00    +0.041 C 
ATOM     13  C   UNL     1      -2.836   1.124  22.416  0.00  0.00    +0.111 C 
ATOM     14  C   UNL     1      -2.355  -0.813  24.947  0.00  0.00    +0.238 C 
ATOM     15  C   UNL     1      -0.522   0.353  22.743  0.00  0.00    +0.249 C 
ATOM     16  C   UNL     1       0.426  -0.423  23.585  0.00  0.00    +0.059 A 
ATOM     17  C   UNL     1       0.027  -1.444  24.468  0.00  0.00    +0.046 A 
ATOM     19  C   UNL     1       1.792  -0.241  23.308  0.00  0.00    +0.023 A 
ATOM     20  C   UNL     1       1.004  -2.301  25.000  0.00  0.00    +0.024 A 
ATOM     21  C   UNL     1       2.751  -1.070  23.885  0.00  0.00    -0.017 A 
ATOM     22  C   UNL     1       2.356  -2.110  24.720  0.00  0.00    +0.010 A 
ATOM     33  H   UNL     1      -1.490  -2.642  25.221  0.00  0.00    +0.155 HD
ENDROOT
BRANCH  21  24
ATOM     24  C   UNL     1       4.154  -0.868  23.595  0.00  0.00    -0.018 A 
ATOM     25  C   UNL     1       4.583   0.337  23.035  0.00  0.00    +0.012 A 
ATOM     26  C   UNL     1       5.076  -1.876  23.872  0.00  0.00    +0.012 A 
ATOM     27  C   UNL     1       5.935   0.531  22.754  0.00  0.00    +0.046 A 
ATOM     28  C   UNL     1       6.429  -1.681  23.590  0.00  0.00    +0.046 A 
ATOM     30  C   UNL     1       6.858  -0.478  23.031  0.00  0.00    +0.120 A 
BRANCH  30   5
ATOM      5  O   UNL     1       8.177  -0.289  22.755  0.00  0.00    -0.495 OA
ATOM     31  C   UNL     1       9.014   0.122  23.835  0.00  0.00    +0.277 C 
ENDBRANCH  30   5
ENDBRANCH  21  24
BRANCH  10   7
ATOM      4  O   UNL     1      -6.248   1.575  26.411  0.00  0.00    -0.275 OA
ATOM      7  N   UNL     1      -5.089   2.891  24.884  0.00  0.00    -0.312 N 
ATOM     18  C   UNL     1      -6.035   2.660  25.872  0.00  0.00    +0.223 C 
ATOM     32  H   UNL     1      -5.044   3.811  24.456  0.00  0.00    +0.149 HD
BRANCH  18  23
ATOM     23  C   UNL     1      -6.824   3.896  26.235  0.00  0.00    +0.164 C 
BRANCH  23   1
ATOM      1  S   UNL     1      -5.964   5.351  25.591  0.00  0.00    -0.155 S 
ATOM     29  C   UNL     1      -4.311   4.991  26.232  0.00  0.00    +0.085 C 
ENDBRANCH  23   1
ENDBRANCH  18  23
ENDBRANCH  10   7
TORSDOF 5
ENDMDL
MODEL 2
REMARK VINA RESULT:      18.8      2.193      2.938
REMARK  Name = 11866400
REMARK  7 active torsions:
REMARK  status: ('A' for Active; 'I' for Inactive)
REMARK    1  A    between atoms: S_1  and  C_23
REMARK    2  A    between atoms: S_1  and  C_29
REMARK    3  A    between atoms: O_5  and  C_30
REMARK    4  A    between atoms: O_5  and  C_31
REMARK    5  A    between atoms: N_7  and  C_10
REMARK    6  A    between atoms: C_18  and  C_23
REMARK    7  A    between atoms: C_21  and  C_24
REMARK                            x       y       z     vdW  Elec       q    Type
REMARK                         _______ _______ _______ _____ _____    ______ ____
ROOT
ATOM      2  O   UNL     1      -3.919   1.528  22.652  0.00  0.00    -0.273 OA
ATOM      3  O   UNL     1       0.474   3.684  24.456  0.00  0.00    -0.270 OA
ATOM      6  N   UNL     1      -1.610   2.680  24.651  0.00  0.00    -0.286 N 
ATOM      8  N   UNL     1      -1.736   1.004  22.215  0.00  0.00    -0.283 N 
ATOM      9  C   UNL     1      -2.408   1.466  24.533  0.00  0.00    +0.164 C 
ATOM     10  C   UNL     1      -4.359   2.720  25.634  0.00  0.00    +0.077 C 
ATOM     11  C   UNL     1      -3.611   1.396  25.480  0.00  0.00    +0.054 C 
ATOM     12  C   UNL     1      -3.369   3.819  26.002  0.00  0.00    +0.041 C 
ATOM     13  C   UNL     1      -2.293   3.943  24.936  0.00  0.00    +0.111 C 
ATOM     14  C   UNL     1      -2.768   1.364  23.061  0.00  0.00    +0.238 C 
ATOM     15  C   UNL     1      -0.265   2.715  24.279  0.00  0.00    +0.249 C 
ATOM     16  C   UNL     1       0.307   1.545  23.561  0.00  0.00    +0.059 A 
ATOM     17  C   UNL     1      -0.367   0.856  22.536  0.00  0.00    +0.046 A 
ATOM     19  C   UNL     1       1.665   1.273  23.803  0.00  0.00    +0.023 A 
ATOM     20  C   UNL     1       0.355  -0.042  21.734  0.00  0.00    +0.024 A 
ATOM     21  C   UNL     1       2.352   0.341  23.029  0.00  0.00    -0.017 A 
ATOM     22  C   UNL     1       1.701  -0.306  21.985  0.00  0.00    +0.010 A 
ATOM     33  H   UNL     1      -2.012   0.717  21.280  0.00  0.00    +0.155 HD
ENDROOT
BRANCH  21  24
ATOM     24  C   UNL     1       3.748   0.068  23.293  0.00  0.00    -0.018 A 
ATOM     25  C   UNL     1       4.151  -1.219  23.655  0.00  0.00    +0.012 A 
ATOM     26  C   UNL     1       4.691   1.090  23.187  0.00  0.00    +0.012 A 
ATOM     27  C   UNL     1       5.496  -1.481  23.911  0.00  0.00    +0.046 A 
ATOM     28  C   UNL     1       6.037   0.827  23.444  0.00  0.00    +0.046 A 
ATOM     30  C   UNL     1       6.439  -0.458  23.805  0.00  0.00    +0.120 A 
BRANCH  30   5
ATOM      5  O   UNL     1       7.752  -0.714  24.057  0.00  0.00    -0.495 OA
ATOM     31  C   UNL     1       8.696  -0.288  23.076  0.00  0.00    +0.277 C 
ENDBRANCH  30   5
ENDBRANCH  21  24
BRANCH  10   7
ATOM      4  O   UNL     1      -6.571   0.853  25.658  0.00  0.00    -0.275 OA
ATOM      7  N   UNL     1      -5.397   2.608  26.631  0.00  0.00    -0.312 N 
ATOM     18  C   UNL     1      -6.423   1.678  26.559  0.00  0.00    +0.223 C 
ATOM     32  H   UNL     1      -5.409   3.291  27.384  0.00  0.00    +0.149 HD
BRANCH  18  23
ATOM     23  C   UNL     1      -7.392   1.775  27.714  0.00  0.00    +0.164 C 
BRANCH  23   1
ATOM      1  S   UNL     1      -7.584   0.137  28.457  0.00  0.00    -0.155 S 
ATOM     29  C   UNL     1      -6.899   0.501  30.091  0.00  0.00    +0.085 C 
ENDBRANCH  23   1
ENDBRANCH  18  23
ENDBRANCH  10   7
TORSDOF 5
ENDMDL
MODEL 3
REMARK VINA RESULT:      18.9      3.935     10.170
REMARK  Name = 11866400
REMARK  7 active torsions:
REMARK  status: ('A' for Active; 'I' for Inactive)
REMARK    1  A    between atoms: S_1  and  C_23
REMARK    2  A    between atoms: S_1  and  C_29
REMARK    3  A    between atoms: O_5  and  C_30
REMARK    4  A    between atoms: O_5  and  C_31
REMARK    5  A    between atoms: N_7  and  C_10
REMARK    6  A    between atoms: C_18  and  C_23
REMARK    7  A    between atoms: C_21  and  C_24
REMARK                            x       y       z     vdW  Elec       q    Type
REMARK                         _______ _______ _______ _____ _____    ______ ____
ROOT
ATOM      2  O   UNL     1       3.330  -0.147  20.693  0.00  0.00    -0.273 OA
ATOM      3  O   UNL     1       0.636  -1.620  24.909  0.00  0.00    -0.270 OA
ATOM      6  N   UNL     1       2.384  -0.584  23.786  0.00  0.00    -0.286 N 
ATOM      8  N   UNL     1       1.127   0.171  21.216  0.00  0.00    -0.283 N 
ATOM      9  C   UNL     1       2.826   0.528  22.955  0.00  0.00    +0.164 C 
ATOM     10  C   UNL     1       5.245  -0.256  23.307  0.00  0.00    +0.077 C 
ATOM     11  C   UNL     1       4.293   0.929  23.148  0.00  0.00    +0.054 C 
ATOM     12  C   UNL     1       4.725  -1.178  24.404  0.00  0.00    +0.041 C 
ATOM     13  C   UNL     1       3.327  -1.668  24.067  0.00  0.00    +0.111 C 
ATOM     14  C   UNL     1       2.472   0.131  21.532  0.00  0.00    +0.238 C 
ATOM     15  C   UNL     1       1.042  -0.759  24.128  0.00  0.00    +0.249 C 
ATOM     16  C   UNL     1       0.020   0.092  23.463  0.00  0.00    +0.059 A 
ATOM     17  C   UNL     1       0.040   0.403  22.090  0.00  0.00    +0.046 A 
ATOM     19  C   UNL     1      -1.113   0.413  24.230  0.00  0.00    +0.023 A 
ATOM     20  C   UNL     1      -1.105   0.967  21.506  0.00  0.00    +0.024 A 
ATOM     21  C   UNL     1      -2.221   1.020  23.642  0.00  0.00    -0.017 A 
ATOM     22  C   UNL     1      -2.223   1.284  22.277  0.00  0.00    +0.010 A 
ATOM     33  H   UNL     1       0.905   0.129  20.224  0.00  0.00    +0.155 HD
ENDROOT
BRANCH  21  24
ATOM     24  C   UNL     1      -3.379   1.349  24.445  0.00  0.00    -0.018 A 
ATOM     25  C   UNL     1      -3.636   2.678  24.785  0.00  0.00    +0.012 A 
ATOM     26  C   UNL     1      -4.235   0.339  24.881  0.00  0.00    +0.012 A 
ATOM     27  C   UNL     1      -4.751   2.995  25.561  0.00  0.00    +0.046 A 
ATOM     28  C   UNL     1      -5.351   0.656  25.657  0.00  0.00    +0.046 A 
ATOM     30  C   UNL     1      -5.608   1.984  25.997  0.00  0.00    +0.120 A 
BRANCH  30   5
ATOM      5  O   UNL     1      -6.695   2.293  26.755  0.00  0.00    -0.495 OA
ATOM     31  C   UNL     1      -7.154   1.298  27.668  0.00  0.00    +0.277 C 
ENDBRANCH  30   5
ENDBRANCH  21  24
BRANCH  10   7
ATOM      4  O   UNL     1       7.722  -1.211  22.153  0.00  0.00    -0.275 OA
ATOM      7  N   UNL     1       6.581   0.199  23.608  0.00  0.00    -0.312 N 
ATOM     18  C   UNL     1       7.716  -0.321  23.002  0.00  0.00    +0.223 C 
ATOM     32  H   UNL     1       6.694   0.885  24.349  0.00  0.00    +0.149 HD
BRANCH  18  23
ATOM     23  C   UNL     1       8.995   0.310  23.501  0.00  0.00    +0.164 C 
BRANCH  23   1
ATOM      1  S   UNL     1      10.361  -0.214  22.437  0.00  0.00    -0.155 S 
ATOM     29  C   UNL     1      10.734   1.382  21.671  0.00  0.00    +0.085 C 
ENDBRANCH  23   1
ENDBRANCH  18  23
ENDBRANCH  10   7
TORSDOF 5
ENDMDL
MODEL 4
REMARK VINA RESULT:      20.7      3.586      9.895
REMARK  Name = 11866400
REMARK  7 active torsions:
REMARK  status: ('A' for Active; 'I' for Inactive)
REMARK    1  A    between atoms: S_1  and  C_23
REMARK    2  A    between atoms: S_1  and  C_29
REMARK    3  A    between atoms: O_5  and  C_30
REMARK    4  A    between atoms: O_5  and  C_31
REMARK    5  A    between atoms: N_7  and  C_10
REMARK    6  A    between atoms: C_18  and  C_23
REMARK    7  A    between atoms: C_21  and  C_24
REMARK                            x       y       z     vdW  Elec       q    Type
REMARK                         _______ _______ _______ _____ _____    ______ ____
ROOT
ATOM      2  O   UNL     1       2.291  -0.894  20.548  0.00  0.00    -0.273 OA
ATOM      3  O   UNL     1      -0.260  -0.996  25.096  0.00  0.00    -0.270 OA
ATOM      6  N   UNL     1       1.537  -0.529  23.702  0.00  0.00    -0.286 N 
ATOM      8  N   UNL     1       0.218  -0.096  21.090  0.00  0.00    -0.283 N 
ATOM      9  C   UNL     1       2.086   0.299  22.636  0.00  0.00    +0.164 C 
ATOM     10  C   UNL     1       4.366  -0.811  23.038  0.00  0.00    +0.077 C 
ATOM     11  C   UNL     1       3.609   0.466  22.675  0.00  0.00    +0.054 C 
ATOM     12  C   UNL     1       3.793  -1.389  24.327  0.00  0.00    +0.041 C 
ATOM     13  C   UNL     1       2.311  -1.683  24.164  0.00  0.00    +0.111 C 
ATOM     14  C   UNL     1       1.559  -0.307  21.347  0.00  0.00    +0.238 C 
ATOM     15  C   UNL     1       0.216  -0.393  24.133  0.00  0.00    +0.249 C 
ATOM     16  C   UNL     1      -0.704   0.473  23.349  0.00  0.00    +0.059 A 
ATOM     17  C   UNL     1      -0.743   0.493  21.942  0.00  0.00    +0.046 A 
ATOM     19  C   UNL     1      -1.705   1.135  24.081  0.00  0.00    +0.023 A 
ATOM     20  C   UNL     1      -1.825   1.121  21.303  0.00  0.00    +0.024 A 
ATOM     21  C   UNL     1      -2.743   1.797  23.428  0.00  0.00    -0.017 A 
ATOM     22  C   UNL     1      -2.811   1.778  22.039  0.00  0.00    +0.010 A 
ATOM     33  H   UNL     1      -0.087  -0.297  20.140  0.00  0.00    +0.155 HD
ENDROOT
BRANCH  21  24
ATOM     24  C   UNL     1      -3.763   2.478  24.194  0.00  0.00    -0.018 A 
ATOM     25  C   UNL     1      -4.900   1.786  24.613  0.00  0.00    +0.012 A 
ATOM     26  C   UNL     1      -3.611   3.827  24.512  0.00  0.00    +0.012 A 
ATOM     27  C   UNL     1      -5.884   2.444  25.351  0.00  0.00    +0.046 A 
ATOM     28  C   UNL     1      -4.596   4.486  25.250  0.00  0.00    +0.046 A 
ATOM     30  C   UNL     1      -5.732   3.794  25.669  0.00  0.00    +0.120 A 
BRANCH  30   5
ATOM      5  O   UNL     1      -6.693   4.436  26.387  0.00  0.00    -0.495 OA
ATOM     31  C   UNL     1      -6.941   5.803  26.063  0.00  0.00    +0.277 C 
ENDBRANCH  30   5
ENDBRANCH  21  24
BRANCH  10   7
ATOM      4  O   UNL     1       5.623   1.124  24.785  0.00  0.00    -0.275 OA
ATOM      7  N   UNL     1       5.778  -0.547  23.176  0.00  0.00    -0.312 N 
ATOM     18  C   UNL     1       6.292   0.405  24.044  0.00  0.00    +0.223 C 
ATOM     32  H   UNL     1       6.416  -1.038  22.556  0.00  0.00    +0.149 HD
BRANCH  18  23
ATOM     23  C   UNL     1       7.798   0.503  23.990  0.00  0.00    +0.164 C 
BRANCH  23   1
ATOM      1  S   UNL     1       8.416  -0.644  22.735  0.00  0.00    -0.155 S 
ATOM     29  C   UNL     1      10.157  -0.154  22.756  0.00  0.00    +0.085 C 
ENDBRANCH  23   1
ENDBRANCH  18  23
ENDBRANCH  10   7
TORSDOF 5
ENDMDL
