MODEL 1
REMARK VINA RESULT:      19.1      0.000      0.000
REMARK  Name = 11882875
REMARK  3 active torsions:
REMARK  status: ('A' for Active; 'I' for Inactive)
REMARK    1  A    between atoms: N_7  and  C_10
REMARK    2  A    between atoms: C_18  and  C_23
REMARK    3  A    between atoms: C_21  and  C_24
REMARK                            x       y       z     vdW  Elec       q    Type
REMARK                         _______ _______ _______ _____ _____    ______ ____
ROOT
ATOM      2  O   UNL     1       1.399  -0.774  20.652  0.00  0.00    -0.273 OA
ATOM      3  O   UNL     1      -0.533  -0.773  25.496  0.00  0.00    -0.270 OA
ATOM      6  N   UNL     1       1.095  -0.413  23.881  0.00  0.00    -0.286 N 
ATOM      8  N   UNL     1      -0.520   0.162  21.469  0.00  0.00    -0.283 N 
ATOM      9  C   UNL     1       1.559   0.392  22.757  0.00  0.00    +0.164 C 
ATOM     10  C   UNL     1       3.783  -0.888  22.845  0.00  0.00    +0.077 C 
ATOM     11  C   UNL     1       3.082   0.448  22.595  0.00  0.00    +0.054 C 
ATOM     12  C   UNL     1       3.344  -1.446  24.193  0.00  0.00    +0.041 C 
ATOM     13  C   UNL     1       1.836  -1.629  24.225  0.00  0.00    +0.111 C 
ATOM     14  C   UNL     1       0.825  -0.151  21.545  0.00  0.00    +0.238 C 
ATOM     15  C   UNL     1      -0.143  -0.189  24.483  0.00  0.00    +0.249 C 
ATOM     16  C   UNL     1      -1.091   0.755  23.835  0.00  0.00    +0.059 A 
ATOM     17  C   UNL     1      -1.314   0.804  22.446  0.00  0.00    +0.046 A 
ATOM     19  C   UNL     1      -1.935   1.475  24.698  0.00  0.00    +0.026 A 
ATOM     20  C   UNL     1      -2.420   1.521  21.961  0.00  0.00    +0.025 A 
ATOM     21  C   UNL     1      -2.998   2.222  24.194  0.00  0.00    +0.018 A 
ATOM     22  C   UNL     1      -3.250   2.234  22.827  0.00  0.00    +0.013 A 
ATOM     32  H   UNL     1      -0.962   0.001  20.567  0.00  0.00    +0.155 HD
ENDROOT
BRANCH  21  24
ATOM      5  O   UNL     1      -5.184   2.764  24.910  0.00  0.00    -0.463 OA
ATOM     24  C   UNL     1      -3.854   2.959  25.092  0.00  0.00    +0.135 A 
ATOM     26  C   UNL     1      -3.621   3.839  26.117  0.00  0.00    +0.050 A 
ATOM     29  C   UNL     1      -4.896   4.215  26.603  0.00  0.00    +0.042 A 
ATOM     30  C   UNL     1      -5.812   3.534  25.836  0.00  0.00    +0.196 A 
ENDBRANCH  21  24
BRANCH  10   7
ATOM      4  O   UNL     1       5.311   0.819  24.491  0.00  0.00    -0.270 OA
ATOM      7  N   UNL     1       5.218  -0.729  22.796  0.00  0.00    -0.308 N 
ATOM     18  C   UNL     1       5.900   0.139  23.648  0.00  0.00    +0.251 C 
ATOM     31  H   UNL     1       5.725  -1.322  22.149  0.00  0.00    +0.149 HD
BRANCH  18  23
ATOM      1  S   UNL     1       8.085  -1.057  22.581  0.00  0.00    -0.092 S 
ATOM     23  C   UNL     1       7.361   0.166  23.499  0.00  0.00    +0.074 A 
ATOM     25  C   UNL     1       8.224   1.068  24.018  0.00  0.00    +0.021 A 
ATOM     27  C   UNL     1       9.562   0.752  23.649  0.00  0.00    +0.008 A 
ATOM     28  C   UNL     1       9.631  -0.379  22.867  0.00  0.00    +0.046 A 
ENDBRANCH  18  23
ENDBRANCH  10   7
TORSDOF 3
ENDMDL
MODEL 2
REMARK VINA RESULT:      19.8      2.947      9.746
REMARK  Name = 11882875
REMARK  3 active torsions:
REMARK  status: ('A' for Active; 'I' for Inactive)
REMARK    1  A    between atoms: N_7  and  C_10
REMARK    2  A    between atoms: C_18  and  C_23
REMARK    3  A    between atoms: C_21  and  C_24
REMARK                            x       y       z     vdW  Elec       q    Type
REMARK                         _______ _______ _______ _____ _____    ______ ____
ROOT
ATOM      2  O   UNL     1      -0.134  -1.987  24.561  0.00  0.00    -0.273 OA
ATOM      3  O   UNL     1       2.912   0.488  21.126  0.00  0.00    -0.270 OA
ATOM      6  N   UNL     1       1.296   0.350  22.787  0.00  0.00    -0.286 N 
ATOM      8  N   UNL     1       2.134  -2.058  24.290  0.00  0.00    -0.283 N 
ATOM      9  C   UNL     1       0.992   0.115  24.194  0.00  0.00    +0.164 C 
ATOM     10  C   UNL     1      -1.418   0.872  23.730  0.00  0.00    +0.077 C 
ATOM     11  C   UNL     1      -0.247   0.854  24.713  0.00  0.00    +0.054 C 
ATOM     12  C   UNL     1      -0.936   1.385  22.378  0.00  0.00    +0.041 C 
ATOM     13  C   UNL     1       0.184   0.507  21.846  0.00  0.00    +0.111 C 
ATOM     14  C   UNL     1       0.922  -1.394  24.342  0.00  0.00    +0.238 C 
ATOM     15  C   UNL     1       2.587   0.203  22.280  0.00  0.00    +0.249 C 
ATOM     16  C   UNL     1       3.630  -0.402  23.151  0.00  0.00    +0.059 A 
ATOM     17  C   UNL     1       3.404  -1.516  23.980  0.00  0.00    +0.046 A 
ATOM     19  C   UNL     1       4.943   0.061  22.956  0.00  0.00    +0.026 A 
ATOM     20  C   UNL     1       4.505  -2.181  24.539  0.00  0.00    +0.025 A 
ATOM     21  C   UNL     1       6.021  -0.582  23.561  0.00  0.00    +0.018 A 
ATOM     22  C   UNL     1       5.804  -1.712  24.342  0.00  0.00    +0.013 A 
ATOM     32  H   UNL     1       2.125  -3.023  24.609  0.00  0.00    +0.155 HD
ENDROOT
BRANCH  21  24
ATOM      5  O   UNL     1       8.145  -0.873  22.569  0.00  0.00    -0.463 OA
ATOM     24  C   UNL     1       7.363  -0.094  23.356  0.00  0.00    +0.135 A 
ATOM     26  C   UNL     1       8.048   1.012  23.790  0.00  0.00    +0.050 A 
ATOM     29  C   UNL     1       9.345   0.910  23.232  0.00  0.00    +0.042 A 
ATOM     30  C   UNL     1       9.353  -0.254  22.498  0.00  0.00    +0.196 A 
ENDBRANCH  21  24
BRANCH  10   7
ATOM      4  O   UNL     1      -4.048  -0.008  24.243  0.00  0.00    -0.270 OA
ATOM      7  N   UNL     1      -2.497   1.687  24.235  0.00  0.00    -0.308 N 
ATOM     18  C   UNL     1      -3.774   1.174  24.462  0.00  0.00    +0.251 C 
ATOM     31  H   UNL     1      -2.277   2.647  24.475  0.00  0.00    +0.149 HD
BRANCH  18  23
ATOM      1  S   UNL     1      -4.354   3.763  25.015  0.00  0.00    -0.092 S 
ATOM     23  C   UNL     1      -4.757   2.120  25.008  0.00  0.00    +0.074 A 
ATOM     25  C   UNL     1      -5.974   1.834  25.521  0.00  0.00    +0.021 A 
ATOM     27  C   UNL     1      -6.630   3.024  25.948  0.00  0.00    +0.008 A 
ATOM     28  C   UNL     1      -5.861   4.146  25.732  0.00  0.00    +0.046 A 
ENDBRANCH  18  23
ENDBRANCH  10   7
TORSDOF 3
ENDMDL
MODEL 3
REMARK VINA RESULT:      21.4      2.467      3.550
REMARK  Name = 11882875
REMARK  3 active torsions:
REMARK  status: ('A' for Active; 'I' for Inactive)
REMARK    1  A    between atoms: N_7  and  C_10
REMARK    2  A    between atoms: C_18  and  C_23
REMARK    3  A    between atoms: C_21  and  C_24
REMARK                            x       y       z     vdW  Elec       q    Type
REMARK                         _______ _______ _______ _____ _____    ______ ____
ROOT
ATOM      2  O   UNL     1       0.168   4.029  23.239  0.00  0.00    -0.273 OA
ATOM      3  O   UNL     1      -3.257   0.097  23.329  0.00  0.00    -0.270 OA
ATOM      6  N   UNL     1      -1.201   1.104  23.713  0.00  0.00    -0.286 N 
ATOM      8  N   UNL     1      -1.946   3.941  24.102  0.00  0.00    -0.283 N 
ATOM      9  C   UNL     1      -0.422   2.056  24.496  0.00  0.00    +0.164 C 
ATOM     10  C   UNL     1       1.694   1.171  23.342  0.00  0.00    +0.077 C 
ATOM     11  C   UNL     1       1.066   1.710  24.627  0.00  0.00    +0.054 C 
ATOM     12  C   UNL     1       0.855   0.013  22.815  0.00  0.00    +0.041 C 
ATOM     13  C   UNL     1      -0.571   0.469  22.552  0.00  0.00    +0.111 C 
ATOM     14  C   UNL     1      -0.692   3.410  23.866  0.00  0.00    +0.238 C 
ATOM     15  C   UNL     1      -2.576   0.956  23.892  0.00  0.00    +0.249 C 
ATOM     16  C   UNL     1      -3.291   1.931  24.758  0.00  0.00    +0.059 A 
ATOM     17  C   UNL     1      -3.044   3.317  24.740  0.00  0.00    +0.046 A 
ATOM     19  C   UNL     1      -4.400   1.434  25.465  0.00  0.00    +0.026 A 
ATOM     20  C   UNL     1      -3.953   4.177  25.375  0.00  0.00    +0.025 A 
ATOM     21  C   UNL     1      -5.264   2.301  26.133  0.00  0.00    +0.018 A 
ATOM     22  C   UNL     1      -5.049   3.673  26.076  0.00  0.00    +0.013 A 
ATOM     32  H   UNL     1      -2.059   4.928  23.882  0.00  0.00    +0.155 HD
ENDROOT
BRANCH  21  24
ATOM      5  O   UNL     1      -6.150   0.653  27.575  0.00  0.00    -0.463 OA
ATOM     24  C   UNL     1      -6.396   1.777  26.858  0.00  0.00    +0.135 A 
ATOM     26  C   UNL     1      -7.703   2.169  26.989  0.00  0.00    +0.050 A 
ATOM     29  C   UNL     1      -8.308   1.221  27.847  0.00  0.00    +0.042 A 
ATOM     30  C   UNL     1      -7.322   0.320  28.177  0.00  0.00    +0.196 A 
ENDBRANCH  21  24
BRANCH  10   7
ATOM      4  O   UNL     1       3.552   0.416  21.358  0.00  0.00    -0.270 OA
ATOM      7  N   UNL     1       3.057   0.754  23.576  0.00  0.00    -0.308 N 
ATOM     18  C   UNL     1       3.914   0.395  22.536  0.00  0.00    +0.251 C 
ATOM     31  H   UNL     1       3.391   0.785  24.533  0.00  0.00    +0.149 HD
BRANCH  18  23
ATOM      1  S   UNL     1       5.688   0.138  24.569  0.00  0.00    -0.092 S 
ATOM     23  C   UNL     1       5.280   0.024  22.931  0.00  0.00    +0.074 A 
ATOM     25  C   UNL     1       6.279  -0.406  22.128  0.00  0.00    +0.021 A 
ATOM     27  C   UNL     1       7.456  -0.664  22.887  0.00  0.00    +0.008 A 
ATOM     28  C   UNL     1       7.274  -0.410  24.228  0.00  0.00    +0.046 A 
ENDBRANCH  18  23
ENDBRANCH  10   7
TORSDOF 3
ENDMDL
