MODEL 1
REMARK VINA RESULT:       1.3      0.000      0.000
REMARK  Name = 40779087
REMARK  4 active torsions:
REMARK  status: ('A' for Active; 'I' for Inactive)
REMARK    1  A    between atoms: O_3  and  C_29
REMARK    2  A    between atoms: O_3  and  C_30
REMARK    3  A    between atoms: C_13  and  C_14
REMARK    4  A    between atoms: C_17  and  C_24
REMARK                            x       y       z     vdW  Elec       q    Type
REMARK                         _______ _______ _______ _____ _____    ______ ____
ROOT
ATOM      1  O   UNL     1      -5.614   0.181  25.709  0.00  0.00    -0.275 OA
ATOM      2  O   UNL     1      -3.121   4.576  27.194  0.00  0.00    -0.268 OA
ATOM      4  N   UNL     1      -4.222   0.908  23.996  0.00  0.00    -0.300 N 
ATOM      5  N   UNL     1      -2.705   3.439  25.189  0.00  0.00    -0.311 N 
ATOM      6  C   UNL     1      -4.472   3.297  23.336  0.00  0.00    +0.027 C 
ATOM      7  C   UNL     1      -2.301   2.179  23.050  0.00  0.00    +0.054 C 
ATOM      8  C   UNL     1      -3.277   3.162  22.406  0.00  0.00    +0.018 C 
ATOM      9  C   UNL     1      -5.159   1.936  23.544  0.00  0.00    +0.113 C 
ATOM     10  C   UNL     1      -2.987   0.804  23.207  0.00  0.00    +0.117 C 
ATOM     11  C   UNL     1      -3.994   3.902  24.656  0.00  0.00    +0.130 C 
ATOM     12  C   UNL     1      -1.807   2.682  24.409  0.00  0.00    +0.034 A 
ATOM     14  C   UNL     1      -4.570   0.076  25.060  0.00  0.00    +0.219 C 
ATOM     17  C   UNL     1      -0.566   2.404  24.886  0.00  0.00    +0.002 A 
ATOM     20  C   UNL     1      -2.382   3.901  26.476  0.00  0.00    +0.252 A 
ATOM     22  C   UNL     1      -0.198   2.862  26.212  0.00  0.00    +0.015 A 
ATOM     23  C   UNL     1      -1.035   3.553  26.985  0.00  0.00    +0.071 A 
ENDROOT
BRANCH  14  13
ATOM     13  C   UNL     1      -3.591  -0.999  25.420  0.00  0.00    +0.075 C 
ATOM     15  C   UNL     1      -3.427  -1.968  24.249  0.00  0.00    +0.013 C 
ATOM     16  C   UNL     1      -2.257  -0.358  25.808  0.00  0.00    +0.013 C 
ATOM     18  C   UNL     1      -2.360  -3.021  24.537  0.00  0.00    +0.001 C 
ATOM     19  C   UNL     1      -1.190  -1.410  26.093  0.00  0.00    +0.001 C 
ATOM     21  C   UNL     1      -1.029  -2.380  24.925  0.00  0.00    +0.000 C 
ENDBRANCH  14  13
BRANCH  17  24
ATOM     24  C   UNL     1       0.417   1.630  24.097  0.00  0.00    -0.016 A 
ATOM     25  C   UNL     1       1.705   2.130  23.903  0.00  0.00    +0.012 A 
ATOM     26  C   UNL     1       0.056   0.401  23.545  0.00  0.00    +0.012 A 
ATOM     27  C   UNL     1       2.632   1.400  23.158  0.00  0.00    +0.046 A 
ATOM     28  C   UNL     1       0.982  -0.329  22.800  0.00  0.00    +0.046 A 
ATOM     29  C   UNL     1       2.270   0.171  22.606  0.00  0.00    +0.120 A 
BRANCH  29   3
ATOM      3  O   UNL     1       3.174  -0.541  21.880  0.00  0.00    -0.495 OA
ATOM     30  C   UNL     1       4.549  -0.188  22.028  0.00  0.00    +0.277 C 
ENDBRANCH  29   3
ENDBRANCH  17  24
TORSDOF 3
ENDMDL
