MODEL 1
REMARK VINA RESULT:       6.1      0.000      0.000
REMARK  Name = 11880087
REMARK  11 active torsions:
REMARK  status: ('A' for Active; 'I' for Inactive)
REMARK    1  A    between atoms: O_3  and  C_25
REMARK    2  A    between atoms: O_3  and  C_36
REMARK    3  A    between atoms: N_8  and  C_16
REMARK    4  A    between atoms: N_9  and  C_24
REMARK    5  A    between atoms: C_18  and  C_21
REMARK    6  A    between atoms: C_22  and  C_25
REMARK    7  A    between atoms: C_23  and  C_28
REMARK    8  A    between atoms: C_24  and  C_26
REMARK    9  A    between atoms: C_24  and  C_30
REMARK   10  A    between atoms: C_26  and  C_29
REMARK   11  A    between atoms: C_27  and  C_32
REMARK                            x       y       z     vdW  Elec       q    Type
REMARK                         _______ _______ _______ _____ _____    ______ ____
ROOT
ATOM      2  O   UNL     1      -3.160   4.926  26.976  0.00  0.00    -0.273 OA
ATOM      7  N   UNL     1      -2.289   3.562  25.301  0.00  0.00    -0.288 N 
ATOM     16  C   UNL     1      -0.066   1.940  24.327  0.00  0.00    +0.113 C 
ATOM     17  C   UNL     1      -0.968   2.709  23.347  0.00  0.00    +0.059 C 
ATOM     18  C   UNL     1      -2.346   3.037  23.927  0.00  0.00    +0.164 C 
ATOM     19  C   UNL     1      -0.009   2.660  25.680  0.00  0.00    +0.046 C 
ATOM     20  C   UNL     1      -1.413   2.854  26.242  0.00  0.00    +0.111 C 
ATOM     22  C   UNL     1      -3.117   4.580  25.792  0.00  0.00    +0.242 C 
ENDROOT
BRANCH  16   8
ATOM      8  N   UNL     1       1.268   1.679  23.771  0.00  0.00    -0.236 N 
ATOM     10  N   UNL     1       2.301   2.477  24.087  0.00  0.00    -0.064 NA
ATOM     11  N   UNL     1       3.370   2.009  23.451  0.00  0.00    -0.124 NA
ATOM     23  C   UNL     1       1.646   0.681  22.925  0.00  0.00    +0.156 A 
ATOM     27  C   UNL     1       2.986   0.910  22.735  0.00  0.00    +0.179 A 
BRANCH  23  28
ATOM      4  O   UNL     1      -0.034  -0.975  23.082  0.00  0.00    -0.269 OA
ATOM     13  N   UNL     1       0.887  -0.620  21.028  0.00  0.00    -0.324 N 
ATOM     28  C   UNL     1       0.797  -0.337  22.396  0.00  0.00    +0.262 C 
ATOM     42  H   UNL     1       1.533  -0.123  20.424  0.00  0.00    +0.145 HD
ATOM     43  H   UNL     1       0.302  -1.328  20.599  0.00  0.00    +0.145 HD
ENDBRANCH  23  28
BRANCH  27  32
ATOM      6  O   UNL     1       3.673  -0.136  20.730  0.00  0.00    -0.269 OA
ATOM     15  N   UNL     1       5.094  -0.260  22.508  0.00  0.00    -0.324 N 
ATOM     32  C   UNL     1       3.891   0.154  21.928  0.00  0.00    +0.264 C 
ATOM     46  H   UNL     1       5.775  -0.792  21.976  0.00  0.00    +0.145 HD
ATOM     47  H   UNL     1       5.328  -0.045  23.472  0.00  0.00    +0.145 HD
ENDBRANCH  27  32
ENDBRANCH  16   8
BRANCH  18  21
ATOM      1  O   UNL     1      -3.324   1.061  23.006  0.00  0.00    -0.274 OA
ATOM      9  N   UNL     1      -3.967   1.749  25.135  0.00  0.00    -0.302 N 
ATOM     21  C   UNL     1      -3.249   1.838  23.954  0.00  0.00    +0.234 C 
ATOM     40  H   UNL     1      -3.778   2.414  25.878  0.00  0.00    +0.150 HD
BRANCH   9  24
ATOM     24  C   UNL     1      -4.922   0.699  25.402  0.00  0.00    +0.163 C 
BRANCH  24  30
ATOM      5  O   UNL     1      -6.624   1.613  26.876  0.00  0.00    -0.274 OA
ATOM     14  N   UNL     1      -6.960   1.728  24.606  0.00  0.00    -0.328 N 
ATOM     30  C   UNL     1      -6.247   1.371  25.731  0.00  0.00    +0.231 C 
ATOM     44  H   UNL     1      -7.856   2.198  24.685  0.00  0.00    +0.145 HD
ATOM     45  H   UNL     1      -6.626   1.543  23.666  0.00  0.00    +0.145 HD
ENDBRANCH  24  30
BRANCH  24  26
ATOM     26  C   UNL     1      -5.086  -0.255  24.211  0.00  0.00    +0.069 C 
BRANCH  26  29
ATOM     12  N   UNL     1      -3.212  -3.400  23.889  0.00  0.00    -0.360 N 
ATOM     29  C   UNL     1      -4.125  -1.409  24.244  0.00  0.00    -0.020 A 
ATOM     31  C   UNL     1      -2.875  -1.451  24.921  0.00  0.00    +0.003 A 
ATOM     33  C   UNL     1      -4.305  -2.621  23.619  0.00  0.00    +0.087 A 
ATOM     34  C   UNL     1      -2.322  -2.712  24.683  0.00  0.00    +0.047 A 
ATOM     35  C   UNL     1      -2.157  -0.536  25.717  0.00  0.00    +0.010 A 
ATOM     37  C   UNL     1      -1.083  -3.104  25.202  0.00  0.00    +0.026 A 
ATOM     38  C   UNL     1      -0.917  -0.915  26.242  0.00  0.00    +0.001 A 
ATOM     39  C   UNL     1      -0.389  -2.179  25.988  0.00  0.00    +0.002 A 
ATOM     41  H   UNL     1      -3.077  -4.344  23.556  0.00  0.00    +0.165 HD
ENDBRANCH  26  29
ENDBRANCH  24  26
ENDBRANCH   9  24
ENDBRANCH  18  21
BRANCH  22  25
ATOM     25  C   UNL     1      -3.993   5.288  24.789  0.00  0.00    +0.255 C 
BRANCH  25   3
ATOM      3  O   UNL     1      -5.190   4.553  24.712  0.00  0.00    -0.374 OA
ATOM     36  C   UNL     1      -6.203   5.088  25.561  0.00  0.00    +0.194 C 
ENDBRANCH  25   3
ENDBRANCH  22  25
TORSDOF 10
ENDMDL
MODEL 2
REMARK VINA RESULT:       7.1      2.099      7.601
REMARK  Name = 11880087
REMARK  11 active torsions:
REMARK  status: ('A' for Active; 'I' for Inactive)
REMARK    1  A    between atoms: O_3  and  C_25
REMARK    2  A    between atoms: O_3  and  C_36
REMARK    3  A    between atoms: N_8  and  C_16
REMARK    4  A    between atoms: N_9  and  C_24
REMARK    5  A    between atoms: C_18  and  C_21
REMARK    6  A    between atoms: C_22  and  C_25
REMARK    7  A    between atoms: C_23  and  C_28
REMARK    8  A    between atoms: C_24  and  C_26
REMARK    9  A    between atoms: C_24  and  C_30
REMARK   10  A    between atoms: C_26  and  C_29
REMARK   11  A    between atoms: C_27  and  C_32
REMARK                            x       y       z     vdW  Elec       q    Type
REMARK                         _______ _______ _______ _____ _____    ______ ____
ROOT
ATOM      2  O   UNL     1      -3.689  -3.820  25.732  0.00  0.00    -0.273 OA
ATOM      7  N   UNL     1      -3.026  -1.790  24.802  0.00  0.00    -0.288 N 
ATOM     16  C   UNL     1      -3.273   1.119  24.760  0.00  0.00    +0.113 C 
ATOM     17  C   UNL     1      -2.972   0.336  23.471  0.00  0.00    +0.059 C 
ATOM     18  C   UNL     1      -2.350  -1.039  23.732  0.00  0.00    +0.164 C 
ATOM     19  C   UNL     1      -4.077   0.254  25.738  0.00  0.00    +0.046 C 
ATOM     20  C   UNL     1      -3.342  -1.049  26.030  0.00  0.00    +0.111 C 
ATOM     22  C   UNL     1      -3.244  -3.173  24.780  0.00  0.00    +0.242 C 
ENDROOT
BRANCH  16   8
ATOM      8  N   UNL     1      -3.914   2.412  24.491  0.00  0.00    -0.236 N 
ATOM     10  N   UNL     1      -3.569   3.125  23.407  0.00  0.00    -0.064 NA
ATOM     11  N   UNL     1      -4.299   4.235  23.414  0.00  0.00    -0.124 NA
ATOM     23  C   UNL     1      -4.872   3.044  25.222  0.00  0.00    +0.156 A 
ATOM     27  C   UNL     1      -5.103   4.201  24.520  0.00  0.00    +0.179 A 
BRANCH  23  28
ATOM      4  O   UNL     1      -5.051   2.870  27.573  0.00  0.00    -0.269 OA
ATOM     13  N   UNL     1      -6.573   1.718  26.326  0.00  0.00    -0.324 N 
ATOM     28  C   UNL     1      -5.461   2.563  26.430  0.00  0.00    +0.262 C 
ATOM     42  H   UNL     1      -6.954   1.450  25.426  0.00  0.00    +0.145 HD
ATOM     43  H   UNL     1      -7.034   1.354  27.153  0.00  0.00    +0.145 HD
ENDBRANCH  23  28
BRANCH  27  32
ATOM      6  O   UNL     1      -6.267   6.212  24.085  0.00  0.00    -0.269 OA
ATOM     15  N   UNL     1      -6.705   5.163  26.060  0.00  0.00    -0.324 N 
ATOM     32  C   UNL     1      -6.025   5.245  24.842  0.00  0.00    +0.264 C 
ATOM     46  H   UNL     1      -7.376   5.874  26.333  0.00  0.00    +0.145 HD
ATOM     47  H   UNL     1      -6.556   4.397  26.709  0.00  0.00    +0.145 HD
ENDBRANCH  27  32
ENDBRANCH  16   8
BRANCH  18  21
ATOM      1  O   UNL     1      -0.419  -1.631  25.007  0.00  0.00    -0.274 OA
ATOM      9  N   UNL     1      -0.225   0.009  23.366  0.00  0.00    -0.302 N 
ATOM     21  C   UNL     1      -0.901  -0.941  24.114  0.00  0.00    +0.234 C 
ATOM     40  H   UNL     1      -0.712   0.478  22.608  0.00  0.00    +0.150 HD
BRANCH   9  24
ATOM     24  C   UNL     1       1.175   0.312  23.554  0.00  0.00    +0.163 C 
BRANCH  24  30
ATOM      5  O   UNL     1       1.349  -0.587  21.303  0.00  0.00    -0.274 OA
ATOM     14  N   UNL     1       3.164   0.504  22.194  0.00  0.00    -0.328 N 
ATOM     30  C   UNL     1       1.880   0.004  22.241  0.00  0.00    +0.231 C 
ATOM     44  H   UNL     1       3.740   0.379  21.367  0.00  0.00    +0.145 HD
ATOM     45  H   UNL     1       3.581   1.010  22.967  0.00  0.00    +0.145 HD
ENDBRANCH  24  30
BRANCH  24  26
ATOM     26  C   UNL     1       1.404   1.775  23.955  0.00  0.00    +0.069 C 
BRANCH  26  29
ATOM     12  N   UNL     1      -0.989   2.422  26.669  0.00  0.00    -0.360 N 
ATOM     29  C   UNL     1       0.379   2.287  24.927  0.00  0.00    -0.020 A 
ATOM     31  C   UNL     1      -0.312   3.528  24.854  0.00  0.00    +0.003 A 
ATOM     33  C   UNL     1      -0.058   1.629  26.054  0.00  0.00    +0.087 A 
ATOM     34  C   UNL     1      -1.165   3.588  25.959  0.00  0.00    +0.047 A 
ATOM     35  C   UNL     1      -0.295   4.610  23.951  0.00  0.00    +0.010 A 
ATOM     37  C   UNL     1      -2.003   4.680  26.208  0.00  0.00    +0.026 A 
ATOM     38  C   UNL     1      -1.129   5.709  24.188  0.00  0.00    +0.001 A 
ATOM     39  C   UNL     1      -1.969   5.742  25.299  0.00  0.00    +0.002 A 
ATOM     41  H   UNL     1      -1.477   2.186  27.522  0.00  0.00    +0.165 HD
ENDBRANCH  26  29
ENDBRANCH  24  26
ENDBRANCH   9  24
ENDBRANCH  18  21
BRANCH  22  25
ATOM     25  C   UNL     1      -2.916  -3.893  23.495  0.00  0.00    +0.255 C 
BRANCH  25   3
ATOM      3  O   UNL     1      -4.041  -3.757  22.661  0.00  0.00    -0.374 OA
ATOM     36  C   UNL     1      -5.037  -2.914  23.238  0.00  0.00    +0.194 C 
ENDBRANCH  25   3
ENDBRANCH  22  25
TORSDOF 10
ENDMDL
MODEL 3
REMARK VINA RESULT:       8.4      2.343      5.433
REMARK  Name = 11880087
REMARK  11 active torsions:
REMARK  status: ('A' for Active; 'I' for Inactive)
REMARK    1  A    between atoms: O_3  and  C_25
REMARK    2  A    between atoms: O_3  and  C_36
REMARK    3  A    between atoms: N_8  and  C_16
REMARK    4  A    between atoms: N_9  and  C_24
REMARK    5  A    between atoms: C_18  and  C_21
REMARK    6  A    between atoms: C_22  and  C_25
REMARK    7  A    between atoms: C_23  and  C_28
REMARK    8  A    between atoms: C_24  and  C_26
REMARK    9  A    between atoms: C_24  and  C_30
REMARK   10  A    between atoms: C_26  and  C_29
REMARK   11  A    between atoms: C_27  and  C_32
REMARK                            x       y       z     vdW  Elec       q    Type
REMARK                         _______ _______ _______ _____ _____    ______ ____
ROOT
ATOM      2  O   UNL     1      -3.615  -2.063  23.073  0.00  0.00    -0.273 OA
ATOM      7  N   UNL     1      -1.686  -1.362  24.173  0.00  0.00    -0.288 N 
ATOM     16  C   UNL     1       1.133  -0.620  24.008  0.00  0.00    +0.113 C 
ATOM     17  C   UNL     1       0.575  -1.318  25.260  0.00  0.00    +0.059 C 
ATOM     18  C   UNL     1      -0.938  -1.145  25.422  0.00  0.00    +0.164 C 
ATOM     19  C   UNL     1       0.330  -1.023  22.766  0.00  0.00    +0.046 C 
ATOM     20  C   UNL     1      -1.151  -0.722  22.964  0.00  0.00    +0.111 C 
ATOM     22  C   UNL     1      -2.930  -2.000  24.098  0.00  0.00    +0.242 C 
ENDROOT
BRANCH  16   8
ATOM      8  N   UNL     1       2.576  -0.838  23.843  0.00  0.00    -0.236 N 
ATOM     10  N   UNL     1       3.115  -2.034  24.130  0.00  0.00    -0.064 NA
ATOM     11  N   UNL     1       4.420  -1.947  23.890  0.00  0.00    -0.124 NA
ATOM     23  C   UNL     1       3.517   0.046  23.414  0.00  0.00    +0.156 A 
ATOM     27  C   UNL     1       4.682  -0.679  23.451  0.00  0.00    +0.179 A 
BRANCH  23  28
ATOM      4  O   UNL     1       4.068   2.065  22.313  0.00  0.00    -0.269 OA
ATOM     13  N   UNL     1       2.096   2.008  23.455  0.00  0.00    -0.324 N 
ATOM     28  C   UNL     1       3.283   1.400  23.027  0.00  0.00    +0.262 C 
ATOM     42  H   UNL     1       1.419   1.511  24.023  0.00  0.00    +0.145 HD
ATOM     43  H   UNL     1       1.876   2.965  23.202  0.00  0.00    +0.145 HD
ENDBRANCH  23  28
BRANCH  27  32
ATOM      6  O   UNL     1       6.663  -0.727  22.162  0.00  0.00    -0.269 OA
ATOM     15  N   UNL     1       6.545   0.820  23.832  0.00  0.00    -0.324 N 
ATOM     32  C   UNL     1       5.994  -0.235  23.099  0.00  0.00    +0.264 C 
ATOM     46  H   UNL     1       7.471   1.177  23.617  0.00  0.00    +0.145 HD
ATOM     47  H   UNL     1       6.046   1.264  24.596  0.00  0.00    +0.145 HD
ENDBRANCH  27  32
ENDBRANCH  16   8
BRANCH  18  21
ATOM      1  O   UNL     1      -2.465   0.615  25.949  0.00  0.00    -0.274 OA
ATOM      9  N   UNL     1      -0.188   0.958  26.295  0.00  0.00    -0.302 N 
ATOM     21  C   UNL     1      -1.301   0.224  25.917  0.00  0.00    +0.234 C 
ATOM     40  H   UNL     1       0.723   0.510  26.286  0.00  0.00    +0.150 HD
BRANCH   9  24
ATOM     24  C   UNL     1      -0.265   2.314  26.786  0.00  0.00    +0.163 C 
BRANCH  24  30
ATOM      5  O   UNL     1       2.005   3.022  27.286  0.00  0.00    -0.274 OA
ATOM     14  N   UNL     1       0.716   2.182  28.992  0.00  0.00    -0.328 N 
ATOM     30  C   UNL     1       0.946   2.536  27.679  0.00  0.00    +0.231 C 
ATOM     44  H   UNL     1       1.439   2.293  29.696  0.00  0.00    +0.145 HD
ATOM     45  H   UNL     1      -0.171   1.803  29.308  0.00  0.00    +0.145 HD
ENDBRANCH  24  30
BRANCH  24  26
ATOM     26  C   UNL     1      -0.290   3.343  25.649  0.00  0.00    +0.069 C 
BRANCH  26  29
ATOM     12  N   UNL     1      -2.611   2.721  22.868  0.00  0.00    -0.360 N 
ATOM     29  C   UNL     1      -1.442   3.151  24.705  0.00  0.00    -0.020 A 
ATOM     31  C   UNL     1      -2.823   3.304  25.011  0.00  0.00    +0.003 A 
ATOM     33  C   UNL     1      -1.343   2.791  23.381  0.00  0.00    +0.087 A 
ATOM     34  C   UNL     1      -3.535   3.029  23.841  0.00  0.00    +0.047 A 
ATOM     35  C   UNL     1      -3.539   3.653  26.174  0.00  0.00    +0.010 A 
ATOM     37  C   UNL     1      -4.932   3.085  23.776  0.00  0.00    +0.026 A 
ATOM     38  C   UNL     1      -4.936   3.712  26.122  0.00  0.00    +0.001 A 
ATOM     39  C   UNL     1      -5.620   3.432  24.942  0.00  0.00    +0.002 A 
ATOM     41  H   UNL     1      -2.836   2.478  21.914  0.00  0.00    +0.165 HD
ENDBRANCH  26  29
ENDBRANCH  24  26
ENDBRANCH   9  24
ENDBRANCH  18  21
BRANCH  22  25
ATOM     25  C   UNL     1      -3.436  -2.654  25.360  0.00  0.00    +0.255 C 
BRANCH  25   3
ATOM      3  O   UNL     1      -3.935  -1.621  26.174  0.00  0.00    -0.374 OA
ATOM     36  C   UNL     1      -4.631  -0.631  25.418  0.00  0.00    +0.194 C 
ENDBRANCH  25   3
ENDBRANCH  22  25
TORSDOF 10
ENDMDL
MODEL 4
REMARK VINA RESULT:       9.2      2.232      7.551
REMARK  Name = 11880087
REMARK  11 active torsions:
REMARK  status: ('A' for Active; 'I' for Inactive)
REMARK    1  A    between atoms: O_3  and  C_25
REMARK    2  A    between atoms: O_3  and  C_36
REMARK    3  A    between atoms: N_8  and  C_16
REMARK    4  A    between atoms: N_9  and  C_24
REMARK    5  A    between atoms: C_18  and  C_21
REMARK    6  A    between atoms: C_22  and  C_25
REMARK    7  A    between atoms: C_23  and  C_28
REMARK    8  A    between atoms: C_24  and  C_26
REMARK    9  A    between atoms: C_24  and  C_30
REMARK   10  A    between atoms: C_26  and  C_29
REMARK   11  A    between atoms: C_27  and  C_32
REMARK                            x       y       z     vdW  Elec       q    Type
REMARK                         _______ _______ _______ _____ _____    ______ ____
ROOT
ATOM      2  O   UNL     1      -3.330  -4.246  25.888  0.00  0.00    -0.273 OA
ATOM      7  N   UNL     1      -3.283  -2.075  25.047  0.00  0.00    -0.288 N 
ATOM     16  C   UNL     1      -3.928   0.747  25.426  0.00  0.00    +0.113 C 
ATOM     17  C   UNL     1      -3.950   0.116  24.023  0.00  0.00    +0.059 C 
ATOM     18  C   UNL     1      -3.094  -1.149  23.918  0.00  0.00    +0.164 C 
ATOM     19  C   UNL     1      -4.251  -0.306  26.493  0.00  0.00    +0.046 C 
ATOM     20  C   UNL     1      -3.290  -1.485  26.391  0.00  0.00    +0.111 C 
ATOM     22  C   UNL     1      -3.305  -3.470  24.928  0.00  0.00    +0.242 C 
ENDROOT
BRANCH  16   8
ATOM      8  N   UNL     1      -4.792   1.930  25.520  0.00  0.00    -0.236 N 
ATOM     10  N   UNL     1      -6.017   1.831  26.061  0.00  0.00    -0.064 NA
ATOM     11  N   UNL     1      -6.567   3.040  26.018  0.00  0.00    -0.124 NA
ATOM     23  C   UNL     1      -4.525   3.202  25.116  0.00  0.00    +0.156 A 
ATOM     27  C   UNL     1      -5.666   3.891  25.442  0.00  0.00    +0.179 A 
BRANCH  23  28
ATOM      4  O   UNL     1      -3.076   3.538  23.278  0.00  0.00    -0.269 OA
ATOM     13  N   UNL     1      -2.361   4.273  25.314  0.00  0.00    -0.324 N 
ATOM     28  C   UNL     1      -3.317   3.651  24.502  0.00  0.00    +0.262 C 
ATOM     42  H   UNL     1      -2.512   4.403  26.308  0.00  0.00    +0.145 HD
ATOM     43  H   UNL     1      -1.489   4.618  24.928  0.00  0.00    +0.145 HD
ENDBRANCH  23  28
BRANCH  27  32
ATOM      6  O   UNL     1      -5.500   5.931  24.258  0.00  0.00    -0.269 OA
ATOM     15  N   UNL     1      -6.739   5.935  26.172  0.00  0.00    -0.324 N 
ATOM     32  C   UNL     1      -5.932   5.280  25.236  0.00  0.00    +0.264 C 
ATOM     46  H   UNL     1      -6.965   6.920  26.068  0.00  0.00    +0.145 HD
ATOM     47  H   UNL     1      -7.125   5.457  26.979  0.00  0.00    +0.145 HD
ENDBRANCH  27  32
ENDBRANCH  16   8
BRANCH  18  21
ATOM      1  O   UNL     1      -0.776  -1.641  24.218  0.00  0.00    -0.274 OA
ATOM      9  N   UNL     1      -1.385   0.435  23.358  0.00  0.00    -0.302 N 
ATOM     21  C   UNL     1      -1.627  -0.837  23.850  0.00  0.00    +0.234 C 
ATOM     40  H   UNL     1      -2.166   0.992  23.025  0.00  0.00    +0.150 HD
BRANCH   9  24
ATOM     24  C   UNL     1      -0.058   0.986  23.214  0.00  0.00    +0.163 C 
BRANCH  24  30
ATOM      5  O   UNL     1       0.393   3.060  24.399  0.00  0.00    -0.274 OA
ATOM     14  N   UNL     1       0.162   1.126  25.617  0.00  0.00    -0.328 N 
ATOM     30  C   UNL     1       0.206   1.845  24.442  0.00  0.00    +0.231 C 
ATOM     44  H   UNL     1       0.308   1.583  26.513  0.00  0.00    +0.145 HD
ATOM     45  H   UNL     1      -0.016   0.128  25.640  0.00  0.00    +0.145 HD
ENDBRANCH  24  30
BRANCH  24  26
ATOM     26  C   UNL     1       1.014  -0.104  23.082  0.00  0.00    +0.069 C 
BRANCH  26  29
ATOM     12  N   UNL     1       4.115   1.822  22.658  0.00  0.00    -0.360 N 
ATOM     29  C   UNL     1       2.409   0.447  23.008  0.00  0.00    -0.020 A 
ATOM     31  C   UNL     1       3.607  -0.230  23.369  0.00  0.00    +0.003 A 
ATOM     33  C   UNL     1       2.753   1.706  22.575  0.00  0.00    +0.087 A 
ATOM     34  C   UNL     1       4.664   0.655  23.140  0.00  0.00    +0.047 A 
ATOM     35  C   UNL     1       3.897  -1.515  23.870  0.00  0.00    +0.010 A 
ATOM     37  C   UNL     1       5.999   0.319  23.388  0.00  0.00    +0.026 A 
ATOM     38  C   UNL     1       5.228  -1.865  24.122  0.00  0.00    +0.001 A 
ATOM     39  C   UNL     1       6.261  -0.961  23.885  0.00  0.00    +0.002 A 
ATOM     41  H   UNL     1       4.643   2.646  22.402  0.00  0.00    +0.165 HD
ENDBRANCH  26  29
ENDBRANCH  24  26
ENDBRANCH   9  24
ENDBRANCH  18  21
BRANCH  22  25
ATOM     25  C   UNL     1      -3.309  -4.034  23.529  0.00  0.00    +0.255 C 
BRANCH  25   3
ATOM      3  O   UNL     1      -4.211  -3.253  22.784  0.00  0.00    -0.374 OA
ATOM     36  C   UNL     1      -5.568  -3.526  23.129  0.00  0.00    +0.194 C 
ENDBRANCH  25   3
ENDBRANCH  22  25
TORSDOF 10
ENDMDL
MODEL 5
REMARK VINA RESULT:       9.4      2.361      5.319
REMARK  Name = 11880087
REMARK  11 active torsions:
REMARK  status: ('A' for Active; 'I' for Inactive)
REMARK    1  A    between atoms: O_3  and  C_25
REMARK    2  A    between atoms: O_3  and  C_36
REMARK    3  A    between atoms: N_8  and  C_16
REMARK    4  A    between atoms: N_9  and  C_24
REMARK    5  A    between atoms: C_18  and  C_21
REMARK    6  A    between atoms: C_22  and  C_25
REMARK    7  A    between atoms: C_23  and  C_28
REMARK    8  A    between atoms: C_24  and  C_26
REMARK    9  A    between atoms: C_24  and  C_30
REMARK   10  A    between atoms: C_26  and  C_29
REMARK   11  A    between atoms: C_27  and  C_32
REMARK                            x       y       z     vdW  Elec       q    Type
REMARK                         _______ _______ _______ _____ _____    ______ ____
ROOT
ATOM      2  O   UNL     1      -4.093  -1.393  23.404  0.00  0.00    -0.273 OA
ATOM      7  N   UNL     1      -2.055  -0.416  23.966  0.00  0.00    -0.288 N 
ATOM     16  C   UNL     1       0.839  -0.328  23.598  0.00  0.00    +0.113 C 
ATOM     17  C   UNL     1       0.208   0.009  24.960  0.00  0.00    +0.059 C 
ATOM     18  C   UNL     1      -1.256   0.444  24.854  0.00  0.00    +0.164 C 
ATOM     19  C   UNL     1      -0.043  -1.318  22.829  0.00  0.00    +0.046 C 
ATOM     20  C   UNL     1      -1.456  -0.767  22.673  0.00  0.00    +0.111 C 
ATOM     22  C   UNL     1      -3.384  -0.786  24.211  0.00  0.00    +0.242 C 
ENDROOT
BRANCH  16   8
ATOM      8  N   UNL     1       2.228  -0.789  23.725  0.00  0.00    -0.236 N 
ATOM     10  N   UNL     1       2.498  -1.967  24.310  0.00  0.00    -0.064 NA
ATOM     11  N   UNL     1       3.817  -2.127  24.286  0.00  0.00    -0.124 NA
ATOM     23  C   UNL     1       3.363  -0.163  23.312  0.00  0.00    +0.156 A 
ATOM     27  C   UNL     1       4.362  -1.030  23.677  0.00  0.00    +0.179 A 
BRANCH  23  28
ATOM      4  O   UNL     1       3.151   2.190  23.209  0.00  0.00    -0.269 OA
ATOM     13  N   UNL     1       3.862   1.126  21.322  0.00  0.00    -0.324 N 
ATOM     28  C   UNL     1       3.433   1.102  22.654  0.00  0.00    +0.262 C 
ATOM     42  H   UNL     1       4.116   0.277  20.830  0.00  0.00    +0.145 HD
ATOM     43  H   UNL     1       3.937   1.999  20.811  0.00  0.00    +0.145 HD
ENDBRANCH  23  28
BRANCH  27  32
ATOM      6  O   UNL     1       6.274  -0.414  22.432  0.00  0.00    -0.269 OA
ATOM     15  N   UNL     1       6.618  -1.225  24.534  0.00  0.00    -0.324 N 
ATOM     32  C   UNL     1       5.769  -0.871  23.482  0.00  0.00    +0.264 C 
ATOM     46  H   UNL     1       7.625  -1.124  24.449  0.00  0.00    +0.145 HD
ATOM     47  H   UNL     1       6.264  -1.591  25.412  0.00  0.00    +0.145 HD
ENDBRANCH  27  32
ENDBRANCH  16   8
BRANCH  18  21
ATOM      1  O   UNL     1      -1.849   2.091  23.230  0.00  0.00    -0.274 OA
ATOM      9  N   UNL     1      -0.939   2.785  25.257  0.00  0.00    -0.302 N 
ATOM     21  C   UNL     1      -1.395   1.849  24.345  0.00  0.00    +0.234 C 
ATOM     40  H   UNL     1      -0.641   2.473  26.177  0.00  0.00    +0.150 HD
BRANCH   9  24
ATOM     24  C   UNL     1      -0.942   4.206  25.000  0.00  0.00    +0.163 C 
BRANCH  24  30
ATOM      5  O   UNL     1       0.013   5.517  23.190  0.00  0.00    -0.274 OA
ATOM     14  N   UNL     1       0.700   3.340  23.451  0.00  0.00    -0.328 N 
ATOM     30  C   UNL     1      -0.057   4.443  23.785  0.00  0.00    +0.231 C 
ATOM     44  H   UNL     1       1.344   3.369  22.667  0.00  0.00    +0.145 HD
ATOM     45  H   UNL     1       0.649   2.467  23.966  0.00  0.00    +0.145 HD
ENDBRANCH  24  30
BRANCH  24  26
ATOM     26  C   UNL     1      -2.355   4.749  24.749  0.00  0.00    +0.069 C 
BRANCH  26  29
ATOM     12  N   UNL     1      -4.545   3.624  27.477  0.00  0.00    -0.360 N 
ATOM     29  C   UNL     1      -3.388   4.146  25.657  0.00  0.00    -0.020 A 
ATOM     31  C   UNL     1      -4.446   3.275  25.276  0.00  0.00    +0.003 A 
ATOM     33  C   UNL     1      -3.475   4.342  27.016  0.00  0.00    +0.087 A 
ATOM     34  C   UNL     1      -5.158   2.962  26.437  0.00  0.00    +0.047 A 
ATOM     35  C   UNL     1      -4.869   2.719  24.052  0.00  0.00    +0.010 A 
ATOM     37  C   UNL     1      -6.275   2.119  26.435  0.00  0.00    +0.026 A 
ATOM     38  C   UNL     1      -5.985   1.875  24.035  0.00  0.00    +0.001 A 
ATOM     39  C   UNL     1      -6.676   1.581  25.208  0.00  0.00    +0.002 A 
ATOM     41  H   UNL     1      -4.843   3.585  28.442  0.00  0.00    +0.165 HD
ENDBRANCH  26  29
ENDBRANCH  24  26
ENDBRANCH   9  24
ENDBRANCH  18  21
BRANCH  22  25
ATOM     25  C   UNL     1      -3.957  -0.415  25.556  0.00  0.00    +0.255 C 
BRANCH  25   3
ATOM      3  O   UNL     1      -3.615  -1.456  26.438  0.00  0.00    -0.374 OA
ATOM     36  C   UNL     1      -3.258  -2.651  25.744  0.00  0.00    +0.194 C 
ENDBRANCH  25   3
ENDBRANCH  22  25
TORSDOF 10
ENDMDL
MODEL 6
REMARK VINA RESULT:       9.5      2.004      4.576
REMARK  Name = 11880087
REMARK  11 active torsions:
REMARK  status: ('A' for Active; 'I' for Inactive)
REMARK    1  A    between atoms: O_3  and  C_25
REMARK    2  A    between atoms: O_3  and  C_36
REMARK    3  A    between atoms: N_8  and  C_16
REMARK    4  A    between atoms: N_9  and  C_24
REMARK    5  A    between atoms: C_18  and  C_21
REMARK    6  A    between atoms: C_22  and  C_25
REMARK    7  A    between atoms: C_23  and  C_28
REMARK    8  A    between atoms: C_24  and  C_26
REMARK    9  A    between atoms: C_24  and  C_30
REMARK   10  A    between atoms: C_26  and  C_29
REMARK   11  A    between atoms: C_27  and  C_32
REMARK                            x       y       z     vdW  Elec       q    Type
REMARK                         _______ _______ _______ _____ _____    ______ ____
ROOT
ATOM      2  O   UNL     1      -2.985  -3.179  24.110  0.00  0.00    -0.273 OA
ATOM      7  N   UNL     1      -1.749  -1.204  24.105  0.00  0.00    -0.288 N 
ATOM     16  C   UNL     1       0.615   0.240  23.184  0.00  0.00    +0.113 C 
ATOM     17  C   UNL     1       0.003   0.530  24.566  0.00  0.00    +0.059 C 
ATOM     18  C   UNL     1      -1.470   0.126  24.669  0.00  0.00    +0.164 C 
ATOM     19  C   UNL     1       0.344  -1.212  22.772  0.00  0.00    +0.046 C 
ATOM     20  C   UNL     1      -1.152  -1.506  22.798  0.00  0.00    +0.111 C 
ATOM     22  C   UNL     1      -2.653  -2.122  24.655  0.00  0.00    +0.242 C 
ENDROOT
BRANCH  16   8
ATOM      8  N   UNL     1       2.040   0.589  23.120  0.00  0.00    -0.236 N 
ATOM     10  N   UNL     1       2.421   1.793  22.665  0.00  0.00    -0.064 NA
ATOM     11  N   UNL     1       3.748   1.835  22.719  0.00  0.00    -0.124 NA
ATOM     23  C   UNL     1       3.110  -0.173  23.478  0.00  0.00    +0.156 A 
ATOM     27  C   UNL     1       4.186   0.638  23.215  0.00  0.00    +0.179 A 
BRANCH  23  28
ATOM      4  O   UNL     1       2.017  -2.028  24.455  0.00  0.00    -0.269 OA
ATOM     13  N   UNL     1       4.235  -2.259  23.980  0.00  0.00    -0.324 N 
ATOM     28  C   UNL     1       3.058  -1.500  24.000  0.00  0.00    +0.262 C 
ATOM     42  H   UNL     1       5.101  -1.885  23.610  0.00  0.00    +0.145 HD
ATOM     43  H   UNL     1       4.251  -3.211  24.331  0.00  0.00    +0.145 HD
ENDBRANCH  23  28
BRANCH  27  32
ATOM      6  O   UNL     1       6.256  -0.316  22.589  0.00  0.00    -0.269 OA
ATOM     15  N   UNL     1       6.188   0.820  24.564  0.00  0.00    -0.324 N 
ATOM     32  C   UNL     1       5.570   0.337  23.407  0.00  0.00    +0.264 C 
ATOM     46  H   UNL     1       7.171   0.641  24.744  0.00  0.00    +0.145 HD
ATOM     47  H   UNL     1       5.684   1.363  25.257  0.00  0.00    +0.145 HD
ENDBRANCH  27  32
ENDBRANCH  16   8
BRANCH  18  21
ATOM      1  O   UNL     1      -2.224   1.383  22.783  0.00  0.00    -0.274 OA
ATOM      9  N   UNL     1      -3.342   1.617  24.812  0.00  0.00    -0.302 N 
ATOM     21  C   UNL     1      -2.374   1.097  23.968  0.00  0.00    +0.234 C 
ATOM     40  H   UNL     1      -3.411   1.260  25.760  0.00  0.00    +0.150 HD
BRANCH   9  24
ATOM     24  C   UNL     1      -4.321   2.589  24.387  0.00  0.00    +0.163 C 
BRANCH  24  30
ATOM      5  O   UNL     1      -6.506   1.540  24.562  0.00  0.00    -0.274 OA
ATOM     14  N   UNL     1      -5.714   2.734  26.358  0.00  0.00    -0.328 N 
ATOM     30  C   UNL     1      -5.631   2.235  25.075  0.00  0.00    +0.231 C 
ATOM     44  H   UNL     1      -6.532   2.558  26.933  0.00  0.00    +0.145 HD
ATOM     45  H   UNL     1      -4.974   3.287  26.777  0.00  0.00    +0.145 HD
ENDBRANCH  24  30
BRANCH  24  26
ATOM     26  C   UNL     1      -3.904   4.024  24.734  0.00  0.00    +0.069 C 
BRANCH  26  29
ATOM     12  N   UNL     1      -0.359   4.895  24.306  0.00  0.00    -0.360 N 
ATOM     29  C   UNL     1      -2.414   4.209  24.785  0.00  0.00    -0.020 A 
ATOM     31  C   UNL     1      -1.518   3.611  25.715  0.00  0.00    +0.003 A 
ATOM     33  C   UNL     1      -1.672   4.993  23.932  0.00  0.00    +0.087 A 
ATOM     34  C   UNL     1      -0.234   4.058  25.392  0.00  0.00    +0.047 A 
ATOM     35  C   UNL     1      -1.674   2.729  26.803  0.00  0.00    +0.010 A 
ATOM     37  C   UNL     1       0.904   3.667  26.105  0.00  0.00    +0.026 A 
ATOM     38  C   UNL     1      -0.544   2.329  27.525  0.00  0.00    +0.001 A 
ATOM     39  C   UNL     1       0.724   2.792  27.181  0.00  0.00    +0.002 A 
ATOM     41  H   UNL     1       0.409   5.369  23.851  0.00  0.00    +0.165 HD
ENDBRANCH  26  29
ENDBRANCH  24  26
ENDBRANCH   9  24
ENDBRANCH  18  21
BRANCH  22  25
ATOM     25  C   UNL     1      -3.235  -1.778  26.004  0.00  0.00    +0.255 C 
BRANCH  25   3
ATOM      3  O   UNL     1      -4.350  -0.956  25.762  0.00  0.00    -0.374 OA
ATOM     36  C   UNL     1      -4.891  -1.157  24.457  0.00  0.00    +0.194 C 
ENDBRANCH  25   3
ENDBRANCH  22  25
TORSDOF 10
ENDMDL
MODEL 7
REMARK VINA RESULT:       9.8      2.210      4.357
REMARK  Name = 11880087
REMARK  11 active torsions:
REMARK  status: ('A' for Active; 'I' for Inactive)
REMARK    1  A    between atoms: O_3  and  C_25
REMARK    2  A    between atoms: O_3  and  C_36
REMARK    3  A    between atoms: N_8  and  C_16
REMARK    4  A    between atoms: N_9  and  C_24
REMARK    5  A    between atoms: C_18  and  C_21
REMARK    6  A    between atoms: C_22  and  C_25
REMARK    7  A    between atoms: C_23  and  C_28
REMARK    8  A    between atoms: C_24  and  C_26
REMARK    9  A    between atoms: C_24  and  C_30
REMARK   10  A    between atoms: C_26  and  C_29
REMARK   11  A    between atoms: C_27  and  C_32
REMARK                            x       y       z     vdW  Elec       q    Type
REMARK                         _______ _______ _______ _____ _____    ______ ____
ROOT
ATOM      2  O   UNL     1      -1.493   3.726  23.329  0.00  0.00    -0.273 OA
ATOM      7  N   UNL     1      -0.584   1.582  23.345  0.00  0.00    -0.288 N 
ATOM     16  C   UNL     1       1.678  -0.150  23.983  0.00  0.00    +0.113 C 
ATOM     17  C   UNL     1       0.766  -0.456  22.783  0.00  0.00    +0.059 C 
ATOM     18  C   UNL     1      -0.622   0.178  22.904  0.00  0.00    +0.164 C 
ATOM     19  C   UNL     1       1.711   1.358  24.260  0.00  0.00    +0.046 C 
ATOM     20  C   UNL     1       0.301   1.895  24.474  0.00  0.00    +0.111 C 
ATOM     22  C   UNL     1      -1.436   2.584  22.863  0.00  0.00    +0.242 C 
ENDROOT
BRANCH  16   8
ATOM      8  N   UNL     1       3.020  -0.725  23.826  0.00  0.00    -0.236 N 
ATOM     10  N   UNL     1       3.292  -1.947  24.312  0.00  0.00    -0.064 NA
ATOM     11  N   UNL     1       4.564  -2.210  24.029  0.00  0.00    -0.124 NA
ATOM     23  C   UNL     1       4.106  -0.173  23.220  0.00  0.00    +0.156 A 
ATOM     27  C   UNL     1       5.077  -1.133  23.360  0.00  0.00    +0.179 A 
BRANCH  23  28
ATOM      4  O   UNL     1       4.583   2.142  23.171  0.00  0.00    -0.269 OA
ATOM     13  N   UNL     1       3.735   1.215  21.269  0.00  0.00    -0.324 N 
ATOM     28  C   UNL     1       4.160   1.111  22.599  0.00  0.00    +0.262 C 
ATOM     42  H   UNL     1       3.397   0.409  20.755  0.00  0.00    +0.145 HD
ATOM     43  H   UNL     1       3.759   2.102  20.778  0.00  0.00    +0.145 HD
ENDBRANCH  23  28
BRANCH  27  32
ATOM      6  O   UNL     1       6.949  -1.950  22.170  0.00  0.00    -0.269 OA
ATOM     15  N   UNL     1       7.201   0.027  23.277  0.00  0.00    -0.324 N 
ATOM     32  C   UNL     1       6.429  -1.077  22.902  0.00  0.00    +0.264 C 
ATOM     46  H   UNL     1       8.164   0.118  22.972  0.00  0.00    +0.145 HD
ATOM     47  H   UNL     1       6.830   0.769  23.861  0.00  0.00    +0.145 HD
ENDBRANCH  27  32
ENDBRANCH  16   8
BRANCH  18  21
ATOM      1  O   UNL     1      -1.038  -1.163  24.837  0.00  0.00    -0.274 OA
ATOM      9  N   UNL     1      -2.839  -0.490  23.524  0.00  0.00    -0.302 N 
ATOM     21  C   UNL     1      -1.500  -0.561  23.871  0.00  0.00    +0.234 C 
ATOM     40  H   UNL     1      -3.114   0.089  22.736  0.00  0.00    +0.150 HD
BRANCH   9  24
ATOM     24  C   UNL     1      -3.887  -1.137  24.279  0.00  0.00    +0.163 C 
BRANCH  24  30
ATOM      5  O   UNL     1      -3.305  -3.385  23.563  0.00  0.00    -0.274 OA
ATOM     14  N   UNL     1      -3.228  -2.892  25.805  0.00  0.00    -0.328 N 
ATOM     30  C   UNL     1      -3.464  -2.584  24.482  0.00  0.00    +0.231 C 
ATOM     44  H   UNL     1      -2.926  -3.822  26.077  0.00  0.00    +0.145 HD
ATOM     45  H   UNL     1      -3.341  -2.214  26.552  0.00  0.00    +0.145 HD
ENDBRANCH  24  30
BRANCH  24  26
ATOM     26  C   UNL     1      -4.134  -0.455  25.631  0.00  0.00    +0.069 C 
BRANCH  26  29
ATOM     12  N   UNL     1      -6.238   2.520  25.153  0.00  0.00    -0.360 N 
ATOM     29  C   UNL     1      -4.755   0.906  25.499  0.00  0.00    -0.020 A 
ATOM     31  C   UNL     1      -4.104   2.156  25.691  0.00  0.00    +0.003 A 
ATOM     33  C   UNL     1      -6.066   1.162  25.170  0.00  0.00    +0.087 A 
ATOM     34  C   UNL     1      -5.056   3.153  25.467  0.00  0.00    +0.047 A 
ATOM     35  C   UNL     1      -2.791   2.538  26.034  0.00  0.00    +0.010 A 
ATOM     37  C   UNL     1      -4.761   4.517  25.569  0.00  0.00    +0.026 A 
ATOM     38  C   UNL     1      -2.482   3.899  26.140  0.00  0.00    +0.001 A 
ATOM     39  C   UNL     1      -3.452   4.871  25.911  0.00  0.00    +0.002 A 
ATOM     41  H   UNL     1      -7.106   2.991  24.939  0.00  0.00    +0.165 HD
ENDBRANCH  26  29
ENDBRANCH  24  26
ENDBRANCH   9  24
ENDBRANCH  18  21
BRANCH  22  25
ATOM     25  C   UNL     1      -2.320   2.223  21.696  0.00  0.00    +0.255 C 
BRANCH  25   3
ATOM      3  O   UNL     1      -3.636   2.174  22.190  0.00  0.00    -0.374 OA
ATOM     36  C   UNL     1      -4.235   3.467  22.248  0.00  0.00    +0.194 C 
ENDBRANCH  25   3
ENDBRANCH  22  25
TORSDOF 10
ENDMDL
