MODEL 1
REMARK VINA RESULT:       5.8      0.000      0.000
REMARK  Name = 45360387
REMARK  8 active torsions:
REMARK  status: ('A' for Active; 'I' for Inactive)
REMARK    1  A    between atoms: O_4  and  C_12
REMARK    2  A    between atoms: O_7  and  C_27
REMARK    3  A    between atoms: O_7  and  C_32
REMARK    4  A    between atoms: N_9  and  C_11
REMARK    5  A    between atoms: N_10  and  C_20
REMARK    6  A    between atoms: C_18  and  C_19
REMARK    7  A    between atoms: C_28  and  C_31
REMARK    8  A    between atoms: C_32  and  C_33
REMARK                            x       y       z     vdW  Elec       q    Type
REMARK                         _______ _______ _______ _____ _____    ______ ____
ROOT
ATOM      5  O   UNL     1      -6.445   1.317  25.142  0.00  0.00    -0.252 OA
ATOM      8  N   UNL     1      -5.244   3.084  26.027  0.00  0.00    -0.284 N 
ATOM     10  N   UNL     1      -4.152   1.078  25.417  0.00  0.00    -0.269 N 
ATOM     11  C   UNL     1      -3.298   4.473  25.236  0.00  0.00    +0.119 C 
ATOM     12  C   UNL     1      -4.211   5.165  24.208  0.00  0.00    +0.136 C 
ATOM     13  C   UNL     1      -5.465   5.837  24.778  0.00  0.00    +0.035 C 
ATOM     14  C   UNL     1      -3.996   3.761  26.401  0.00  0.00    +0.134 C 
ATOM     15  C   UNL     1      -6.631   4.865  24.983  0.00  0.00    +0.022 C 
ATOM     16  C   UNL     1      -6.452   3.901  26.149  0.00  0.00    +0.109 C 
ATOM     17  C   UNL     1      -5.356   1.775  25.497  0.00  0.00    +0.307 C 
ATOM     41  H   UNL     1      -3.303   1.547  25.712  0.00  0.00    +0.156 HD
ENDROOT
BRANCH  10  20
ATOM     20  C   UNL     1      -3.937  -0.240  24.938  0.00  0.00    +0.035 A 
ATOM     23  C   UNL     1      -2.676  -0.826  25.049  0.00  0.00    +0.035 A 
ATOM     24  C   UNL     1      -4.987  -0.948  24.354  0.00  0.00    +0.023 A 
ATOM     28  C   UNL     1      -2.466  -2.122  24.578  0.00  0.00    +0.057 A 
ATOM     29  C   UNL     1      -4.776  -2.243  23.882  0.00  0.00    +0.002 A 
ATOM     30  C   UNL     1      -3.516  -2.831  23.994  0.00  0.00    +0.012 A 
BRANCH  28  31
ATOM      1  F   UNL     1      -0.123  -1.860  24.983  0.00  0.00    -0.166 F 
ATOM      2  F   UNL     1      -0.729  -3.377  23.549  0.00  0.00    -0.166 F 
ATOM      3  F   UNL     1      -1.041  -3.698  25.677  0.00  0.00    -0.166 F 
ATOM     31  C   UNL     1      -1.119  -2.749  24.696  0.00  0.00    +0.417 C 
ENDBRANCH  28  31
ENDBRANCH  10  20
BRANCH  11   9
ATOM      6  O   UNL     1      -1.175   2.926  26.393  0.00  0.00    -0.270 OA
ATOM      9  N   UNL     1      -2.411   3.561  24.538  0.00  0.00    -0.305 N 
ATOM     18  C   UNL     1      -1.415   2.859  25.190  0.00  0.00    +0.244 C 
ATOM     39  H   UNL     1      -2.620   3.367  23.564  0.00  0.00    +0.149 HD
BRANCH  18  19
ATOM     19  C   UNL     1      -0.575   1.987  24.330  0.00  0.00    +0.037 A 
ATOM     21  C   UNL     1      -1.173   1.155  23.385  0.00  0.00    +0.016 A 
ATOM     22  C   UNL     1       0.814   1.998  24.470  0.00  0.00    +0.016 A 
ATOM     25  C   UNL     1      -0.384   0.334  22.579  0.00  0.00    +0.046 A 
ATOM     26  C   UNL     1       1.602   1.177  23.664  0.00  0.00    +0.046 A 
ATOM     27  C   UNL     1       1.004   0.346  22.718  0.00  0.00    +0.121 A 
BRANCH  27   7
ATOM      7  O   UNL     1       1.774  -0.455  21.931  0.00  0.00    -0.487 OA
BRANCH   7  32
ATOM     32  C   UNL     1       3.038   0.063  21.519  0.00  0.00    +0.264 C 
BRANCH  32  33
ATOM     33  C   UNL     1       4.034  -0.140  22.623  0.00  0.00    -0.010 A 
ATOM     34  C   UNL     1       4.850   0.916  23.029  0.00  0.00    +0.007 A 
ATOM     35  C   UNL     1       4.144  -1.383  23.243  0.00  0.00    +0.007 A 
ATOM     36  C   UNL     1       5.776   0.728  24.054  0.00  0.00    +0.000 A 
ATOM     37  C   UNL     1       5.068  -1.572  24.269  0.00  0.00    +0.000 A 
ATOM     38  C   UNL     1       5.885  -0.517  24.675  0.00  0.00    +0.000 A 
ENDBRANCH  32  33
ENDBRANCH   7  32
ENDBRANCH  27   7
ENDBRANCH  18  19
ENDBRANCH  11   9
BRANCH  12   4
ATOM      4  O   UNL     1      -3.444   6.191  23.563  0.00  0.00    -0.390 OA
ATOM     40  H   UNL     1      -3.481   6.984  24.123  0.00  0.00    +0.210 HD
ENDBRANCH  12   4
TORSDOF 8
ENDMDL
MODEL 2
REMARK VINA RESULT:       7.8      2.553      7.725
REMARK  Name = 45360387
REMARK  8 active torsions:
REMARK  status: ('A' for Active; 'I' for Inactive)
REMARK    1  A    between atoms: O_4  and  C_12
REMARK    2  A    between atoms: O_7  and  C_27
REMARK    3  A    between atoms: O_7  and  C_32
REMARK    4  A    between atoms: N_9  and  C_11
REMARK    5  A    between atoms: N_10  and  C_20
REMARK    6  A    between atoms: C_18  and  C_19
REMARK    7  A    between atoms: C_28  and  C_31
REMARK    8  A    between atoms: C_32  and  C_33
REMARK                            x       y       z     vdW  Elec       q    Type
REMARK                         _______ _______ _______ _____ _____    ______ ____
ROOT
ATOM      5  O   UNL     1       2.156  -2.758  25.065  0.00  0.00    -0.252 OA
ATOM      8  N   UNL     1       3.144  -1.575  23.342  0.00  0.00    -0.284 N 
ATOM     10  N   UNL     1       0.929  -1.091  24.011  0.00  0.00    -0.269 N 
ATOM     11  C   UNL     1       3.628   0.860  22.917  0.00  0.00    +0.119 C 
ATOM     12  C   UNL     1       4.738   0.825  23.984  0.00  0.00    +0.136 C 
ATOM     13  C   UNL     1       5.827  -0.232  23.777  0.00  0.00    +0.035 C 
ATOM     14  C   UNL     1       3.181  -0.493  22.349  0.00  0.00    +0.134 C 
ATOM     15  C   UNL     1       5.437  -1.615  24.306  0.00  0.00    +0.022 C 
ATOM     16  C   UNL     1       4.387  -2.337  23.472  0.00  0.00    +0.109 C 
ATOM     17  C   UNL     1       2.066  -1.873  24.210  0.00  0.00    +0.307 C 
ATOM     41  H   UNL     1       0.959  -0.371  23.298  0.00  0.00    +0.156 HD
ENDROOT
BRANCH  10  20
ATOM     20  C   UNL     1      -0.302  -1.148  24.712  0.00  0.00    +0.035 A 
ATOM     23  C   UNL     1      -1.346  -1.935  24.226  0.00  0.00    +0.035 A 
ATOM     24  C   UNL     1      -0.469  -0.416  25.888  0.00  0.00    +0.023 A 
ATOM     28  C   UNL     1      -2.557  -1.991  24.917  0.00  0.00    +0.057 A 
ATOM     29  C   UNL     1      -1.679  -0.472  26.578  0.00  0.00    +0.002 A 
ATOM     30  C   UNL     1      -2.723  -1.259  26.093  0.00  0.00    +0.012 A 
BRANCH  28  31
ATOM      1  F   UNL     1      -4.757  -2.111  23.987  0.00  0.00    -0.166 F 
ATOM      2  F   UNL     1      -4.150  -3.706  25.331  0.00  0.00    -0.166 F 
ATOM      3  F   UNL     1      -3.327  -3.598  23.322  0.00  0.00    -0.166 F 
ATOM     31  C   UNL     1      -3.674  -2.832  24.398  0.00  0.00    +0.417 C 
ENDBRANCH  28  31
ENDBRANCH  10  20
BRANCH  11   9
ATOM      6  O   UNL     1       0.872   0.496  22.201  0.00  0.00    -0.270 OA
ATOM      9  N   UNL     1       2.492   1.593  23.443  0.00  0.00    -0.305 N 
ATOM     18  C   UNL     1       1.198   1.340  23.031  0.00  0.00    +0.244 C 
ATOM     39  H   UNL     1       2.668   2.228  24.215  0.00  0.00    +0.149 HD
BRANCH  18  19
ATOM     19  C   UNL     1       0.149   2.195  23.646  0.00  0.00    +0.037 A 
ATOM     21  C   UNL     1      -1.053   2.415  22.975  0.00  0.00    +0.016 A 
ATOM     22  C   UNL     1       0.369   2.779  24.894  0.00  0.00    +0.016 A 
ATOM     25  C   UNL     1      -2.036   3.219  23.551  0.00  0.00    +0.046 A 
ATOM     26  C   UNL     1      -0.615   3.582  25.470  0.00  0.00    +0.046 A 
ATOM     27  C   UNL     1      -1.818   3.802  24.799  0.00  0.00    +0.121 A 
BRANCH  27   7
ATOM      7  O   UNL     1      -2.777   4.587  25.362  0.00  0.00    -0.487 OA
BRANCH   7  32
ATOM     32  C   UNL     1      -3.559   4.008  26.406  0.00  0.00    +0.264 C 
BRANCH  32  33
ATOM     33  C   UNL     1      -4.493   2.994  25.814  0.00  0.00    -0.010 A 
ATOM     34  C   UNL     1      -3.991   1.794  25.307  0.00  0.00    +0.007 A 
ATOM     35  C   UNL     1      -5.863   3.250  25.770  0.00  0.00    +0.007 A 
ATOM     36  C   UNL     1      -4.860   0.852  24.756  0.00  0.00    +0.000 A 
ATOM     37  C   UNL     1      -6.731   2.307  25.221  0.00  0.00    +0.000 A 
ATOM     38  C   UNL     1      -6.231   1.109  24.713  0.00  0.00    +0.000 A 
ENDBRANCH  32  33
ENDBRANCH   7  32
ENDBRANCH  27   7
ENDBRANCH  18  19
ENDBRANCH  11   9
BRANCH  12   4
ATOM      4  O   UNL     1       5.388   2.103  23.980  0.00  0.00    -0.390 OA
ATOM     40  H   UNL     1       5.999   2.121  23.224  0.00  0.00    +0.210 HD
ENDBRANCH  12   4
TORSDOF 8
ENDMDL
