MODEL 1
REMARK VINA RESULT:      -5.5      0.000      0.000
REMARK  Name = 75367803
REMARK  7 active torsions:
REMARK  status: ('A' for Active; 'I' for Inactive)
REMARK    1  A    between atoms: O_2  and  C_8
REMARK    2  A    between atoms: O_2  and  C_14
REMARK    3  A    between atoms: N_4  and  C_12
REMARK    4  A    between atoms: N_6  and  C_20
REMARK    5  A    between atoms: N_6  and  C_21
REMARK    6  A    between atoms: C_12  and  C_13
REMARK    7  A    between atoms: C_14  and  C_16
REMARK                            x       y       z     vdW  Elec       q    Type
REMARK                         _______ _______ _______ _____ _____    ______ ____
ROOT
ATOM      1  O   UNL     1       0.571   2.714  25.490  0.00  0.00    -0.376 OA
ATOM      4  N   UNL     1      -1.944   2.516  23.656  0.00  0.00    -0.292 NA
ATOM      7  C   UNL     1      -1.647   1.086  23.790  0.00  0.00    +0.118 C 
ATOM      8  C   UNL     1      -0.471   0.680  24.693  0.00  0.00    +0.158 C 
ATOM      9  C   UNL     1      -1.755   3.290  24.883  0.00  0.00    +0.113 C 
ATOM     10  C   UNL     1       0.734   1.607  24.610  0.00  0.00    +0.192 C 
ATOM     11  C   UNL     1      -0.296   3.730  25.003  0.00  0.00    +0.175 C 
ENDROOT
BRANCH   8   2
ATOM      2  O   UNL     1      -0.047  -0.629  24.308  0.00  0.00    -0.364 OA
BRANCH   2  14
ATOM     14  C   UNL     1      -0.590  -1.619  25.166  0.00  0.00    +0.256 C 
BRANCH  14  16
ATOM      3  O   UNL     1      -1.412  -3.122  23.528  0.00  0.00    -0.273 OA
ATOM      6  N   UNL     1      -3.009  -2.132  24.892  0.00  0.00    -0.306 N 
ATOM     16  C   UNL     1      -1.705  -2.357  24.453  0.00  0.00    +0.241 C 
ATOM     20  C   UNL     1      -4.114  -2.827  24.243  0.00  0.00    +0.131 C 
ATOM     21  C   UNL     1      -3.391  -1.249  25.992  0.00  0.00    +0.131 C 
ENDBRANCH  14  16
ENDBRANCH   2  14
ENDBRANCH   8   2
BRANCH   4  12
ATOM     12  C   UNL     1      -3.288   2.701  23.107  0.00  0.00    +0.140 C 
BRANCH  12  13
ATOM      5  N   UNL     1      -4.670   3.815  24.771  0.00  0.00    -0.259 NA
ATOM     13  C   UNL     1      -4.343   2.644  24.180  0.00  0.00    +0.055 A 
ATOM     15  C   UNL     1      -4.918   1.425  24.503  0.00  0.00    +0.024 A 
ATOM     17  C   UNL     1      -5.891   1.407  25.496  0.00  0.00    +0.003 A 
ATOM     18  C   UNL     1      -5.619   3.758  25.732  0.00  0.00    +0.111 A 
ATOM     19  C   UNL     1      -6.254   2.592  26.128  0.00  0.00    +0.020 A 
ENDBRANCH  12  13
ENDBRANCH   4  12
TORSDOF 5
ENDMDL
MODEL 2
REMARK VINA RESULT:      -5.3      1.805      4.949
REMARK  Name = 75367803
REMARK  7 active torsions:
REMARK  status: ('A' for Active; 'I' for Inactive)
REMARK    1  A    between atoms: O_2  and  C_8
REMARK    2  A    between atoms: O_2  and  C_14
REMARK    3  A    between atoms: N_4  and  C_12
REMARK    4  A    between atoms: N_6  and  C_20
REMARK    5  A    between atoms: N_6  and  C_21
REMARK    6  A    between atoms: C_12  and  C_13
REMARK    7  A    between atoms: C_14  and  C_16
REMARK                            x       y       z     vdW  Elec       q    Type
REMARK                         _______ _______ _______ _____ _____    ______ ____
ROOT
ATOM      1  O   UNL     1       1.063   1.448  23.225  0.00  0.00    -0.376 OA
ATOM      4  N   UNL     1      -0.575  -0.009  25.444  0.00  0.00    -0.292 NA
ATOM      7  C   UNL     1      -1.046   1.361  25.675  0.00  0.00    +0.118 C 
ATOM      8  C   UNL     1      -0.530   2.464  24.738  0.00  0.00    +0.158 C 
ATOM      9  C   UNL     1      -0.413  -0.362  24.033  0.00  0.00    +0.113 C 
ATOM     10  C   UNL     1       0.933   2.319  24.343  0.00  0.00    +0.192 C 
ATOM     11  C   UNL     1       0.970   0.066  23.543  0.00  0.00    +0.175 C 
ENDROOT
BRANCH   8   2
ATOM      2  O   UNL     1      -0.686   3.719  25.403  0.00  0.00    -0.364 OA
BRANCH   2  14
ATOM     14  C   UNL     1      -1.799   4.436  24.894  0.00  0.00    +0.256 C 
BRANCH  14  16
ATOM      3  O   UNL     1      -3.193   4.301  26.805  0.00  0.00    -0.273 OA
ATOM      6  N   UNL     1      -4.005   3.287  24.880  0.00  0.00    -0.306 N 
ATOM     16  C   UNL     1      -3.059   4.001  25.614  0.00  0.00    +0.241 C 
ATOM     20  C   UNL     1      -5.238   2.854  25.528  0.00  0.00    +0.131 C 
ATOM     21  C   UNL     1      -3.888   2.929  23.468  0.00  0.00    +0.131 C 
ENDBRANCH  14  16
ENDBRANCH   2  14
ENDBRANCH   8   2
BRANCH   4  12
ATOM     12  C   UNL     1      -1.440  -0.963  26.140  0.00  0.00    +0.140 C 
BRANCH  12  13
ATOM      5  N   UNL     1      -2.554  -2.694  24.845  0.00  0.00    -0.259 NA
ATOM     13  C   UNL     1      -2.587  -1.413  25.275  0.00  0.00    +0.055 A 
ATOM     15  C   UNL     1      -3.598  -0.517  24.968  0.00  0.00    +0.024 A 
ATOM     17  C   UNL     1      -4.644  -0.965  24.169  0.00  0.00    +0.003 A 
ATOM     18  C   UNL     1      -3.588  -3.093  24.070  0.00  0.00    +0.111 A 
ATOM     19  C   UNL     1      -4.646  -2.276  23.707  0.00  0.00    +0.020 A 
ENDBRANCH  12  13
ENDBRANCH   4  12
TORSDOF 5
ENDMDL
MODEL 3
REMARK VINA RESULT:      -5.1      1.357      4.507
REMARK  Name = 75367803
REMARK  7 active torsions:
REMARK  status: ('A' for Active; 'I' for Inactive)
REMARK    1  A    between atoms: O_2  and  C_8
REMARK    2  A    between atoms: O_2  and  C_14
REMARK    3  A    between atoms: N_4  and  C_12
REMARK    4  A    between atoms: N_6  and  C_20
REMARK    5  A    between atoms: N_6  and  C_21
REMARK    6  A    between atoms: C_12  and  C_13
REMARK    7  A    between atoms: C_14  and  C_16
REMARK                            x       y       z     vdW  Elec       q    Type
REMARK                         _______ _______ _______ _____ _____    ______ ____
ROOT
ATOM      1  O   UNL     1      -2.127  -2.920  23.984  0.00  0.00    -0.376 OA
ATOM      4  N   UNL     1      -3.942  -0.696  25.204  0.00  0.00    -0.292 NA
ATOM      7  C   UNL     1      -2.684   0.055  25.124  0.00  0.00    +0.118 C 
ATOM      8  C   UNL     1      -1.467  -0.650  24.505  0.00  0.00    +0.158 C 
ATOM      9  C   UNL     1      -4.196  -1.571  24.059  0.00  0.00    +0.113 C 
ATOM     10  C   UNL     1      -1.343  -2.123  24.866  0.00  0.00    +0.192 C 
ATOM     11  C   UNL     1      -3.518  -2.924  24.275  0.00  0.00    +0.175 C 
ENDROOT
BRANCH   8   2
ATOM      2  O   UNL     1      -0.288   0.017  24.961  0.00  0.00    -0.364 OA
BRANCH   2  14
ATOM     14  C   UNL     1      -0.612   1.146  25.756  0.00  0.00    +0.256 C 
BRANCH  14  16
ATOM      3  O   UNL     1       0.579   2.349  24.097  0.00  0.00    -0.273 OA
ATOM      6  N   UNL     1      -0.889   3.593  25.398  0.00  0.00    -0.306 N 
ATOM     16  C   UNL     1      -0.251   2.415  25.010  0.00  0.00    +0.241 C 
ATOM     20  C   UNL     1      -0.581   4.837  24.704  0.00  0.00    +0.131 C 
ATOM     21  C   UNL     1      -1.885   3.705  26.460  0.00  0.00    +0.131 C 
ENDBRANCH  14  16
ENDBRANCH   2  14
ENDBRANCH   8   2
BRANCH   4  12
ATOM     12  C   UNL     1      -5.060   0.219  25.438  0.00  0.00    +0.140 C 
BRANCH  12  13
ATOM      5  N   UNL     1      -4.017   1.700  23.814  0.00  0.00    -0.259 NA
ATOM     13  C   UNL     1      -4.761   1.607  24.938  0.00  0.00    +0.055 A 
ATOM     15  C   UNL     1      -5.252   2.700  25.636  0.00  0.00    +0.024 A 
ATOM     17  C   UNL     1      -4.960   3.968  25.146  0.00  0.00    +0.003 A 
ATOM     18  C   UNL     1      -3.754   2.949  23.368  0.00  0.00    +0.111 A 
ATOM     19  C   UNL     1      -4.197   4.104  23.992  0.00  0.00    +0.020 A 
ENDBRANCH  12  13
ENDBRANCH   4  12
TORSDOF 5
ENDMDL
MODEL 4
REMARK VINA RESULT:      -4.8      2.036      4.147
REMARK  Name = 75367803
REMARK  7 active torsions:
REMARK  status: ('A' for Active; 'I' for Inactive)
REMARK    1  A    between atoms: O_2  and  C_8
REMARK    2  A    between atoms: O_2  and  C_14
REMARK    3  A    between atoms: N_4  and  C_12
REMARK    4  A    between atoms: N_6  and  C_20
REMARK    5  A    between atoms: N_6  and  C_21
REMARK    6  A    between atoms: C_12  and  C_13
REMARK    7  A    between atoms: C_14  and  C_16
REMARK                            x       y       z     vdW  Elec       q    Type
REMARK                         _______ _______ _______ _____ _____    ______ ____
ROOT
ATOM      1  O   UNL     1      -2.681   5.000  24.696  0.00  0.00    -0.376 OA
ATOM      4  N   UNL     1      -4.021   2.195  24.957  0.00  0.00    -0.292 NA
ATOM      7  C   UNL     1      -2.755   1.908  25.641  0.00  0.00    +0.118 C 
ATOM      8  C   UNL     1      -1.754   3.062  25.812  0.00  0.00    +0.158 C 
ATOM      9  C   UNL     1      -4.578   3.516  25.249  0.00  0.00    +0.113 C 
ATOM     10  C   UNL     1      -1.669   4.001  24.617  0.00  0.00    +0.192 C 
ATOM     11  C   UNL     1      -3.975   4.558  24.307  0.00  0.00    +0.175 C 
ENDROOT
BRANCH   8   2
ATOM      2  O   UNL     1      -0.459   2.498  26.023  0.00  0.00    -0.364 OA
BRANCH   2  14
ATOM     14  C   UNL     1      -0.393   1.165  25.541  0.00  0.00    +0.256 C 
BRANCH  14  16
ATOM      3  O   UNL     1       1.165   2.105  24.022  0.00  0.00    -0.273 OA
ATOM      6  N   UNL     1       0.498  -0.074  23.575  0.00  0.00    -0.306 N 
ATOM     16  C   UNL     1       0.491   1.111  24.311  0.00  0.00    +0.241 C 
ATOM     20  C   UNL     1       1.339  -0.177  22.390  0.00  0.00    +0.131 C 
ATOM     21  C   UNL     1      -0.272  -1.274  23.896  0.00  0.00    +0.131 C 
ENDBRANCH  14  16
ENDBRANCH   2  14
ENDBRANCH   8   2
BRANCH   4  12
ATOM     12  C   UNL     1      -4.990   1.132  25.226  0.00  0.00    +0.140 C 
BRANCH  12  13
ATOM      5  N   UNL     1      -3.751  -0.769  26.103  0.00  0.00    -0.259 NA
ATOM     13  C   UNL     1      -4.389  -0.235  25.037  0.00  0.00    +0.055 A 
ATOM     15  C   UNL     1      -4.515  -0.869  23.811  0.00  0.00    +0.024 A 
ATOM     17  C   UNL     1      -3.950  -2.132  23.671  0.00  0.00    +0.003 A 
ATOM     18  C   UNL     1      -3.215  -1.998  25.928  0.00  0.00    +0.111 A 
ATOM     19  C   UNL     1      -3.286  -2.714  24.744  0.00  0.00    +0.020 A 
ENDBRANCH  12  13
ENDBRANCH   4  12
TORSDOF 5
ENDMDL
MODEL 5
REMARK VINA RESULT:      -4.6      2.741      4.576
REMARK  Name = 75367803
REMARK  7 active torsions:
REMARK  status: ('A' for Active; 'I' for Inactive)
REMARK    1  A    between atoms: O_2  and  C_8
REMARK    2  A    between atoms: O_2  and  C_14
REMARK    3  A    between atoms: N_4  and  C_12
REMARK    4  A    between atoms: N_6  and  C_20
REMARK    5  A    between atoms: N_6  and  C_21
REMARK    6  A    between atoms: C_12  and  C_13
REMARK    7  A    between atoms: C_14  and  C_16
REMARK                            x       y       z     vdW  Elec       q    Type
REMARK                         _______ _______ _______ _____ _____    ______ ____
ROOT
ATOM      1  O   UNL     1      -1.403  -2.380  24.908  0.00  0.00    -0.376 OA
ATOM      4  N   UNL     1      -2.483   0.374  23.918  0.00  0.00    -0.292 NA
ATOM      7  C   UNL     1      -1.062   0.562  23.609  0.00  0.00    +0.118 C 
ATOM      8  C   UNL     1      -0.107  -0.610  23.885  0.00  0.00    +0.158 C 
ATOM      9  C   UNL     1      -2.989  -0.971  23.641  0.00  0.00    +0.113 C 
ATOM     10  C   UNL     1      -0.416  -1.385  25.158  0.00  0.00    +0.192 C 
ATOM     11  C   UNL     1      -2.733  -1.884  24.840  0.00  0.00    +0.175 C 
ENDROOT
BRANCH   8   2
ATOM      2  O   UNL     1       1.217  -0.086  23.997  0.00  0.00    -0.364 OA
BRANCH   2  14
ATOM     14  C   UNL     1       1.916  -0.186  22.767  0.00  0.00    +0.256 C 
BRANCH  14  16
ATOM      3  O   UNL     1       3.400   1.653  22.579  0.00  0.00    -0.273 OA
ATOM      6  N   UNL     1       4.322  -0.318  23.389  0.00  0.00    -0.306 N 
ATOM     16  C   UNL     1       3.278   0.466  22.899  0.00  0.00    +0.241 C 
ATOM     20  C   UNL     1       5.648   0.267  23.543  0.00  0.00    +0.131 C 
ATOM     21  C   UNL     1       4.212  -1.718  23.793  0.00  0.00    +0.131 C 
ENDBRANCH  14  16
ENDBRANCH   2  14
ENDBRANCH   8   2
BRANCH   4  12
ATOM     12  C   UNL     1      -3.285   1.397  23.246  0.00  0.00    +0.140 C 
BRANCH  12  13
ATOM      5  N   UNL     1      -3.825   3.455  24.426  0.00  0.00    -0.259 NA
ATOM     13  C   UNL     1      -4.148   2.159  24.216  0.00  0.00    +0.055 A 
ATOM     15  C   UNL     1      -5.208   1.514  24.834  0.00  0.00    +0.024 A 
ATOM     17  C   UNL     1      -5.987   2.247  25.722  0.00  0.00    +0.003 A 
ATOM     18  C   UNL     1      -4.604   4.135  25.296  0.00  0.00    +0.111 A 
ATOM     19  C   UNL     1      -5.686   3.583  25.964  0.00  0.00    +0.020 A 
ENDBRANCH  12  13
ENDBRANCH   4  12
TORSDOF 5
ENDMDL
MODEL 6
REMARK VINA RESULT:      -4.3      1.943      4.853
REMARK  Name = 75367803
REMARK  7 active torsions:
REMARK  status: ('A' for Active; 'I' for Inactive)
REMARK    1  A    between atoms: O_2  and  C_8
REMARK    2  A    between atoms: O_2  and  C_14
REMARK    3  A    between atoms: N_4  and  C_12
REMARK    4  A    between atoms: N_6  and  C_20
REMARK    5  A    between atoms: N_6  and  C_21
REMARK    6  A    between atoms: C_12  and  C_13
REMARK    7  A    between atoms: C_14  and  C_16
REMARK                            x       y       z     vdW  Elec       q    Type
REMARK                         _______ _______ _______ _____ _____    ______ ____
ROOT
ATOM      1  O   UNL     1      -0.625   4.055  24.997  0.00  0.00    -0.376 OA
ATOM      4  N   UNL     1      -0.718   0.938  24.998  0.00  0.00    -0.292 NA
ATOM      7  C   UNL     1      -1.671   1.194  23.913  0.00  0.00    +0.118 C 
ATOM      8  C   UNL     1      -1.913   2.655  23.501  0.00  0.00    +0.158 C 
ATOM      9  C   UNL     1       0.444   1.827  25.004  0.00  0.00    +0.113 C 
ATOM     10  C   UNL     1      -1.944   3.637  24.663  0.00  0.00    +0.192 C 
ATOM     11  C   UNL     1       0.114   3.113  25.762  0.00  0.00    +0.175 C 
ENDROOT
BRANCH   8   2
ATOM      2  O   UNL     1      -3.172   2.724  22.830  0.00  0.00    -0.364 OA
BRANCH   2  14
ATOM     14  C   UNL     1      -4.141   3.390  23.624  0.00  0.00    +0.256 C 
BRANCH  14  16
ATOM      3  O   UNL     1      -4.725   1.179  24.247  0.00  0.00    -0.273 OA
ATOM      6  N   UNL     1      -5.674   2.877  25.516  0.00  0.00    -0.306 N 
ATOM     16  C   UNL     1      -4.874   2.382  24.487  0.00  0.00    +0.241 C 
ATOM     20  C   UNL     1      -6.390   1.946  26.379  0.00  0.00    +0.131 C 
ATOM     21  C   UNL     1      -5.859   4.290  25.839  0.00  0.00    +0.131 C 
ENDBRANCH  14  16
ENDBRANCH   2  14
ENDBRANCH   8   2
BRANCH   4  12
ATOM     12  C   UNL     1      -0.316  -0.469  24.993  0.00  0.00    +0.140 C 
BRANCH  12  13
ATOM      5  N   UNL     1      -1.397  -2.425  24.031  0.00  0.00    -0.259 NA
ATOM     13  C   UNL     1      -1.503  -1.391  24.895  0.00  0.00    +0.055 A 
ATOM     15  C   UNL     1      -2.621  -1.143  25.676  0.00  0.00    +0.024 A 
ATOM     17  C   UNL     1      -3.698  -2.014  25.564  0.00  0.00    +0.003 A 
ATOM     18  C   UNL     1      -2.465  -3.250  23.949  0.00  0.00    +0.111 A 
ATOM     19  C   UNL     1      -3.628  -3.090  24.686  0.00  0.00    +0.020 A 
ENDBRANCH  12  13
ENDBRANCH   4  12
TORSDOF 5
ENDMDL
MODEL 7
REMARK VINA RESULT:      -4.2      2.328      4.930
REMARK  Name = 75367803
REMARK  7 active torsions:
REMARK  status: ('A' for Active; 'I' for Inactive)
REMARK    1  A    between atoms: O_2  and  C_8
REMARK    2  A    between atoms: O_2  and  C_14
REMARK    3  A    between atoms: N_4  and  C_12
REMARK    4  A    between atoms: N_6  and  C_20
REMARK    5  A    between atoms: N_6  and  C_21
REMARK    6  A    between atoms: C_12  and  C_13
REMARK    7  A    between atoms: C_14  and  C_16
REMARK                            x       y       z     vdW  Elec       q    Type
REMARK                         _______ _______ _______ _____ _____    ______ ____
ROOT
ATOM      1  O   UNL     1      -0.417   3.653  26.313  0.00  0.00    -0.376 OA
ATOM      4  N   UNL     1      -1.246   1.336  24.396  0.00  0.00    -0.292 NA
ATOM      7  C   UNL     1      -2.209   2.351  23.957  0.00  0.00    +0.118 C 
ATOM      8  C   UNL     1      -2.136   3.740  24.612  0.00  0.00    +0.158 C 
ATOM      9  C   UNL     1       0.089   1.859  24.691  0.00  0.00    +0.113 C 
ATOM     10  C   UNL     1      -1.823   3.716  26.101  0.00  0.00    +0.192 C 
ATOM     11  C   UNL     1       0.147   2.360  26.134  0.00  0.00    +0.175 C 
ENDROOT
BRANCH   8   2
ATOM      2  O   UNL     1      -3.401   4.380  24.437  0.00  0.00    -0.364 OA
BRANCH   2  14
ATOM     14  C   UNL     1      -4.416   3.438  24.129  0.00  0.00    +0.256 C 
BRANCH  14  16
ATOM      3  O   UNL     1      -5.912   4.377  25.709  0.00  0.00    -0.273 OA
ATOM      6  N   UNL     1      -5.646   2.072  25.806  0.00  0.00    -0.306 N 
ATOM     16  C   UNL     1      -5.389   3.341  25.287  0.00  0.00    +0.241 C 
ATOM     20  C   UNL     1      -6.582   1.927  26.914  0.00  0.00    +0.131 C 
ATOM     21  C   UNL     1      -5.060   0.825  25.322  0.00  0.00    +0.131 C 
ENDBRANCH  14  16
ENDBRANCH   2  14
ENDBRANCH   8   2
BRANCH   4  12
ATOM     12  C   UNL     1      -1.191   0.242  23.426  0.00  0.00    +0.140 C 
BRANCH  12  13
ATOM      5  N   UNL     1      -1.480  -1.871  24.597  0.00  0.00    -0.259 NA
ATOM     13  C   UNL     1      -2.061  -0.915  23.838  0.00  0.00    +0.055 A 
ATOM     15  C   UNL     1      -3.386  -0.947  23.431  0.00  0.00    +0.024 A 
ATOM     17  C   UNL     1      -4.164  -2.028  23.831  0.00  0.00    +0.003 A 
ATOM     18  C   UNL     1      -2.268  -2.907  24.966  0.00  0.00    +0.111 A 
ATOM     19  C   UNL     1      -3.601  -3.031  24.612  0.00  0.00    +0.020 A 
ENDBRANCH  12  13
ENDBRANCH   4  12
TORSDOF 5
ENDMDL
MODEL 8
REMARK VINA RESULT:      -3.9      2.768      4.794
REMARK  Name = 75367803
REMARK  7 active torsions:
REMARK  status: ('A' for Active; 'I' for Inactive)
REMARK    1  A    between atoms: O_2  and  C_8
REMARK    2  A    between atoms: O_2  and  C_14
REMARK    3  A    between atoms: N_4  and  C_12
REMARK    4  A    between atoms: N_6  and  C_20
REMARK    5  A    between atoms: N_6  and  C_21
REMARK    6  A    between atoms: C_12  and  C_13
REMARK    7  A    between atoms: C_14  and  C_16
REMARK                            x       y       z     vdW  Elec       q    Type
REMARK                         _______ _______ _______ _____ _____    ______ ____
ROOT
ATOM      1  O   UNL     1       0.364   2.827  25.624  0.00  0.00    -0.376 OA
ATOM      4  N   UNL     1      -2.287   1.728  24.401  0.00  0.00    -0.292 NA
ATOM      7  C   UNL     1      -1.330   0.936  23.621  0.00  0.00    +0.118 C 
ATOM      8  C   UNL     1       0.165   1.107  23.933  0.00  0.00    +0.158 C 
ATOM      9  C   UNL     1      -1.921   1.902  25.808  0.00  0.00    +0.113 C 
ATOM     10  C   UNL     1       0.581   2.537  24.247  0.00  0.00    +0.192 C 
ATOM     11  C   UNL     1      -0.989   3.105  25.959  0.00  0.00    +0.175 C 
ENDROOT
BRANCH   8   2
ATOM      2  O   UNL     1       0.909   0.672  22.793  0.00  0.00    -0.364 OA
BRANCH   2  14
ATOM     14  C   UNL     1       1.911  -0.263  23.159  0.00  0.00    +0.256 C 
BRANCH  14  16
ATOM      3  O   UNL     1       3.341   1.580  22.745  0.00  0.00    -0.273 OA
ATOM      6  N   UNL     1       4.380  -0.375  23.448  0.00  0.00    -0.306 N 
ATOM     16  C   UNL     1       3.273   0.397  23.095  0.00  0.00    +0.241 C 
ATOM     20  C   UNL     1       5.710   0.220  23.411  0.00  0.00    +0.131 C 
ATOM     21  C   UNL     1       4.335  -1.769  23.883  0.00  0.00    +0.131 C 
ENDBRANCH  14  16
ENDBRANCH   2  14
ENDBRANCH   8   2
BRANCH   4  12
ATOM     12  C   UNL     1      -3.632   1.170  24.263  0.00  0.00    +0.140 C 
BRANCH  12  13
ATOM      5  N   UNL     1      -3.179  -0.764  25.668  0.00  0.00    -0.259 NA
ATOM     13  C   UNL     1      -3.646  -0.320  24.480  0.00  0.00    +0.055 A 
ATOM     15  C   UNL     1      -4.125  -1.148  23.476  0.00  0.00    +0.024 A 
ATOM     17  C   UNL     1      -4.126  -2.519  23.709  0.00  0.00    +0.003 A 
ATOM     18  C   UNL     1      -3.195  -2.103  25.858  0.00  0.00    +0.111 A 
ATOM     19  C   UNL     1      -3.654  -3.014  24.920  0.00  0.00    +0.020 A 
ENDBRANCH  12  13
ENDBRANCH   4  12
TORSDOF 5
ENDMDL
MODEL 9
REMARK VINA RESULT:      -3.8      2.286      4.498
REMARK  Name = 75367803
REMARK  7 active torsions:
REMARK  status: ('A' for Active; 'I' for Inactive)
REMARK    1  A    between atoms: O_2  and  C_8
REMARK    2  A    between atoms: O_2  and  C_14
REMARK    3  A    between atoms: N_4  and  C_12
REMARK    4  A    between atoms: N_6  and  C_20
REMARK    5  A    between atoms: N_6  and  C_21
REMARK    6  A    between atoms: C_12  and  C_13
REMARK    7  A    between atoms: C_14  and  C_16
REMARK                            x       y       z     vdW  Elec       q    Type
REMARK                         _______ _______ _______ _____ _____    ______ ____
ROOT
ATOM      1  O   UNL     1      -4.363   4.598  25.522  0.00  0.00    -0.376 OA
ATOM      4  N   UNL     1      -1.684   3.020  25.776  0.00  0.00    -0.292 NA
ATOM      7  C   UNL     1      -2.381   2.137  24.835  0.00  0.00    +0.118 C 
ATOM      8  C   UNL     1      -3.779   2.560  24.355  0.00  0.00    +0.158 C 
ATOM      9  C   UNL     1      -1.896   4.448  25.533  0.00  0.00    +0.113 C 
ATOM     10  C   UNL     1      -4.642   3.205  25.430  0.00  0.00    +0.192 C 
ATOM     11  C   UNL     1      -3.173   4.913  26.233  0.00  0.00    +0.175 C 
ENDROOT
BRANCH   8   2
ATOM      2  O   UNL     1      -4.458   1.394  23.885  0.00  0.00    -0.364 OA
BRANCH   2  14
ATOM     14  C   UNL     1      -4.531   0.399  24.894  0.00  0.00    +0.256 C 
BRANCH  14  16
ATOM      3  O   UNL     1      -4.288  -1.161  23.126  0.00  0.00    -0.273 OA
ATOM      6  N   UNL     1      -3.489  -1.840  25.198  0.00  0.00    -0.306 N 
ATOM     16  C   UNL     1      -4.096  -0.936  24.326  0.00  0.00    +0.241 C 
ATOM     20  C   UNL     1      -3.044  -3.133  24.696  0.00  0.00    +0.131 C 
ATOM     21  C   UNL     1      -3.230  -1.602  26.617  0.00  0.00    +0.131 C 
ENDBRANCH  14  16
ENDBRANCH   2  14
ENDBRANCH   8   2
BRANCH   4  12
ATOM     12  C   UNL     1      -0.259   2.689  25.816  0.00  0.00    +0.140 C 
BRANCH  12  13
ATOM      5  N   UNL     1       1.033   1.766  23.973  0.00  0.00    -0.259 NA
ATOM     13  C   UNL     1       0.075   1.542  24.900  0.00  0.00    +0.055 A 
ATOM     15  C   UNL     1      -0.597   0.338  25.045  0.00  0.00    +0.024 A 
ATOM     17  C   UNL     1      -0.263  -0.701  24.185  0.00  0.00    +0.003 A 
ATOM     18  C   UNL     1       1.331   0.732  23.155  0.00  0.00    +0.111 A 
ATOM     19  C   UNL     1       0.718  -0.509  23.218  0.00  0.00    +0.020 A 
ENDBRANCH  12  13
ENDBRANCH   4  12
TORSDOF 5
ENDMDL
MODEL 10
REMARK VINA RESULT:      -3.5      2.965      4.347
REMARK  Name = 75367803
REMARK  7 active torsions:
REMARK  status: ('A' for Active; 'I' for Inactive)
REMARK    1  A    between atoms: O_2  and  C_8
REMARK    2  A    between atoms: O_2  and  C_14
REMARK    3  A    between atoms: N_4  and  C_12
REMARK    4  A    between atoms: N_6  and  C_20
REMARK    5  A    between atoms: N_6  and  C_21
REMARK    6  A    between atoms: C_12  and  C_13
REMARK    7  A    between atoms: C_14  and  C_16
REMARK                            x       y       z     vdW  Elec       q    Type
REMARK                         _______ _______ _______ _____ _____    ______ ____
ROOT
ATOM      1  O   UNL     1       0.821   2.078  25.558  0.00  0.00    -0.376 OA
ATOM      4  N   UNL     1      -1.879   1.175  24.284  0.00  0.00    -0.292 NA
ATOM      7  C   UNL     1      -0.957   0.513  23.356  0.00  0.00    +0.118 C 
ATOM      8  C   UNL     1       0.550   0.636  23.633  0.00  0.00    +0.158 C 
ATOM      9  C   UNL     1      -1.459   1.133  25.686  0.00  0.00    +0.113 C 
ATOM     10  C   UNL     1       0.985   2.002  24.146  0.00  0.00    +0.192 C 
ATOM     11  C   UNL     1      -0.517   2.299  25.983  0.00  0.00    +0.175 C 
ENDROOT
BRANCH   8   2
ATOM      2  O   UNL     1       1.248   0.380  22.412  0.00  0.00    -0.364 OA
BRANCH   2  14
ATOM     14  C   UNL     1       2.333  -0.509  22.617  0.00  0.00    +0.256 C 
BRANCH  14  16
ATOM      3  O   UNL     1       3.655   1.446  22.396  0.00  0.00    -0.273 OA
ATOM      6  N   UNL     1       4.672  -0.354  23.453  0.00  0.00    -0.306 N 
ATOM     16  C   UNL     1       3.612   0.282  22.808  0.00  0.00    +0.241 C 
ATOM     20  C   UNL     1       5.919   0.369  23.668  0.00  0.00    +0.131 C 
ATOM     21  C   UNL     1       4.651  -1.721  23.968  0.00  0.00    +0.131 C 
ENDBRANCH  14  16
ENDBRANCH   2  14
ENDBRANCH   8   2
BRANCH   4  12
ATOM     12  C   UNL     1      -3.232   0.643  24.115  0.00  0.00    +0.140 C 
BRANCH  12  13
ATOM      5  N   UNL     1      -5.318   0.965  25.325  0.00  0.00    -0.259 NA
ATOM     13  C   UNL     1      -4.272   1.557  24.706  0.00  0.00    +0.055 A 
ATOM     15  C   UNL     1      -4.113   2.930  24.594  0.00  0.00    +0.024 A 
ATOM     17  C   UNL     1      -5.089   3.745  25.154  0.00  0.00    +0.003 A 
ATOM     18  C   UNL     1      -6.247   1.791  25.856  0.00  0.00    +0.111 A 
ATOM     19  C   UNL     1      -6.180   3.173  25.799  0.00  0.00    +0.020 A 
ENDBRANCH  12  13
ENDBRANCH   4  12
TORSDOF 5
ENDMDL
