MODEL 1
REMARK VINA RESULT:       3.9      0.000      0.000
REMARK  Name = 26742476
REMARK  12 active torsions:
REMARK  status: ('A' for Active; 'I' for Inactive)
REMARK    1  A    between atoms: N_3  and  C_14
REMARK    2  A    between atoms: N_6  and  C_30
REMARK    3  A    between atoms: N_6  and  C_31
REMARK    4  A    between atoms: N_6  and  C_32
REMARK    5  A    between atoms: C_8  and  C_15
REMARK    6  A    between atoms: C_9  and  C_14
REMARK    7  A    between atoms: C_17  and  C_19
REMARK    8  A    between atoms: C_18  and  C_21
REMARK    9  A    between atoms: C_19  and  C_22
REMARK   10  A    between atoms: C_19  and  C_23
REMARK   11  A    between atoms: C_19  and  C_24
REMARK   12  A    between atoms: C_20  and  C_25
REMARK                            x       y       z     vdW  Elec       q    Type
REMARK                         _______ _______ _______ _____ _____    ______ ____
ROOT
ATOM      2  N   UNL     1      -4.780   3.171  25.851  0.00  0.00    -0.297 NA
ATOM      7  C   UNL     1      -5.876   0.862  25.351  0.00  0.00    +0.002 C 
ATOM      8  C   UNL     1      -4.448   0.672  25.933  0.00  0.00    +0.055 C 
ATOM      9  C   UNL     1      -5.330   3.158  24.470  0.00  0.00    +0.074 C 
ATOM     10  C   UNL     1      -5.797   1.739  24.083  0.00  0.00    +0.024 C 
ATOM     11  C   UNL     1      -6.683   1.655  26.401  0.00  0.00    +0.019 C 
ATOM     12  C   UNL     1      -3.789   2.079  26.013  0.00  0.00    +0.094 C 
ATOM     13  C   UNL     1      -5.901   2.923  26.788  0.00  0.00    +0.085 C 
ENDROOT
BRANCH   8  15
ATOM      4  N   UNL     1      -4.081  -1.557  24.992  0.00  0.00    -0.237 NA
ATOM      5  N   UNL     1      -1.948  -2.240  24.104  0.00  0.00    -0.232 NA
ATOM     15  C   UNL     1      -3.536  -0.356  25.277  0.00  0.00    +0.050 A 
ATOM     16  C   UNL     1      -2.223  -0.027  25.010  0.00  0.00    +0.052 A 
ATOM     18  C   UNL     1      -1.467  -1.019  24.417  0.00  0.00    +0.075 A 
ATOM     20  C   UNL     1      -3.244  -2.438  24.415  0.00  0.00    +0.127 A 
ATOM     25  C   UNL     1      -3.810  -3.778  24.086  0.00  0.00    +0.088 C 
BRANCH  18  21
ATOM     21  C   UNL     1      -0.079  -0.802  24.088  0.00  0.00    +0.001 A 
ATOM     26  C   UNL     1       0.294   0.314  23.337  0.00  0.00    +0.012 A 
ATOM     27  C   UNL     1       0.890  -1.708  24.520  0.00  0.00    +0.012 A 
ATOM     28  C   UNL     1       1.636   0.522  23.019  0.00  0.00    +0.024 A 
ATOM     29  C   UNL     1       2.231  -1.498  24.201  0.00  0.00    +0.024 A 
ATOM     30  C   UNL     1       2.604  -0.383  23.452  0.00  0.00    +0.029 A 
BRANCH  30   6
ATOM      6  N   UNL     1       3.961  -0.172  23.129  0.00  0.00    -0.336 N 
ATOM     31  C   UNL     1       4.995  -0.986  23.737  0.00  0.00    +0.129 C 
ATOM     32  C   UNL     1       4.340   0.867  22.192  0.00  0.00    +0.129 C 
ENDBRANCH  30   6
ENDBRANCH  18  21
ENDBRANCH   8  15
BRANCH   9  14
ATOM     14  C   UNL     1      -4.350   3.735  23.446  0.00  0.00    +0.123 C 
BRANCH  14   3
ATOM      1  O   UNL     1      -1.875   2.362  23.111  0.00  0.00    -0.275 OA
ATOM      3  N   UNL     1      -3.104   4.071  24.064  0.00  0.00    -0.313 N 
ATOM     17  C   UNL     1      -1.932   3.346  23.849  0.00  0.00    +0.218 C 
ATOM     33  H   UNL     1      -3.088   4.875  24.684  0.00  0.00    +0.149 HD
BRANCH  17  19
ATOM     19  C   UNL     1      -0.698   3.877  24.609  0.00  0.00    +0.039 C 
ATOM     22  C   UNL     1      -0.384   2.967  25.806  0.00  0.00    +0.020 C 
ATOM     23  C   UNL     1      -0.995   5.294  25.135  0.00  0.00    +0.020 C 
ATOM     24  C   UNL     1       0.512   3.949  23.666  0.00  0.00    +0.020 C 
ENDBRANCH  17  19
ENDBRANCH  14   3
ENDBRANCH   9  14
TORSDOF 6
ENDMDL
MODEL 2
REMARK VINA RESULT:       5.0      1.038      1.634
REMARK  Name = 26742476
REMARK  12 active torsions:
REMARK  status: ('A' for Active; 'I' for Inactive)
REMARK    1  A    between atoms: N_3  and  C_14
REMARK    2  A    between atoms: N_6  and  C_30
REMARK    3  A    between atoms: N_6  and  C_31
REMARK    4  A    between atoms: N_6  and  C_32
REMARK    5  A    between atoms: C_8  and  C_15
REMARK    6  A    between atoms: C_9  and  C_14
REMARK    7  A    between atoms: C_17  and  C_19
REMARK    8  A    between atoms: C_18  and  C_21
REMARK    9  A    between atoms: C_19  and  C_22
REMARK   10  A    between atoms: C_19  and  C_23
REMARK   11  A    between atoms: C_19  and  C_24
REMARK   12  A    between atoms: C_20  and  C_25
REMARK                            x       y       z     vdW  Elec       q    Type
REMARK                         _______ _______ _______ _____ _____    ______ ____
ROOT
ATOM      2  N   UNL     1      -4.566   3.179  25.793  0.00  0.00    -0.297 NA
ATOM      7  C   UNL     1      -5.687   1.321  24.353  0.00  0.00    +0.002 C 
ATOM      8  C   UNL     1      -4.668   0.698  25.347  0.00  0.00    +0.055 C 
ATOM      9  C   UNL     1      -4.498   3.541  24.353  0.00  0.00    +0.074 C 
ATOM     10  C   UNL     1      -4.968   2.364  23.472  0.00  0.00    +0.024 C 
ATOM     11  C   UNL     1      -6.728   2.083  25.201  0.00  0.00    +0.019 C 
ATOM     12  C   UNL     1      -3.902   1.872  26.020  0.00  0.00    +0.094 C 
ATOM     13  C   UNL     1      -5.997   3.040  26.158  0.00  0.00    +0.085 C 
ENDROOT
BRANCH   8  15
ATOM      4  N   UNL     1      -4.263  -1.607  24.632  0.00  0.00    -0.237 NA
ATOM      5  N   UNL     1      -2.093  -2.363  23.907  0.00  0.00    -0.232 NA
ATOM     15  C   UNL     1      -3.730  -0.383  24.829  0.00  0.00    +0.050 A 
ATOM     16  C   UNL     1      -2.405  -0.077  24.592  0.00  0.00    +0.052 A 
ATOM     18  C   UNL     1      -1.625  -1.116  24.127  0.00  0.00    +0.075 A 
ATOM     20  C   UNL     1      -3.401  -2.535  24.177  0.00  0.00    +0.127 A 
ATOM     25  C   UNL     1      -3.954  -3.901  23.947  0.00  0.00    +0.088 C 
BRANCH  18  21
ATOM     21  C   UNL     1      -0.223  -0.927  23.840  0.00  0.00    +0.001 A 
ATOM     26  C   UNL     1       0.740  -1.585  24.607  0.00  0.00    +0.012 A 
ATOM     27  C   UNL     1       0.169  -0.089  22.797  0.00  0.00    +0.012 A 
ATOM     28  C   UNL     1       2.094  -1.402  24.331  0.00  0.00    +0.024 A 
ATOM     29  C   UNL     1       1.524   0.092  22.521  0.00  0.00    +0.024 A 
ATOM     30  C   UNL     1       2.486  -0.565  23.287  0.00  0.00    +0.029 A 
BRANCH  30   6
ATOM      6  N   UNL     1       3.856  -0.380  23.008  0.00  0.00    -0.336 N 
ATOM     31  C   UNL     1       4.862  -1.125  23.740  0.00  0.00    +0.129 C 
ATOM     32  C   UNL     1       4.278   0.564  21.992  0.00  0.00    +0.129 C 
ENDBRANCH  30   6
ENDBRANCH  18  21
ENDBRANCH   8  15
BRANCH   9  14
ATOM     14  C   UNL     1      -3.111   4.042  23.943  0.00  0.00    +0.123 C 
BRANCH  14   3
ATOM      1  O   UNL     1      -0.906   4.920  25.521  0.00  0.00    -0.275 OA
ATOM      3  N   UNL     1      -2.084   3.215  24.499  0.00  0.00    -0.313 N 
ATOM     17  C   UNL     1      -1.034   3.723  25.264  0.00  0.00    +0.218 C 
ATOM     33  H   UNL     1      -2.137   2.217  24.322  0.00  0.00    +0.149 HD
BRANCH  17  19
ATOM     19  C   UNL     1      -0.036   2.660  25.771  0.00  0.00    +0.039 C 
ATOM     22  C   UNL     1       0.948   2.284  24.654  0.00  0.00    +0.020 C 
ATOM     23  C   UNL     1      -0.808   1.395  26.191  0.00  0.00    +0.020 C 
ATOM     24  C   UNL     1       0.728   3.195  26.993  0.00  0.00    +0.020 C 
ENDBRANCH  17  19
ENDBRANCH  14   3
ENDBRANCH   9  14
TORSDOF 6
ENDMDL
MODEL 3
REMARK VINA RESULT:       6.7      1.926      4.291
REMARK  Name = 26742476
REMARK  12 active torsions:
REMARK  status: ('A' for Active; 'I' for Inactive)
REMARK    1  A    between atoms: N_3  and  C_14
REMARK    2  A    between atoms: N_6  and  C_30
REMARK    3  A    between atoms: N_6  and  C_31
REMARK    4  A    between atoms: N_6  and  C_32
REMARK    5  A    between atoms: C_8  and  C_15
REMARK    6  A    between atoms: C_9  and  C_14
REMARK    7  A    between atoms: C_17  and  C_19
REMARK    8  A    between atoms: C_18  and  C_21
REMARK    9  A    between atoms: C_19  and  C_22
REMARK   10  A    between atoms: C_19  and  C_23
REMARK   11  A    between atoms: C_19  and  C_24
REMARK   12  A    between atoms: C_20  and  C_25
REMARK                            x       y       z     vdW  Elec       q    Type
REMARK                         _______ _______ _______ _____ _____    ______ ____
ROOT
ATOM      2  N   UNL     1      -3.596  -1.973  25.808  0.00  0.00    -0.297 NA
ATOM      7  C   UNL     1      -2.869  -1.521  23.348  0.00  0.00    +0.002 C 
ATOM      8  C   UNL     1      -1.634  -1.509  24.291  0.00  0.00    +0.055 C 
ATOM      9  C   UNL     1      -4.440  -0.901  25.217  0.00  0.00    +0.074 C 
ATOM     10  C   UNL     1      -3.894  -0.476  23.837  0.00  0.00    +0.024 C 
ATOM     11  C   UNL     1      -3.529  -2.908  23.496  0.00  0.00    +0.019 C 
ATOM     12  C   UNL     1      -2.166  -1.582  25.751  0.00  0.00    +0.094 C 
ATOM     13  C   UNL     1      -3.775  -3.195  24.987  0.00  0.00    +0.085 C 
ENDROOT
BRANCH   8  15
ATOM      4  N   UNL     1      -1.053   0.864  24.151  0.00  0.00    -0.237 NA
ATOM      5  N   UNL     1       1.207   1.612  23.779  0.00  0.00    -0.232 NA
ATOM     15  C   UNL     1      -0.601  -0.407  24.107  0.00  0.00    +0.050 A 
ATOM     16  C   UNL     1       0.723  -0.742  23.906  0.00  0.00    +0.052 A 
ATOM     18  C   UNL     1       1.591   0.319  23.746  0.00  0.00    +0.075 A 
ATOM     20  C   UNL     1      -0.110   1.809  23.983  0.00  0.00    +0.127 A 
ATOM     25  C   UNL     1      -0.572   3.226  24.024  0.00  0.00    +0.088 C 
BRANCH  18  21
ATOM     21  C   UNL     1       3.001   0.103  23.527  0.00  0.00    +0.001 A 
ATOM     26  C   UNL     1       3.779   1.107  22.949  0.00  0.00    +0.012 A 
ATOM     27  C   UNL     1       3.586  -1.109  23.894  0.00  0.00    +0.012 A 
ATOM     28  C   UNL     1       5.141   0.898  22.737  0.00  0.00    +0.024 A 
ATOM     29  C   UNL     1       4.949  -1.317  23.682  0.00  0.00    +0.024 A 
ATOM     30  C   UNL     1       5.726  -0.313  23.105  0.00  0.00    +0.029 A 
BRANCH  30   6
ATOM      6  N   UNL     1       7.104  -0.524  22.890  0.00  0.00    -0.336 N 
ATOM     31  C   UNL     1       7.558  -1.618  22.054  0.00  0.00    +0.129 C 
ATOM     32  C   UNL     1       8.085   0.345  23.508  0.00  0.00    +0.129 C 
ENDBRANCH  30   6
ENDBRANCH  18  21
ENDBRANCH   8  15
BRANCH   9  14
ATOM     14  C   UNL     1      -4.608   0.294  26.158  0.00  0.00    +0.123 C 
BRANCH  14   3
ATOM      1  O   UNL     1      -5.841   2.842  26.484  0.00  0.00    -0.275 OA
ATOM      3  N   UNL     1      -4.223   1.511  25.511  0.00  0.00    -0.313 N 
ATOM     17  C   UNL     1      -4.880   2.722  25.724  0.00  0.00    +0.218 C 
ATOM     33  H   UNL     1      -3.435   1.475  24.872  0.00  0.00    +0.149 HD
BRANCH  17  19
ATOM     19  C   UNL     1      -4.304   3.915  24.930  0.00  0.00    +0.039 C 
ATOM     22  C   UNL     1      -3.968   3.480  23.496  0.00  0.00    +0.020 C 
ATOM     23  C   UNL     1      -3.012   4.403  25.611  0.00  0.00    +0.020 C 
ATOM     24  C   UNL     1      -5.314   5.073  24.911  0.00  0.00    +0.020 C 
ENDBRANCH  17  19
ENDBRANCH  14   3
ENDBRANCH   9  14
TORSDOF 6
ENDMDL
