MODEL 1
REMARK VINA RESULT:      -5.5      0.000      0.000
REMARK  Name = 7161676
REMARK  6 active torsions:
REMARK  status: ('A' for Active; 'I' for Inactive)
REMARK    1  A    between atoms: S_1  and  N_7
REMARK    2  A    between atoms: S_1  and  C_15
REMARK    3  A    between atoms: O_2  and  C_13
REMARK    4  A    between atoms: O_2  and  C_17
REMARK    5  A    between atoms: C_9  and  C_13
REMARK    6  A    between atoms: C_14  and  C_16
REMARK                            x       y       z     vdW  Elec       q    Type
REMARK                         _______ _______ _______ _____ _____    ______ ____
ROOT
ATOM      6  O   UNL     1       0.708  -0.570  23.535  0.00  0.00    -0.276 OA
ATOM      7  N   UNL     1      -3.287   2.048  25.062  0.00  0.00    -0.165 NA
ATOM      8  N   UNL     1      -1.393   0.010  24.347  0.00  0.00    -0.298 N 
ATOM      9  C   UNL     1      -2.102   2.397  24.228  0.00  0.00    +0.205 C 
ATOM     10  C   UNL     1      -1.505   1.197  23.498  0.00  0.00    +0.139 C 
ATOM     11  C   UNL     1      -3.722   0.631  24.962  0.00  0.00    +0.129 C 
ATOM     12  C   UNL     1      -2.529  -0.278  25.228  0.00  0.00    +0.125 C 
ATOM     14  C   UNL     1      -0.256  -0.797  24.269  0.00  0.00    +0.213 C 
ATOM     16  C   UNL     1      -0.249  -2.019  25.156  0.00  0.00    +0.109 C 
ENDROOT
BRANCH   7   1
ATOM      1  S   UNL     1      -4.535   3.213  25.149  0.00  0.00    +0.030 S 
ATOM      3  O   UNL     1      -4.482   4.041  23.964  0.00  0.00    -0.158 OA
ATOM      4  O   UNL     1      -4.546   3.788  26.477  0.00  0.00    -0.158 OA
ATOM     15  C   UNL     1      -5.939   2.138  25.005  0.00  0.00    +0.215 C 
ENDBRANCH   7   1
BRANCH   9  13
ATOM      5  O   UNL     1      -0.820   2.459  26.261  0.00  0.00    -0.249 OA
ATOM     13  C   UNL     1      -1.125   2.981  25.198  0.00  0.00    +0.327 C 
BRANCH  13   2
ATOM      2  O   UNL     1      -0.648   4.161  24.710  0.00  0.00    -0.467 OA
ATOM     17  C   UNL     1      -1.392   5.326  25.082  0.00  0.00    +0.280 C 
ENDBRANCH  13   2
ENDBRANCH   9  13
TORSDOF 3
ENDMDL
MODEL 2
REMARK VINA RESULT:      -4.7     16.157     17.609
REMARK  Name = 7161676
REMARK  6 active torsions:
REMARK  status: ('A' for Active; 'I' for Inactive)
REMARK    1  A    between atoms: S_1  and  N_7
REMARK    2  A    between atoms: S_1  and  C_15
REMARK    3  A    between atoms: O_2  and  C_13
REMARK    4  A    between atoms: O_2  and  C_17
REMARK    5  A    between atoms: C_9  and  C_13
REMARK    6  A    between atoms: C_14  and  C_16
REMARK                            x       y       z     vdW  Elec       q    Type
REMARK                         _______ _______ _______ _____ _____    ______ ____
ROOT
ATOM      6  O   UNL     1      17.185   6.921  19.615  0.00  0.00    -0.276 OA
ATOM      7  N   UNL     1      12.420   7.943  20.797  0.00  0.00    -0.165 NA
ATOM      8  N   UNL     1      15.278   7.665  20.720  0.00  0.00    -0.298 N 
ATOM      9  C   UNL     1      13.047   6.992  19.836  0.00  0.00    +0.205 C 
ATOM     10  C   UNL     1      14.449   6.554  20.249  0.00  0.00    +0.139 C 
ATOM     11  C   UNL     1      13.227   8.220  22.014  0.00  0.00    +0.129 C 
ATOM     12  C   UNL     1      14.629   8.644  21.597  0.00  0.00    +0.125 C 
ATOM     14  C   UNL     1      16.623   7.735  20.351  0.00  0.00    +0.213 C 
ATOM     16  C   UNL     1      17.405   8.897  20.916  0.00  0.00    +0.109 C 
ENDROOT
BRANCH   7   1
ATOM      1  S   UNL     1      10.732   7.798  21.031  0.00  0.00    +0.030 S 
ATOM      3  O   UNL     1      10.443   6.468  21.521  0.00  0.00    -0.158 OA
ATOM      4  O   UNL     1      10.052   8.349  19.879  0.00  0.00    -0.158 OA
ATOM     15  C   UNL     1      10.534   8.934  22.380  0.00  0.00    +0.215 C 
ENDBRANCH   7   1
BRANCH   9  13
ATOM      5  O   UNL     1      13.832   8.665  18.298  0.00  0.00    -0.249 OA
ATOM     13  C   UNL     1      13.072   7.737  18.540  0.00  0.00    +0.327 C 
BRANCH  13   2
ATOM      2  O   UNL     1      12.131   7.221  17.699  0.00  0.00    -0.467 OA
ATOM     17  C   UNL     1      11.408   8.182  16.922  0.00  0.00    +0.280 C 
ENDBRANCH  13   2
ENDBRANCH   9  13
TORSDOF 3
ENDMDL
MODEL 3
REMARK VINA RESULT:      -4.6      1.829      1.990
REMARK  Name = 7161676
REMARK  6 active torsions:
REMARK  status: ('A' for Active; 'I' for Inactive)
REMARK    1  A    between atoms: S_1  and  N_7
REMARK    2  A    between atoms: S_1  and  C_15
REMARK    3  A    between atoms: O_2  and  C_13
REMARK    4  A    between atoms: O_2  and  C_17
REMARK    5  A    between atoms: C_9  and  C_13
REMARK    6  A    between atoms: C_14  and  C_16
REMARK                            x       y       z     vdW  Elec       q    Type
REMARK                         _______ _______ _______ _____ _____    ______ ____
ROOT
ATOM      6  O   UNL     1      -1.694  -2.581  23.699  0.00  0.00    -0.276 OA
ATOM      7  N   UNL     1      -3.411   1.909  25.128  0.00  0.00    -0.165 NA
ATOM      8  N   UNL     1      -3.073  -0.859  24.439  0.00  0.00    -0.298 N 
ATOM      9  C   UNL     1      -2.214   1.479  24.353  0.00  0.00    +0.205 C 
ATOM     10  C   UNL     1      -2.414   0.156  23.617  0.00  0.00    +0.139 C 
ATOM     11  C   UNL     1      -4.600   1.029  24.973  0.00  0.00    +0.129 C 
ATOM     12  C   UNL     1      -4.197  -0.410  25.265  0.00  0.00    +0.125 C 
ATOM     14  C   UNL     1      -2.637  -2.186  24.387  0.00  0.00    +0.213 C 
ATOM     16  C   UNL     1      -3.402  -3.168  25.242  0.00  0.00    +0.109 C 
ENDROOT
BRANCH   7   1
ATOM      1  S   UNL     1      -3.723   3.588  25.193  0.00  0.00    +0.030 S 
ATOM      3  O   UNL     1      -3.574   4.141  23.865  0.00  0.00    -0.158 OA
ATOM      4  O   UNL     1      -3.027   4.148  26.331  0.00  0.00    -0.158 OA
ATOM     15  C   UNL     1      -5.454   3.543  25.577  0.00  0.00    +0.215 C 
ENDBRANCH   7   1
BRANCH   9  13
ATOM      5  O   UNL     1      -0.969   0.399  26.103  0.00  0.00    -0.249 OA
ATOM     13  C   UNL     1      -1.129   1.370  25.376  0.00  0.00    +0.327 C 
BRANCH  13   2
ATOM      2  O   UNL     1      -0.373   2.503  25.361  0.00  0.00    -0.467 OA
ATOM     17  C   UNL     1       0.334   2.787  26.574  0.00  0.00    +0.280 C 
ENDBRANCH  13   2
ENDBRANCH   9  13
TORSDOF 3
ENDMDL
MODEL 4
REMARK VINA RESULT:      -4.6      2.675      4.689
REMARK  Name = 7161676
REMARK  6 active torsions:
REMARK  status: ('A' for Active; 'I' for Inactive)
REMARK    1  A    between atoms: S_1  and  N_7
REMARK    2  A    between atoms: S_1  and  C_15
REMARK    3  A    between atoms: O_2  and  C_13
REMARK    4  A    between atoms: O_2  and  C_17
REMARK    5  A    between atoms: C_9  and  C_13
REMARK    6  A    between atoms: C_14  and  C_16
REMARK                            x       y       z     vdW  Elec       q    Type
REMARK                         _______ _______ _______ _____ _____    ______ ____
ROOT
ATOM      6  O   UNL     1      -2.709   4.675  23.821  0.00  0.00    -0.276 OA
ATOM      7  N   UNL     1      -2.901  -0.248  24.760  0.00  0.00    -0.165 NA
ATOM      8  N   UNL     1      -2.133   2.497  24.403  0.00  0.00    -0.298 N 
ATOM      9  C   UNL     1      -3.784   0.675  23.992  0.00  0.00    +0.205 C 
ATOM     10  C   UNL     1      -3.046   1.890  23.434  0.00  0.00    +0.139 C 
ATOM     11  C   UNL     1      -1.463   0.129  24.766  0.00  0.00    +0.129 C 
ATOM     12  C   UNL     1      -1.330   1.579  25.215  0.00  0.00    +0.125 C 
ATOM     14  C   UNL     1      -2.041   3.888  24.496  0.00  0.00    +0.213 C 
ATOM     16  C   UNL     1      -1.045   4.421  25.498  0.00  0.00    +0.109 C 
ENDROOT
BRANCH   7   1
ATOM      1  S   UNL     1      -3.239  -1.919  24.631  0.00  0.00    +0.030 S 
ATOM      3  O   UNL     1      -4.156  -2.125  23.532  0.00  0.00    -0.158 OA
ATOM      4  O   UNL     1      -3.506  -2.444  25.953  0.00  0.00    -0.158 OA
ATOM     15  C   UNL     1      -1.639  -2.495  24.126  0.00  0.00    +0.215 C 
ENDBRANCH   7   1
BRANCH   9  13
ATOM      5  O   UNL     1      -5.129   0.439  25.971  0.00  0.00    -0.249 OA
ATOM     13  C   UNL     1      -4.835   1.084  24.974  0.00  0.00    +0.327 C 
BRANCH  13   2
ATOM      2  O   UNL     1      -5.394   2.263  24.578  0.00  0.00    -0.467 OA
ATOM     17  C   UNL     1      -5.563   3.240  25.611  0.00  0.00    +0.280 C 
ENDBRANCH  13   2
ENDBRANCH   9  13
TORSDOF 3
ENDMDL
MODEL 5
REMARK VINA RESULT:      -4.3      2.534      4.796
REMARK  Name = 7161676
REMARK  6 active torsions:
REMARK  status: ('A' for Active; 'I' for Inactive)
REMARK    1  A    between atoms: S_1  and  N_7
REMARK    2  A    between atoms: S_1  and  C_15
REMARK    3  A    between atoms: O_2  and  C_13
REMARK    4  A    between atoms: O_2  and  C_17
REMARK    5  A    between atoms: C_9  and  C_13
REMARK    6  A    between atoms: C_14  and  C_16
REMARK                            x       y       z     vdW  Elec       q    Type
REMARK                         _______ _______ _______ _____ _____    ______ ____
ROOT
ATOM      6  O   UNL     1      -1.561   4.482  25.361  0.00  0.00    -0.276 OA
ATOM      7  N   UNL     1      -2.878  -0.305  24.654  0.00  0.00    -0.165 NA
ATOM      8  N   UNL     1      -2.803   2.533  25.091  0.00  0.00    -0.298 N 
ATOM      9  C   UNL     1      -1.605   0.348  25.070  0.00  0.00    +0.205 C 
ATOM     10  C   UNL     1      -1.814   1.691  25.765  0.00  0.00    +0.139 C 
ATOM     11  C   UNL     1      -4.110   0.417  25.067  0.00  0.00    +0.129 C 
ATOM     12  C   UNL     1      -4.016   1.867  24.609  0.00  0.00    +0.125 C 
ATOM     14  C   UNL     1      -2.575   3.905  24.961  0.00  0.00    +0.213 C 
ATOM     16  C   UNL     1      -3.668   4.697  24.285  0.00  0.00    +0.109 C 
ENDROOT
BRANCH   7   1
ATOM      1  S   UNL     1      -2.938  -2.010  24.757  0.00  0.00    +0.030 S 
ATOM      3  O   UNL     1      -3.358  -2.382  26.090  0.00  0.00    -0.158 OA
ATOM      4  O   UNL     1      -1.739  -2.556  24.158  0.00  0.00    -0.158 OA
ATOM     15  C   UNL     1      -4.291  -2.316  23.651  0.00  0.00    +0.215 C 
ENDBRANCH   7   1
BRANCH   9  13
ATOM      5  O   UNL     1      -1.205   1.210  22.862  0.00  0.00    -0.249 OA
ATOM     13  C   UNL     1      -0.839   0.511  23.796  0.00  0.00    +0.327 C 
BRANCH  13   2
ATOM      2  O   UNL     1       0.303  -0.231  23.853  0.00  0.00    -0.467 OA
ATOM     17  C   UNL     1       1.192  -0.078  22.741  0.00  0.00    +0.280 C 
ENDBRANCH  13   2
ENDBRANCH   9  13
TORSDOF 3
ENDMDL
MODEL 6
REMARK VINA RESULT:      -4.1      2.115      4.863
REMARK  Name = 7161676
REMARK  6 active torsions:
REMARK  status: ('A' for Active; 'I' for Inactive)
REMARK    1  A    between atoms: S_1  and  N_7
REMARK    2  A    between atoms: S_1  and  C_15
REMARK    3  A    between atoms: O_2  and  C_13
REMARK    4  A    between atoms: O_2  and  C_17
REMARK    5  A    between atoms: C_9  and  C_13
REMARK    6  A    between atoms: C_14  and  C_16
REMARK                            x       y       z     vdW  Elec       q    Type
REMARK                         _______ _______ _______ _____ _____    ______ ____
ROOT
ATOM      6  O   UNL     1      -5.315   3.719  25.467  0.00  0.00    -0.276 OA
ATOM      7  N   UNL     1      -2.219  -0.139  24.642  0.00  0.00    -0.165 NA
ATOM      8  N   UNL     1      -4.447   1.572  25.240  0.00  0.00    -0.298 N 
ATOM      9  C   UNL     1      -1.988   1.305  24.928  0.00  0.00    +0.205 C 
ATOM     10  C   UNL     1      -3.119   1.949  25.727  0.00  0.00    +0.139 C 
ATOM     11  C   UNL     1      -3.448  -0.706  25.254  0.00  0.00    +0.129 C 
ATOM     12  C   UNL     1      -4.640   0.165  24.879  0.00  0.00    +0.125 C 
ATOM     14  C   UNL     1      -5.459   2.532  25.168  0.00  0.00    +0.213 C 
ATOM     16  C   UNL     1      -6.805   2.040  24.689  0.00  0.00    +0.109 C 
ENDROOT
BRANCH   7   1
ATOM      1  S   UNL     1      -0.841  -1.152  24.645  0.00  0.00    +0.030 S 
ATOM      3  O   UNL     1      -0.385  -1.313  26.008  0.00  0.00    -0.158 OA
ATOM      4  O   UNL     1       0.053  -0.728  23.589  0.00  0.00    -0.158 OA
ATOM     15  C   UNL     1      -1.605  -2.672  24.139  0.00  0.00    +0.215 C 
ENDBRANCH   7   1
BRANCH   9  13
ATOM      5  O   UNL     1      -2.605   1.711  22.640  0.00  0.00    -0.249 OA
ATOM     13  C   UNL     1      -1.852   1.934  23.579  0.00  0.00    +0.327 C 
BRANCH  13   2
ATOM      2  O   UNL     1      -0.778   2.773  23.573  0.00  0.00    -0.467 OA
ATOM     17  C   UNL     1       0.172   2.563  24.623  0.00  0.00    +0.280 C 
ENDBRANCH  13   2
ENDBRANCH   9  13
TORSDOF 3
ENDMDL
MODEL 7
REMARK VINA RESULT:      -2.1     19.088     20.859
REMARK  Name = 7161676
REMARK  6 active torsions:
REMARK  status: ('A' for Active; 'I' for Inactive)
REMARK    1  A    between atoms: S_1  and  N_7
REMARK    2  A    between atoms: S_1  and  C_15
REMARK    3  A    between atoms: O_2  and  C_13
REMARK    4  A    between atoms: O_2  and  C_17
REMARK    5  A    between atoms: C_9  and  C_13
REMARK    6  A    between atoms: C_14  and  C_16
REMARK                            x       y       z     vdW  Elec       q    Type
REMARK                         _______ _______ _______ _____ _____    ______ ____
ROOT
ATOM      6  O   UNL     1      13.336  -4.447  32.211  0.00  0.00    -0.276 OA
ATOM      7  N   UNL     1      15.715  -7.695  29.222  0.00  0.00    -0.165 NA
ATOM      8  N   UNL     1      14.756  -5.377  30.621  0.00  0.00    -0.298 N 
ATOM      9  C   UNL     1      14.439  -7.767  29.988  0.00  0.00    +0.205 C 
ATOM     10  C   UNL     1      13.794  -6.402  30.214  0.00  0.00    +0.139 C 
ATOM     11  C   UNL     1      16.078  -6.336  28.744  0.00  0.00    +0.129 C 
ATOM     12  C   UNL     1      16.043  -5.368  29.920  0.00  0.00    +0.125 C 
ATOM     14  C   UNL     1      14.413  -4.454  31.611  0.00  0.00    +0.213 C 
ATOM     16  C   UNL     1      15.456  -3.412  31.936  0.00  0.00    +0.109 C 
ENDROOT
BRANCH   7   1
ATOM      1  S   UNL     1      16.037  -8.982  28.143  0.00  0.00    +0.030 S 
ATOM      3  O   UNL     1      14.932  -9.915  28.188  0.00  0.00    -0.158 OA
ATOM      4  O   UNL     1      17.405  -9.415  28.327  0.00  0.00    -0.158 OA
ATOM     15  C   UNL     1      15.944  -8.096  26.608  0.00  0.00    +0.215 C 
ENDBRANCH   7   1
BRANCH   9  13
ATOM      5  O   UNL     1      15.966  -8.459  31.712  0.00  0.00    -0.249 OA
ATOM     13  C   UNL     1      14.821  -8.406  31.285  0.00  0.00    +0.327 C 
BRANCH  13   2
ATOM      2  O   UNL     1      13.708  -8.906  31.892  0.00  0.00    -0.467 OA
ATOM     17  C   UNL     1      13.004  -9.912  31.154  0.00  0.00    +0.280 C 
ENDBRANCH  13   2
ENDBRANCH   9  13
TORSDOF 3
ENDMDL
MODEL 8
REMARK VINA RESULT:      -1.9     18.391     19.230
REMARK  Name = 7161676
REMARK  6 active torsions:
REMARK  status: ('A' for Active; 'I' for Inactive)
REMARK    1  A    between atoms: S_1  and  N_7
REMARK    2  A    between atoms: S_1  and  C_15
REMARK    3  A    between atoms: O_2  and  C_13
REMARK    4  A    between atoms: O_2  and  C_17
REMARK    5  A    between atoms: C_9  and  C_13
REMARK    6  A    between atoms: C_14  and  C_16
REMARK                            x       y       z     vdW  Elec       q    Type
REMARK                         _______ _______ _______ _____ _____    ______ ____
ROOT
ATOM      6  O   UNL     1      -3.982  -9.765   8.784  0.00  0.00    -0.276 OA
ATOM      7  N   UNL     1      -8.468  -9.666  11.024  0.00  0.00    -0.165 NA
ATOM      8  N   UNL     1      -5.686  -9.929  10.360  0.00  0.00    -0.298 N 
ATOM      9  C   UNL     1      -8.047  -9.697   9.595  0.00  0.00    +0.205 C 
ATOM     10  C   UNL     1      -6.687 -10.357   9.382  0.00  0.00    +0.139 C 
ATOM     11  C   UNL     1      -7.542 -10.354  11.960  0.00  0.00    +0.129 C 
ATOM     12  C   UNL     1      -6.132  -9.818  11.751  0.00  0.00    +0.125 C 
ATOM     14  C   UNL     1      -4.375  -9.677   9.949  0.00  0.00    +0.213 C 
ATOM     16  C   UNL     1      -3.406  -9.276  11.035  0.00  0.00    +0.109 C 
ENDROOT
BRANCH   7   1
ATOM      1  S   UNL     1     -10.137  -9.863  11.337  0.00  0.00    +0.030 S 
ATOM      3  O   UNL     1     -10.694 -10.760  10.348  0.00  0.00    -0.158 OA
ATOM      4  O   UNL     1     -10.720  -8.565  11.599  0.00  0.00    -0.158 OA
ATOM     15  C   UNL     1     -10.036 -10.739  12.877  0.00  0.00    +0.215 C 
ENDBRANCH   7   1
BRANCH   9  13
ATOM      5  O   UNL     1      -7.029  -7.548   9.242  0.00  0.00    -0.249 OA
ATOM     13  C   UNL     1      -8.022  -8.260   9.184  0.00  0.00    +0.327 C 
BRANCH  13   2
ATOM      2  O   UNL     1      -9.258  -7.890   8.746  0.00  0.00    -0.467 OA
ATOM     17  C   UNL     1      -9.562  -6.496   8.868  0.00  0.00    +0.280 C 
ENDBRANCH  13   2
ENDBRANCH   9  13
TORSDOF 3
ENDMDL
MODEL 9
REMARK VINA RESULT:      -1.7     18.643     21.052
REMARK  Name = 7161676
REMARK  6 active torsions:
REMARK  status: ('A' for Active; 'I' for Inactive)
REMARK    1  A    between atoms: S_1  and  N_7
REMARK    2  A    between atoms: S_1  and  C_15
REMARK    3  A    between atoms: O_2  and  C_13
REMARK    4  A    between atoms: O_2  and  C_17
REMARK    5  A    between atoms: C_9  and  C_13
REMARK    6  A    between atoms: C_14  and  C_16
REMARK                            x       y       z     vdW  Elec       q    Type
REMARK                         _______ _______ _______ _____ _____    ______ ____
ROOT
ATOM      6  O   UNL     1      15.529  -3.519  30.997  0.00  0.00    -0.276 OA
ATOM      7  N   UNL     1      15.808  -8.378  29.789  0.00  0.00    -0.165 NA
ATOM      8  N   UNL     1      16.322  -5.668  30.591  0.00  0.00    -0.298 N 
ATOM      9  C   UNL     1      14.798  -7.318  29.510  0.00  0.00    +0.205 C 
ATOM     10  C   UNL     1      15.391  -5.912  29.488  0.00  0.00    +0.139 C 
ATOM     11  C   UNL     1      17.207  -7.889  29.904  0.00  0.00    +0.129 C 
ATOM     12  C   UNL     1      17.255  -6.750  30.914  0.00  0.00    +0.125 C 
ATOM     14  C   UNL     1      16.307  -4.440  31.255  0.00  0.00    +0.213 C 
ATOM     16  C   UNL     1      17.329  -4.269  32.354  0.00  0.00    +0.109 C 
ENDROOT
BRANCH   7   1
ATOM      1  S   UNL     1      15.598  -9.871  28.982  0.00  0.00    +0.030 S 
ATOM      3  O   UNL     1      15.153  -9.612  27.630  0.00  0.00    -0.158 OA
ATOM      4  O   UNL     1      14.885 -10.777  29.856  0.00  0.00    -0.158 OA
ATOM     15  C   UNL     1      17.291 -10.397  28.911  0.00  0.00    +0.215 C 
ENDBRANCH   7   1
BRANCH   9  13
ATOM      5  O   UNL     1      13.989  -8.103  31.634  0.00  0.00    -0.249 OA
ATOM     13  C   UNL     1      13.793  -7.466  30.607  0.00  0.00    +0.327 C 
BRANCH  13   2
ATOM      2  O   UNL     1      12.657  -6.789  30.279  0.00  0.00    -0.467 OA
ATOM     17  C   UNL     1      12.155  -5.905  31.286  0.00  0.00    +0.280 C 
ENDBRANCH  13   2
ENDBRANCH   9  13
TORSDOF 3
ENDMDL
