MODEL 1
REMARK VINA RESULT:      -8.3      0.000      0.000
REMARK  Name = 51137953
REMARK  7 active torsions:
REMARK  status: ('A' for Active; 'I' for Inactive)
REMARK    1  A    between atoms: N_4  and  C_21
REMARK    2  A    between atoms: C_5  and  C_7
REMARK    3  A    between atoms: C_6  and  C_16
REMARK    4  A    between atoms: C_7  and  C_12
REMARK    5  A    between atoms: C_12  and  C_17
REMARK    6  A    between atoms: C_12  and  C_18
REMARK    7  A    between atoms: C_21  and  C_22
REMARK                            x       y       z     vdW  Elec       q    Type
REMARK                         _______ _______ _______ _____ _____    ______ ____
ROOT
ATOM      2  N   UNL     1      -1.505  -0.032  24.770  0.00  0.00    -0.299 NA
ATOM      3  N   UNL     1      -2.189   4.931  25.405  0.00  0.00    -0.360 N 
ATOM      5  C   UNL     1      -2.957   0.182  24.701  0.00  0.00    +0.085 C 
ATOM      6  C   UNL     1      -0.729   0.749  23.816  0.00  0.00    +0.145 C 
ATOM      8  C   UNL     1      -3.443   1.592  25.048  0.00  0.00    -0.021 A 
ATOM      9  C   UNL     1      -2.621   2.755  25.095  0.00  0.00    +0.008 A 
ATOM     10  C   UNL     1      -0.176   2.022  24.451  0.00  0.00    +0.065 C 
ATOM     11  C   UNL     1      -1.226   3.004  24.851  0.00  0.00    -0.020 A 
ATOM     13  C   UNL     1      -3.194   3.992  25.414  0.00  0.00    +0.047 A 
ATOM     14  C   UNL     1      -4.829   1.796  25.273  0.00  0.00    +0.006 A 
ATOM     15  C   UNL     1      -1.004   4.350  25.062  0.00  0.00    +0.087 A 
ATOM     19  C   UNL     1      -4.554   4.164  25.676  0.00  0.00    +0.026 A 
ATOM     20  C   UNL     1      -5.367   3.043  25.587  0.00  0.00    +0.002 A 
ATOM     28  H   UNL     1      -1.161   0.102  25.720  0.00  0.00    +0.123 HD
ATOM     29  H   UNL     1      -2.317   5.913  25.605  0.00  0.00    +0.165 HD
ENDROOT
BRANCH   6  16
ATOM      1  O   UNL     1       0.681  -1.163  24.040  0.00  0.00    -0.274 OA
ATOM      4  N   UNL     1       1.097   0.350  22.319  0.00  0.00    -0.310 N 
ATOM     16  C   UNL     1       0.411  -0.139  23.418  0.00  0.00    +0.231 C 
ATOM     30  H   UNL     1       0.772   1.198  21.865  0.00  0.00    +0.149 HD
BRANCH   4  21
ATOM     21  C   UNL     1       2.251  -0.309  21.752  0.00  0.00    +0.139 C 
BRANCH  21  22
ATOM     22  C   UNL     1       3.456  -0.195  22.640  0.00  0.00    -0.030 A 
ATOM     23  C   UNL     1       4.120   1.025  22.761  0.00  0.00    +0.005 A 
ATOM     24  C   UNL     1       3.911  -1.310  23.344  0.00  0.00    +0.005 A 
ATOM     25  C   UNL     1       5.240   1.132  23.587  0.00  0.00    +0.000 A 
ATOM     26  C   UNL     1       5.031  -1.204  24.169  0.00  0.00    +0.000 A 
ATOM     27  C   UNL     1       5.695   0.017  24.290  0.00  0.00    +0.000 A 
ENDBRANCH  21  22
ENDBRANCH   4  21
ENDBRANCH   6  16
BRANCH   5   7
ATOM      7  C   UNL     1      -3.552  -0.894  25.628  0.00  0.00    +0.026 C 
BRANCH   7  12
ATOM     12  C   UNL     1      -3.690  -2.259  24.949  0.00  0.00    -0.015 C 
ATOM     17  C   UNL     1      -2.298  -2.855  24.725  0.00  0.00    +0.007 C 
ATOM     18  C   UNL     1      -4.439  -2.183  23.618  0.00  0.00    +0.007 C 
ENDBRANCH   7  12
ENDBRANCH   5   7
TORSDOF 5
ENDMDL
