MODEL 1
REMARK VINA RESULT:      -3.6      0.000      0.000
REMARK  Name = 75536710
REMARK  11 active torsions:
REMARK  status: ('A' for Active; 'I' for Inactive)
REMARK    1  A    between atoms: S_1  and  N_8
REMARK    2  A    between atoms: S_1  and  C_17
REMARK    3  A    between atoms: O_3  and  C_11
REMARK    4  A    between atoms: N_7  and  C_10
REMARK    5  A    between atoms: N_7  and  C_15
REMARK    6  A    between atoms: N_8  and  C_14
REMARK    7  A    between atoms: N_9  and  C_24
REMARK    8  A    between atoms: C_12  and  C_14
REMARK    9  A    between atoms: C_15  and  C_16
REMARK   10  A    between atoms: C_27  and  C_28
REMARK   11  A    between atoms: C_29  and  C_30
REMARK                            x       y       z     vdW  Elec       q    Type
REMARK                         _______ _______ _______ _____ _____    ______ ____
ROOT
ATOM      2  O   UNL     1      -2.767   3.403  26.543  0.00  0.00    -0.371 OA
ATOM     10  C   UNL     1      -1.287   3.468  24.696  0.00  0.00    +0.111 C 
ATOM     11  C   UNL     1      -2.072   4.769  24.712  0.00  0.00    +0.164 C 
ATOM     12  C   UNL     1      -3.145   4.564  25.781  0.00  0.00    +0.164 C 
ATOM     13  C   UNL     1      -1.463   2.980  26.124  0.00  0.00    +0.181 C 
ENDROOT
BRANCH  11   3
ATOM      3  O   UNL     1      -1.184   5.808  25.135  0.00  0.00    -0.388 OA
ATOM     32  H   UNL     1      -0.473   5.867  24.475  0.00  0.00    +0.210 HD
ENDBRANCH  11   3
BRANCH  10   7
ATOM      7  N   UNL     1      -1.852   2.511  23.749  0.00  0.00    -0.305 NA
ATOM     31  H   UNL     1      -1.501   2.719  22.813  0.00  0.00    +0.123 HD
BRANCH   7  15
ATOM     15  C   UNL     1      -1.477   1.145  24.095  0.00  0.00    +0.116 C 
BRANCH  15  16
ATOM     16  C   UNL     1      -0.049   0.845  23.723  0.00  0.00    -0.033 A 
ATOM     18  C   UNL     1       0.932   1.827  23.869  0.00  0.00    +0.007 A 
ATOM     19  C   UNL     1       0.294  -0.416  23.234  0.00  0.00    +0.007 A 
ATOM     22  C   UNL     1       2.255   1.548  23.526  0.00  0.00    +0.023 A 
ATOM     23  C   UNL     1       1.617  -0.694  22.890  0.00  0.00    +0.023 A 
ATOM     24  C   UNL     1       2.597   0.288  23.036  0.00  0.00    +0.033 A 
BRANCH  24   9
ATOM      6  O   UNL     1       5.122   0.490  24.664  0.00  0.00    -0.276 OA
ATOM      9  N   UNL     1       3.921   0.009  22.693  0.00  0.00    -0.286 N 
ATOM     29  C   UNL     1       5.065   0.123  23.495  0.00  0.00    +0.214 C 
ATOM     30  C   UNL     1       6.312  -0.278  22.749  0.00  0.00    +0.109 C 
ATOM     34  H   UNL     1       4.063  -0.318  21.739  0.00  0.00    +0.155 HD
ENDBRANCH  24   9
ENDBRANCH  15  16
ENDBRANCH   7  15
ENDBRANCH  10   7
BRANCH  12  14
ATOM     14  C   UNL     1      -4.534   4.329  25.209  0.00  0.00    +0.140 C 
BRANCH  14   8
ATOM      8  N   UNL     1      -4.607   2.974  24.629  0.00  0.00    -0.187 NA
ATOM     33  H   UNL     1      -4.443   2.927  23.615  0.00  0.00    +0.148 HD
BRANCH   8   1
ATOM      1  S   UNL     1      -5.674   1.822  25.286  0.00  0.00    +0.058 S 
ATOM      4  O   UNL     1      -6.854   1.729  24.450  0.00  0.00    -0.153 OA
ATOM      5  O   UNL     1      -5.806   2.060  26.710  0.00  0.00    -0.153 OA
BRANCH   1  17
ATOM     17  C   UNL     1      -4.752   0.325  25.096  0.00  0.00    +0.105 A 
ATOM     20  C   UNL     1      -3.988  -0.162  26.156  0.00  0.00    +0.029 A 
ATOM     21  C   UNL     1      -4.786  -0.365  23.885  0.00  0.00    +0.029 A 
ATOM     25  C   UNL     1      -3.258  -1.341  26.006  0.00  0.00    +0.005 A 
ATOM     26  C   UNL     1      -4.057  -1.545  23.735  0.00  0.00    +0.005 A 
ATOM     27  C   UNL     1      -3.293  -2.032  24.795  0.00  0.00    -0.050 A 
ATOM     28  C   UNL     1      -2.512  -3.293  24.634  0.00  0.00    +0.044 C 
ENDBRANCH   1  17
ENDBRANCH   8   1
ENDBRANCH  14   8
ENDBRANCH  12  14
TORSDOF 9
ENDMDL
MODEL 2
REMARK VINA RESULT:      -2.2      1.834      4.095
REMARK  Name = 75536710
REMARK  11 active torsions:
REMARK  status: ('A' for Active; 'I' for Inactive)
REMARK    1  A    between atoms: S_1  and  N_8
REMARK    2  A    between atoms: S_1  and  C_17
REMARK    3  A    between atoms: O_3  and  C_11
REMARK    4  A    between atoms: N_7  and  C_10
REMARK    5  A    between atoms: N_7  and  C_15
REMARK    6  A    between atoms: N_8  and  C_14
REMARK    7  A    between atoms: N_9  and  C_24
REMARK    8  A    between atoms: C_12  and  C_14
REMARK    9  A    between atoms: C_15  and  C_16
REMARK   10  A    between atoms: C_27  and  C_28
REMARK   11  A    between atoms: C_29  and  C_30
REMARK                            x       y       z     vdW  Elec       q    Type
REMARK                         _______ _______ _______ _____ _____    ______ ____
ROOT
ATOM      2  O   UNL     1      -3.553  -2.470  25.032  0.00  0.00    -0.371 OA
ATOM     10  C   UNL     1      -1.516  -1.395  24.484  0.00  0.00    +0.111 C 
ATOM     11  C   UNL     1      -2.193  -0.584  25.574  0.00  0.00    +0.164 C 
ATOM     12  C   UNL     1      -3.583  -1.204  25.717  0.00  0.00    +0.164 C 
ATOM     13  C   UNL     1      -2.207  -2.741  24.622  0.00  0.00    +0.181 C 
ENDROOT
BRANCH  11   3
ATOM      3  O   UNL     1      -1.464  -0.790  26.787  0.00  0.00    -0.388 OA
ATOM     32  H   UNL     1      -0.901  -0.009  26.922  0.00  0.00    +0.210 HD
ENDBRANCH  11   3
BRANCH  10   7
ATOM      7  N   UNL     1      -1.755  -0.824  23.161  0.00  0.00    -0.305 NA
ATOM     31  H   UNL     1      -2.760  -0.804  22.982  0.00  0.00    +0.123 HD
BRANCH   7  15
ATOM     15  C   UNL     1      -1.237   0.535  23.074  0.00  0.00    +0.116 C 
BRANCH  15  16
ATOM     16  C   UNL     1       0.269   0.561  23.060  0.00  0.00    -0.033 A 
ATOM     18  C   UNL     1       0.958   1.513  23.812  0.00  0.00    +0.007 A 
ATOM     19  C   UNL     1       0.976  -0.368  22.296  0.00  0.00    +0.007 A 
ATOM     22  C   UNL     1       2.353   1.536  23.801  0.00  0.00    +0.023 A 
ATOM     23  C   UNL     1       2.370  -0.345  22.284  0.00  0.00    +0.023 A 
ATOM     24  C   UNL     1       3.059   0.607  23.036  0.00  0.00    +0.033 A 
BRANCH  24   9
ATOM      6  O   UNL     1       5.054  -1.355  24.146  0.00  0.00    -0.276 OA
ATOM      9  N   UNL     1       4.454   0.630  23.025  0.00  0.00    -0.286 N 
ATOM     29  C   UNL     1       5.339  -0.316  23.561  0.00  0.00    +0.214 C 
ATOM     30  C   UNL     1       6.777   0.077  23.339  0.00  0.00    +0.109 C 
ATOM     34  H   UNL     1       4.871   1.438  22.567  0.00  0.00    +0.155 HD
ENDBRANCH  24   9
ENDBRANCH  15  16
ENDBRANCH   7  15
ENDBRANCH  10   7
BRANCH  12  14
ATOM     14  C   UNL     1      -4.691  -0.358  25.109  0.00  0.00    +0.140 C 
BRANCH  14   8
ATOM      8  N   UNL     1      -5.233   0.556  26.134  0.00  0.00    -0.187 NA
ATOM     33  H   UNL     1      -5.726   0.095  26.909  0.00  0.00    +0.148 HD
BRANCH   8   1
ATOM      1  S   UNL     1      -5.784   2.103  25.688  0.00  0.00    +0.058 S 
ATOM      4  O   UNL     1      -6.424   2.732  26.828  0.00  0.00    -0.153 OA
ATOM      5  O   UNL     1      -6.482   2.009  24.421  0.00  0.00    -0.153 OA
BRANCH   1  17
ATOM     17  C   UNL     1      -4.265   2.953  25.379  0.00  0.00    +0.105 A 
ATOM     20  C   UNL     1      -3.736   2.988  24.089  0.00  0.00    +0.029 A 
ATOM     21  C   UNL     1      -3.595   3.586  26.426  0.00  0.00    +0.029 A 
ATOM     25  C   UNL     1      -2.535   3.655  23.845  0.00  0.00    +0.005 A 
ATOM     26  C   UNL     1      -2.395   4.254  26.182  0.00  0.00    +0.005 A 
ATOM     27  C   UNL     1      -1.866   4.289  24.892  0.00  0.00    -0.050 A 
ATOM     28  C   UNL     1      -0.581   5.003  24.631  0.00  0.00    +0.044 C 
ENDBRANCH   1  17
ENDBRANCH   8   1
ENDBRANCH  14   8
ENDBRANCH  12  14
TORSDOF 9
ENDMDL
MODEL 3
REMARK VINA RESULT:      -1.7      2.680      6.768
REMARK  Name = 75536710
REMARK  11 active torsions:
REMARK  status: ('A' for Active; 'I' for Inactive)
REMARK    1  A    between atoms: S_1  and  N_8
REMARK    2  A    between atoms: S_1  and  C_17
REMARK    3  A    between atoms: O_3  and  C_11
REMARK    4  A    between atoms: N_7  and  C_10
REMARK    5  A    between atoms: N_7  and  C_15
REMARK    6  A    between atoms: N_8  and  C_14
REMARK    7  A    between atoms: N_9  and  C_24
REMARK    8  A    between atoms: C_12  and  C_14
REMARK    9  A    between atoms: C_15  and  C_16
REMARK   10  A    between atoms: C_27  and  C_28
REMARK   11  A    between atoms: C_29  and  C_30
REMARK                            x       y       z     vdW  Elec       q    Type
REMARK                         _______ _______ _______ _____ _____    ______ ____
ROOT
ATOM      2  O   UNL     1      -0.099   4.313  24.490  0.00  0.00    -0.371 OA
ATOM     10  C   UNL     1      -2.265   4.639  25.388  0.00  0.00    +0.111 C 
ATOM     11  C   UNL     1      -1.770   3.277  25.843  0.00  0.00    +0.164 C 
ATOM     12  C   UNL     1      -0.481   3.046  25.056  0.00  0.00    +0.164 C 
ATOM     13  C   UNL     1      -0.967   5.330  25.006  0.00  0.00    +0.181 C 
ENDROOT
BRANCH  11   3
ATOM      3  O   UNL     1      -1.457   3.370  27.236  0.00  0.00    -0.388 OA
ATOM     32  H   UNL     1      -0.607   3.836  27.310  0.00  0.00    +0.210 HD
ENDBRANCH  11   3
BRANCH  10   7
ATOM      7  N   UNL     1      -3.153   4.531  24.233  0.00  0.00    -0.305 NA
ATOM     31  H   UNL     1      -2.708   3.948  23.523  0.00  0.00    +0.123 HD
BRANCH   7  15
ATOM     15  C   UNL     1      -4.426   3.926  24.604  0.00  0.00    +0.116 C 
BRANCH  15  16
ATOM     16  C   UNL     1      -4.394   2.426  24.471  0.00  0.00    -0.033 A 
ATOM     18  C   UNL     1      -5.096   1.629  25.376  0.00  0.00    +0.007 A 
ATOM     19  C   UNL     1      -3.664   1.833  23.441  0.00  0.00    +0.007 A 
ATOM     22  C   UNL     1      -5.067   0.240  25.252  0.00  0.00    +0.023 A 
ATOM     23  C   UNL     1      -3.635   0.444  23.317  0.00  0.00    +0.023 A 
ATOM     24  C   UNL     1      -4.336  -0.352  24.222  0.00  0.00    +0.033 A 
BRANCH  24   9
ATOM      6  O   UNL     1      -2.178  -2.334  24.918  0.00  0.00    -0.276 OA
ATOM      9  N   UNL     1      -4.308  -1.742  24.098  0.00  0.00    -0.286 N 
ATOM     29  C   UNL     1      -3.270  -2.620  24.438  0.00  0.00    +0.214 C 
ATOM     30  C   UNL     1      -3.635  -4.054  24.149  0.00  0.00    +0.109 C 
ATOM     34  H   UNL     1      -5.152  -2.160  23.711  0.00  0.00    +0.155 HD
ENDBRANCH  24   9
ENDBRANCH  15  16
ENDBRANCH   7  15
ENDBRANCH  10   7
BRANCH  12  14
ATOM     14  C   UNL     1      -0.633   2.044  23.923  0.00  0.00    +0.140 C 
BRANCH  14   8
ATOM      8  N   UNL     1       0.702   1.621  23.453  0.00  0.00    -0.187 NA
ATOM     33  H   UNL     1       1.217   2.329  22.915  0.00  0.00    +0.148 HD
BRANCH   8   1
ATOM      1  S   UNL     1       0.985  -0.006  23.045  0.00  0.00    +0.058 S 
ATOM      4  O   UNL     1       0.639  -0.220  21.654  0.00  0.00    -0.153 OA
ATOM      5  O   UNL     1       0.421  -0.856  24.076  0.00  0.00    -0.153 OA
BRANCH   1  17
ATOM     17  C   UNL     1       2.744  -0.115  23.192  0.00  0.00    +0.105 A 
ATOM     20  C   UNL     1       3.331  -1.279  23.686  0.00  0.00    +0.029 A 
ATOM     21  C   UNL     1       3.543   0.964  22.816  0.00  0.00    +0.029 A 
ATOM     25  C   UNL     1       4.719  -1.365  23.806  0.00  0.00    +0.005 A 
ATOM     26  C   UNL     1       4.930   0.879  22.935  0.00  0.00    +0.005 A 
ATOM     27  C   UNL     1       5.518  -0.285  23.429  0.00  0.00    -0.050 A 
ATOM     28  C   UNL     1       7.002  -0.376  23.557  0.00  0.00    +0.044 C 
ENDBRANCH   1  17
ENDBRANCH   8   1
ENDBRANCH  14   8
ENDBRANCH  12  14
TORSDOF 9
ENDMDL
MODEL 4
REMARK VINA RESULT:      -1.2      2.976      7.304
REMARK  Name = 75536710
REMARK  11 active torsions:
REMARK  status: ('A' for Active; 'I' for Inactive)
REMARK    1  A    between atoms: S_1  and  N_8
REMARK    2  A    between atoms: S_1  and  C_17
REMARK    3  A    between atoms: O_3  and  C_11
REMARK    4  A    between atoms: N_7  and  C_10
REMARK    5  A    between atoms: N_7  and  C_15
REMARK    6  A    between atoms: N_8  and  C_14
REMARK    7  A    between atoms: N_9  and  C_24
REMARK    8  A    between atoms: C_12  and  C_14
REMARK    9  A    between atoms: C_15  and  C_16
REMARK   10  A    between atoms: C_27  and  C_28
REMARK   11  A    between atoms: C_29  and  C_30
REMARK                            x       y       z     vdW  Elec       q    Type
REMARK                         _______ _______ _______ _____ _____    ______ ____
ROOT
ATOM      2  O   UNL     1      -2.430  -0.994  26.348  0.00  0.00    -0.371 OA
ATOM     10  C   UNL     1      -3.196  -2.601  24.786  0.00  0.00    +0.111 C 
ATOM     11  C   UNL     1      -1.679  -2.658  24.809  0.00  0.00    +0.164 C 
ATOM     12  C   UNL     1      -1.255  -1.461  25.659  0.00  0.00    +0.164 C 
ATOM     13  C   UNL     1      -3.501  -1.914  26.107  0.00  0.00    +0.181 C 
ENDROOT
BRANCH  11   3
ATOM      3  O   UNL     1      -1.298  -3.864  25.478  0.00  0.00    -0.388 OA
ATOM     32  H   UNL     1      -1.086  -4.520  24.793  0.00  0.00    +0.210 HD
ENDBRANCH  11   3
BRANCH  10   7
ATOM      7  N   UNL     1      -3.688  -1.805  23.664  0.00  0.00    -0.305 NA
ATOM     31  H   UNL     1      -4.065  -2.431  22.951  0.00  0.00    +0.123 HD
BRANCH   7  15
ATOM     15  C   UNL     1      -4.743  -0.893  24.090  0.00  0.00    +0.116 C 
BRANCH  15  16
ATOM     16  C   UNL     1      -4.241   0.521  24.221  0.00  0.00    -0.033 A 
ATOM     18  C   UNL     1      -4.799   1.375  25.173  0.00  0.00    +0.007 A 
ATOM     19  C   UNL     1      -3.215   0.977  23.392  0.00  0.00    +0.007 A 
ATOM     22  C   UNL     1      -4.332   2.684  25.296  0.00  0.00    +0.023 A 
ATOM     23  C   UNL     1      -2.750   2.286  23.514  0.00  0.00    +0.023 A 
ATOM     24  C   UNL     1      -3.308   3.139  24.465  0.00  0.00    +0.033 A 
BRANCH  24   9
ATOM      6  O   UNL     1      -0.618   4.183  25.327  0.00  0.00    -0.276 OA
ATOM      9  N   UNL     1      -2.842   4.449  24.588  0.00  0.00    -0.286 N 
ATOM     29  C   UNL     1      -1.572   4.880  24.997  0.00  0.00    +0.214 C 
ATOM     30  C   UNL     1      -1.466   6.384  24.995  0.00  0.00    +0.109 C 
ATOM     34  H   UNL     1      -3.515   5.174  24.348  0.00  0.00    +0.155 HD
ENDBRANCH  24   9
ENDBRANCH  15  16
ENDBRANCH   7  15
ENDBRANCH  10   7
BRANCH  12  14
ATOM     14  C   UNL     1      -0.689  -0.308  24.845  0.00  0.00    +0.140 C 
BRANCH  14   8
ATOM      8  N   UNL     1       0.380  -0.807  23.957  0.00  0.00    -0.187 NA
ATOM     33  H   UNL     1       1.008  -1.502  24.381  0.00  0.00    +0.148 HD
BRANCH   8   1
ATOM      1  S   UNL     1       1.058   0.218  22.780  0.00  0.00    +0.058 S 
ATOM      4  O   UNL     1       0.705   1.592  23.079  0.00  0.00    -0.153 OA
ATOM      5  O   UNL     1       0.792  -0.333  21.465  0.00  0.00    -0.153 OA
BRANCH   1  17
ATOM     17  C   UNL     1       2.789   0.022  23.082  0.00  0.00    +0.105 A 
ATOM     20  C   UNL     1       3.665   1.076  22.822  0.00  0.00    +0.029 A 
ATOM     21  C   UNL     1       3.277  -1.186  23.578  0.00  0.00    +0.029 A 
ATOM     25  C   UNL     1       5.031   0.921  23.057  0.00  0.00    +0.005 A 
ATOM     26  C   UNL     1       4.643  -1.341  23.814  0.00  0.00    +0.005 A 
ATOM     27  C   UNL     1       5.520  -0.288  23.553  0.00  0.00    -0.050 A 
ATOM     28  C   UNL     1       6.981  -0.454  23.805  0.00  0.00    +0.044 C 
ENDBRANCH   1  17
ENDBRANCH   8   1
ENDBRANCH  14   8
ENDBRANCH  12  14
TORSDOF 9
ENDMDL
MODEL 5
REMARK VINA RESULT:       0.0      1.995      2.870
REMARK  Name = 75536710
REMARK  11 active torsions:
REMARK  status: ('A' for Active; 'I' for Inactive)
REMARK    1  A    between atoms: S_1  and  N_8
REMARK    2  A    between atoms: S_1  and  C_17
REMARK    3  A    between atoms: O_3  and  C_11
REMARK    4  A    between atoms: N_7  and  C_10
REMARK    5  A    between atoms: N_7  and  C_15
REMARK    6  A    between atoms: N_8  and  C_14
REMARK    7  A    between atoms: N_9  and  C_24
REMARK    8  A    between atoms: C_12  and  C_14
REMARK    9  A    between atoms: C_15  and  C_16
REMARK   10  A    between atoms: C_27  and  C_28
REMARK   11  A    between atoms: C_29  and  C_30
REMARK                            x       y       z     vdW  Elec       q    Type
REMARK                         _______ _______ _______ _____ _____    ______ ____
ROOT
ATOM      2  O   UNL     1      -1.726   1.484  25.909  0.00  0.00    -0.371 OA
ATOM     10  C   UNL     1       0.428   1.059  25.021  0.00  0.00    +0.111 C 
ATOM     11  C   UNL     1       0.434   2.459  25.611  0.00  0.00    +0.164 C 
ATOM     12  C   UNL     1      -1.027   2.742  25.959  0.00  0.00    +0.164 C 
ATOM     13  C   UNL     1      -0.771   0.434  25.715  0.00  0.00    +0.181 C 
ENDROOT
BRANCH  11   3
ATOM      3  O   UNL     1       1.202   2.420  26.816  0.00  0.00    -0.388 OA
ATOM     32  H   UNL     1       2.105   2.700  26.593  0.00  0.00    +0.210 HD
ENDBRANCH  11   3
BRANCH  10   7
ATOM      7  N   UNL     1       0.232   1.085  23.574  0.00  0.00    -0.305 NA
ATOM     31  H   UNL     1       0.620   1.952  23.200  0.00  0.00    +0.123 HD
BRANCH   7  15
ATOM     15  C   UNL     1       0.899  -0.041  22.933  0.00  0.00    +0.116 C 
BRANCH  15  16
ATOM     16  C   UNL     1       2.395   0.030  23.089  0.00  0.00    -0.033 A 
ATOM     18  C   UNL     1       3.098  -1.064  23.592  0.00  0.00    +0.007 A 
ATOM     19  C   UNL     1       3.079   1.192  22.729  0.00  0.00    +0.007 A 
ATOM     22  C   UNL     1       4.484  -0.998  23.735  0.00  0.00    +0.023 A 
ATOM     23  C   UNL     1       4.464   1.258  22.873  0.00  0.00    +0.023 A 
ATOM     24  C   UNL     1       5.167   0.163  23.376  0.00  0.00    +0.033 A 
BRANCH  24   9
ATOM      6  O   UNL     1       7.349  -1.400  22.011  0.00  0.00    -0.276 OA
ATOM      9  N   UNL     1       6.553   0.229  23.519  0.00  0.00    -0.286 N 
ATOM     29  C   UNL     1       7.529  -0.528  22.855  0.00  0.00    +0.214 C 
ATOM     30  C   UNL     1       8.921  -0.151  23.292  0.00  0.00    +0.109 C 
ATOM     34  H   UNL     1       6.888   0.916  24.192  0.00  0.00    +0.155 HD
ENDBRANCH  24   9
ENDBRANCH  15  16
ENDBRANCH   7  15
ENDBRANCH  10   7
BRANCH  12  14
ATOM     14  C   UNL     1      -1.705   3.704  24.996  0.00  0.00    +0.140 C 
BRANCH  14   8
ATOM      8  N   UNL     1      -3.065   4.014  25.481  0.00  0.00    -0.187 NA
ATOM     33  H   UNL     1      -3.181   3.975  26.502  0.00  0.00    +0.148 HD
BRANCH   8   1
ATOM      1  S   UNL     1      -4.420   3.598  24.540  0.00  0.00    +0.058 S 
ATOM      4  O   UNL     1      -4.279   4.169  23.216  0.00  0.00    -0.153 OA
ATOM      5  O   UNL     1      -5.622   3.838  25.315  0.00  0.00    -0.153 OA
BRANCH   1  17
ATOM     17  C   UNL     1      -4.239   1.845  24.399  0.00  0.00    +0.105 A 
ATOM     20  C   UNL     1      -3.522   1.302  23.333  0.00  0.00    +0.029 A 
ATOM     21  C   UNL     1      -4.815   1.005  25.352  0.00  0.00    +0.029 A 
ATOM     25  C   UNL     1      -3.382  -0.081  23.219  0.00  0.00    +0.005 A 
ATOM     26  C   UNL     1      -4.673  -0.378  25.239  0.00  0.00    +0.005 A 
ATOM     27  C   UNL     1      -3.957  -0.921  24.173  0.00  0.00    -0.050 A 
ATOM     28  C   UNL     1      -3.807  -2.400  24.051  0.00  0.00    +0.044 C 
ENDBRANCH   1  17
ENDBRANCH   8   1
ENDBRANCH  14   8
ENDBRANCH  12  14
TORSDOF 9
ENDMDL
