MODEL 1
REMARK VINA RESULT:      -3.7      0.000      0.000
REMARK  Name = 25339708
REMARK  11 active torsions:
REMARK  status: ('A' for Active; 'I' for Inactive)
REMARK    1  A    between atoms: O_1  and  C_14
REMARK    2  A    between atoms: N_5  and  C_10
REMARK    3  A    between atoms: N_6  and  C_26
REMARK    4  A    between atoms: C_7  and  C_15
REMARK    5  A    between atoms: C_9  and  C_17
REMARK    6  A    between atoms: C_9  and  C_18
REMARK    7  A    between atoms: C_14  and  C_20
REMARK    8  A    between atoms: C_15  and  C_19
REMARK    9  A    between atoms: C_19  and  C_22
REMARK   10  A    between atoms: C_21  and  C_23
REMARK   11  A    between atoms: C_26  and  C_29
REMARK                            x       y       z     vdW  Elec       q    Type
REMARK                         _______ _______ _______ _____ _____    ______ ____
ROOT
ATOM      7  C   UNL     1      15.206  -8.150  30.089  0.00  0.00    -0.007 C 
ATOM      8  C   UNL     1      15.489  -9.679  30.268  0.00  0.00    +0.005 C 
ATOM      9  C   UNL     1      16.205  -9.806  31.670  0.00  0.00    -0.030 C 
ATOM     10  C   UNL     1      16.494  -7.556  30.705  0.00  0.00    +0.080 C 
ATOM     11  C   UNL     1      16.699  -8.368  31.992  0.00  0.00    +0.029 C 
ATOM     12  C   UNL     1      14.952  -7.720  28.624  0.00  0.00    +0.012 C 
ATOM     13  C   UNL     1      16.331 -10.279  29.114  0.00  0.00    +0.039 C 
ATOM     14  C   UNL     1      15.844  -9.896  27.716  0.00  0.00    +0.064 C 
ATOM     16  C   UNL     1      15.855  -8.372  27.585  0.00  0.00    +0.035 C 
ATOM     17  C   UNL     1      15.208 -10.296  32.741  0.00  0.00    +0.011 C 
ATOM     18  C   UNL     1      17.398 -10.781  31.721  0.00  0.00    +0.011 C 
ATOM     20  C   UNL     1      16.729 -10.535  26.645  0.00  0.00    +0.041 C 
ENDROOT
BRANCH  10   5
ATOM      2  O   UNL     1      17.328  -5.445  28.928  0.00  0.00    -0.270 OA
ATOM      5  N   UNL     1      16.459  -6.123  30.969  0.00  0.00    -0.308 N 
ATOM     21  C   UNL     1      16.886  -5.179  30.043  0.00  0.00    +0.244 C 
ATOM     34  H   UNL     1      16.217  -5.831  31.910  0.00  0.00    +0.149 HD
BRANCH  21  23
ATOM     23  C   UNL     1      16.811  -3.760  30.475  0.00  0.00    +0.037 A 
ATOM     24  C   UNL     1      16.148  -3.425  31.655  0.00  0.00    +0.013 A 
ATOM     25  C   UNL     1      17.405  -2.763  29.700  0.00  0.00    +0.013 A 
ATOM     27  C   UNL     1      16.079  -2.092  32.061  0.00  0.00    +0.001 A 
ATOM     28  C   UNL     1      17.337  -1.431  30.107  0.00  0.00    +0.001 A 
ATOM     30  C   UNL     1      16.674  -1.095  31.287  0.00  0.00    +0.000 A 
ENDBRANCH  21  23
ENDBRANCH  10   5
BRANCH  14   1
ATOM      1  O   UNL     1      14.517 -10.393  27.542  0.00  0.00    -0.389 OA
ATOM     35  H   UNL     1      14.431 -11.211  28.062  0.00  0.00    +0.210 HD
ENDBRANCH  14   1
BRANCH   7  15
ATOM     15  C   UNL     1      13.945  -7.706  30.876  0.00  0.00    +0.018 C 
BRANCH  15  19
ATOM     19  C   UNL     1      12.840  -8.730  30.726  0.00  0.00    +0.096 C 
BRANCH  19  22
ATOM      3  O   UNL     1      11.629  -7.463  32.397  0.00  0.00    -0.276 OA
ATOM      6  N   UNL     1      10.824  -9.543  31.757  0.00  0.00    -0.308 N 
ATOM     22  C   UNL     1      11.718  -8.483  31.719  0.00  0.00    +0.213 C 
ATOM     36  H   UNL     1      10.970 -10.341  31.144  0.00  0.00    +0.149 HD
BRANCH   6  26
ATOM     26  C   UNL     1       9.675  -9.554  32.617  0.00  0.00    +0.178 C 
BRANCH  26  29
ATOM      4  O   UNL     1       8.027 -10.226  30.956  0.00  0.00    -0.466 OA
ATOM     29  C   UNL     1       8.404  -9.282  31.857  0.00  0.00    +0.122 A 
ATOM     31  C   UNL     1       7.502  -8.243  31.874  0.00  0.00    +0.046 A 
ATOM     32  C   UNL     1       6.508  -8.571  30.922  0.00  0.00    +0.041 A 
ATOM     33  C   UNL     1       6.873  -9.787  30.392  0.00  0.00    +0.195 A 
ENDBRANCH  26  29
ENDBRANCH   6  26
ENDBRANCH  19  22
ENDBRANCH  15  19
ENDBRANCH   7  15
TORSDOF 8
ENDMDL
MODEL 2
REMARK VINA RESULT:      -2.0     15.079     19.240
REMARK  Name = 25339708
REMARK  11 active torsions:
REMARK  status: ('A' for Active; 'I' for Inactive)
REMARK    1  A    between atoms: O_1  and  C_14
REMARK    2  A    between atoms: N_5  and  C_10
REMARK    3  A    between atoms: N_6  and  C_26
REMARK    4  A    between atoms: C_7  and  C_15
REMARK    5  A    between atoms: C_9  and  C_17
REMARK    6  A    between atoms: C_9  and  C_18
REMARK    7  A    between atoms: C_14  and  C_20
REMARK    8  A    between atoms: C_15  and  C_19
REMARK    9  A    between atoms: C_19  and  C_22
REMARK   10  A    between atoms: C_21  and  C_23
REMARK   11  A    between atoms: C_26  and  C_29
REMARK                            x       y       z     vdW  Elec       q    Type
REMARK                         _______ _______ _______ _____ _____    ______ ____
ROOT
ATOM      7  C   UNL     1      -1.052   1.037  24.442  0.00  0.00    -0.007 C 
ATOM      8  C   UNL     1      -2.561   0.623  24.398  0.00  0.00    +0.005 C 
ATOM      9  C   UNL     1      -2.580  -0.912  24.773  0.00  0.00    -0.030 C 
ATOM     10  C   UNL     1      -0.399  -0.232  23.846  0.00  0.00    +0.080 C 
ATOM     11  C   UNL     1      -1.117  -1.389  24.558  0.00  0.00    +0.029 C 
ATOM     12  C   UNL     1      -0.729   2.335  23.665  0.00  0.00    +0.012 C 
ATOM     13  C   UNL     1      -3.228   0.908  23.029  0.00  0.00    +0.039 C 
ATOM     14  C   UNL     1      -2.950   2.305  22.474  0.00  0.00    +0.064 C 
ATOM     16  C   UNL     1      -1.439   2.491  22.327  0.00  0.00    +0.035 C 
ATOM     17  C   UNL     1      -3.009  -1.101  26.243  0.00  0.00    +0.011 C 
ATOM     18  C   UNL     1      -3.533  -1.789  23.936  0.00  0.00    +0.011 C 
ATOM     20  C   UNL     1      -3.650   2.498  21.128  0.00  0.00    +0.041 C 
ENDROOT
BRANCH  10   5
ATOM      2  O   UNL     1       1.573  -0.025  21.754  0.00  0.00    -0.270 OA
ATOM      5  N   UNL     1       1.048  -0.321  23.995  0.00  0.00    -0.308 N 
ATOM     21  C   UNL     1       1.920  -0.208  22.918  0.00  0.00    +0.244 C 
ATOM     34  H   UNL     1       1.405  -0.587  24.906  0.00  0.00    +0.149 HD
BRANCH  21  23
ATOM     23  C   UNL     1       3.366  -0.348  23.232  0.00  0.00    +0.037 A 
ATOM     24  C   UNL     1       4.235   0.717  23.001  0.00  0.00    +0.013 A 
ATOM     25  C   UNL     1       3.852  -1.545  23.759  0.00  0.00    +0.013 A 
ATOM     27  C   UNL     1       5.592   0.586  23.297  0.00  0.00    +0.001 A 
ATOM     28  C   UNL     1       5.208  -1.675  24.055  0.00  0.00    +0.001 A 
ATOM     30  C   UNL     1       6.079  -0.610  23.825  0.00  0.00    +0.000 A 
ENDBRANCH  21  23
ENDBRANCH  10   5
BRANCH  14   1
ATOM      1  O   UNL     1      -3.476   3.271  23.384  0.00  0.00    -0.389 OA
ATOM     35  H   UNL     1      -4.213   3.730  22.945  0.00  0.00    +0.210 HD
ENDBRANCH  14   1
BRANCH   7  15
ATOM     15  C   UNL     1      -0.571   1.291  25.895  0.00  0.00    +0.018 C 
BRANCH  15  19
ATOM     19  C   UNL     1      -0.067   2.712  26.043  0.00  0.00    +0.096 C 
BRANCH  19  22
ATOM      3  O   UNL     1      -1.082   4.723  25.153  0.00  0.00    -0.276 OA
ATOM      6  N   UNL     1      -2.326   3.358  26.559  0.00  0.00    -0.308 N 
ATOM     22  C   UNL     1      -1.188   3.718  25.852  0.00  0.00    +0.213 C 
ATOM     36  H   UNL     1      -2.326   2.496  27.098  0.00  0.00    +0.149 HD
BRANCH   6  26
ATOM     26  C   UNL     1      -3.525   4.146  26.544  0.00  0.00    +0.178 C 
BRANCH  26  29
ATOM      4  O   UNL     1      -4.562   2.017  25.978  0.00  0.00    -0.466 OA
ATOM     29  C   UNL     1      -4.699   3.368  26.011  0.00  0.00    +0.122 A 
ATOM     31  C   UNL     1      -5.933   3.740  25.530  0.00  0.00    +0.046 A 
ATOM     32  C   UNL     1      -6.595   2.540  25.177  0.00  0.00    +0.041 A 
ATOM     33  C   UNL     1      -5.720   1.521  25.470  0.00  0.00    +0.195 A 
ENDBRANCH  26  29
ENDBRANCH   6  26
ENDBRANCH  19  22
ENDBRANCH  15  19
ENDBRANCH   7  15
TORSDOF 8
ENDMDL
