MODEL 1
REMARK VINA RESULT:      13.6      0.000      0.000
REMARK  Name = 25390940
REMARK  5 active torsions:
REMARK  status: ('A' for Active; 'I' for Inactive)
REMARK    1  A    between atoms: S_1  and  N_10
REMARK    2  A    between atoms: S_1  and  C_23
REMARK    3  A    between atoms: N_10  and  C_12
REMARK    4  A    between atoms: C_24  and  C_26
REMARK    5  A    between atoms: C_29  and  C_32
REMARK                            x       y       z     vdW  Elec       q    Type
REMARK                         _______ _______ _______ _____ _____    ______ ____
ROOT
ATOM      5  O   UNL     1      -3.812   2.657  22.229  0.00  0.00    -0.273 OA
ATOM      6  O   UNL     1       0.574   3.380  24.955  0.00  0.00    -0.270 OA
ATOM      9  N   UNL     1      -1.673   2.859  24.683  0.00  0.00    -0.286 N 
ATOM     11  N   UNL     1      -1.737   1.740  21.945  0.00  0.00    -0.283 N 
ATOM     12  C   UNL     1      -4.479   3.340  25.326  0.00  0.00    +0.080 C 
ATOM     13  C   UNL     1      -2.666   1.902  24.214  0.00  0.00    +0.164 C 
ATOM     14  C   UNL     1      -3.995   1.933  24.977  0.00  0.00    +0.052 C 
ATOM     15  C   UNL     1      -3.362   4.097  26.036  0.00  0.00    +0.039 C 
ATOM     16  C   UNL     1      -2.126   4.169  25.155  0.00  0.00    +0.110 C 
ATOM     17  C   UNL     1      -2.799   2.162  22.724  0.00  0.00    +0.238 C 
ATOM     18  C   UNL     1      -0.305   2.655  24.488  0.00  0.00    +0.249 C 
ATOM     19  C   UNL     1       0.130   1.541  23.604  0.00  0.00    +0.059 A 
ATOM     20  C   UNL     1      -0.494   1.227  22.384  0.00  0.00    +0.046 A 
ATOM     21  C   UNL     1       1.350   0.928  23.939  0.00  0.00    +0.023 A 
ATOM     22  C   UNL     1       0.154   0.353  21.495  0.00  0.00    +0.024 A 
ATOM     24  C   UNL     1       1.953   0.024  23.066  0.00  0.00    -0.017 A 
ATOM     25  C   UNL     1       1.362  -0.253  21.838  0.00  0.00    +0.010 A 
ATOM     34  H   UNL     1      -1.910   1.702  20.943  0.00  0.00    +0.155 HD
ENDROOT
BRANCH  24  26
ATOM     26  C   UNL     1       3.206  -0.606  23.424  0.00  0.00    -0.017 A 
ATOM     27  C   UNL     1       4.397   0.115  23.339  0.00  0.00    +0.021 A 
ATOM     28  C   UNL     1       3.221  -1.933  23.852  0.00  0.00    +0.008 A 
ATOM     29  C   UNL     1       5.606  -0.492  23.684  0.00  0.00    +0.055 A 
ATOM     30  C   UNL     1       4.430  -2.540  24.198  0.00  0.00    +0.001 A 
ATOM     31  C   UNL     1       5.621  -1.820  24.113  0.00  0.00    +0.012 A 
BRANCH  29  32
ATOM      2  F   UNL     1       6.694   1.620  23.749  0.00  0.00    -0.166 F 
ATOM      3  F   UNL     1       7.801  -0.078  24.538  0.00  0.00    -0.166 F 
ATOM      4  F   UNL     1       7.523   0.131  22.398  0.00  0.00    -0.166 F 
ATOM     32  C   UNL     1       6.880   0.276  23.594  0.00  0.00    +0.417 C 
ENDBRANCH  29  32
ENDBRANCH  24  26
BRANCH  12  10
ATOM     10  N   UNL     1      -5.665   3.284  26.148  0.00  0.00    -0.192 NA
ATOM     33  H   UNL     1      -5.755   3.948  26.927  0.00  0.00    +0.148 HD
BRANCH  10   1
ATOM      1  S   UNL     1      -6.624   1.877  26.116  0.00  0.00    +0.027 S 
ATOM      7  O   UNL     1      -7.338   1.793  24.858  0.00  0.00    -0.158 OA
ATOM      8  O   UNL     1      -7.333   1.783  27.379  0.00  0.00    -0.158 OA
ATOM     23  C   UNL     1      -5.366   0.621  26.118  0.00  0.00    +0.214 C 
ENDBRANCH  10   1
ENDBRANCH  12  10
TORSDOF 4
ENDMDL
MODEL 2
REMARK VINA RESULT:      14.5      2.173      3.019
REMARK  Name = 25390940
REMARK  5 active torsions:
REMARK  status: ('A' for Active; 'I' for Inactive)
REMARK    1  A    between atoms: S_1  and  N_10
REMARK    2  A    between atoms: S_1  and  C_23
REMARK    3  A    between atoms: N_10  and  C_12
REMARK    4  A    between atoms: C_24  and  C_26
REMARK    5  A    between atoms: C_29  and  C_32
REMARK                            x       y       z     vdW  Elec       q    Type
REMARK                         _______ _______ _______ _____ _____    ______ ____
ROOT
ATOM      5  O   UNL     1      -4.859  -0.407  25.827  0.00  0.00    -0.273 OA
ATOM      6  O   UNL     1      -2.201   1.527  21.778  0.00  0.00    -0.270 OA
ATOM      9  N   UNL     1      -3.389   1.655  23.770  0.00  0.00    -0.286 N 
ATOM     11  N   UNL     1      -2.781  -0.947  25.039  0.00  0.00    -0.283 N 
ATOM     12  C   UNL     1      -5.636   2.698  25.315  0.00  0.00    +0.080 C 
ATOM     13  C   UNL     1      -3.411   1.422  25.207  0.00  0.00    +0.164 C 
ATOM     14  C   UNL     1      -4.306   2.382  25.999  0.00  0.00    +0.052 C 
ATOM     15  C   UNL     1      -5.372   3.163  23.887  0.00  0.00    +0.039 C 
ATOM     16  C   UNL     1      -4.622   2.094  23.110  0.00  0.00    +0.110 C 
ATOM     17  C   UNL     1      -3.774  -0.044  25.370  0.00  0.00    +0.238 C 
ATOM     18  C   UNL     1      -2.310   1.261  22.976  0.00  0.00    +0.249 C 
ATOM     19  C   UNL     1      -1.256   0.404  23.582  0.00  0.00    +0.059 A 
ATOM     20  C   UNL     1      -1.529  -0.675  24.441  0.00  0.00    +0.046 A 
ATOM     21  C   UNL     1       0.047   0.586  23.086  0.00  0.00    +0.023 A 
ATOM     22  C   UNL     1      -0.502  -1.587  24.732  0.00  0.00    +0.024 A 
ATOM     24  C   UNL     1       1.066  -0.303  23.426  0.00  0.00    -0.017 A 
ATOM     25  C   UNL     1       0.788  -1.397  24.238  0.00  0.00    +0.010 A 
ATOM     34  H   UNL     1      -2.930  -1.903  25.353  0.00  0.00    +0.155 HD
ENDROOT
BRANCH  24  26
ATOM     26  C   UNL     1       2.404  -0.102  22.916  0.00  0.00    -0.017 A 
ATOM     27  C   UNL     1       3.494  -0.132  23.786  0.00  0.00    +0.021 A 
ATOM     28  C   UNL     1       2.604   0.123  21.554  0.00  0.00    +0.008 A 
ATOM     29  C   UNL     1       4.786   0.062  23.293  0.00  0.00    +0.055 A 
ATOM     30  C   UNL     1       3.896   0.317  21.061  0.00  0.00    +0.001 A 
ATOM     31  C   UNL     1       4.986   0.287  21.932  0.00  0.00    +0.012 A 
BRANCH  29  32
ATOM      2  F   UNL     1       6.110   1.201  24.906  0.00  0.00    -0.166 F 
ATOM      3  F   UNL     1       5.864  -0.943  25.177  0.00  0.00    -0.166 F 
ATOM      4  F   UNL     1       7.144  -0.193  23.595  0.00  0.00    -0.166 F 
ATOM     32  C   UNL     1       5.952   0.030  24.222  0.00  0.00    +0.417 C 
ENDBRANCH  29  32
ENDBRANCH  24  26
BRANCH  12  10
ATOM     10  N   UNL     1      -6.367   3.700  26.055  0.00  0.00    -0.192 NA
ATOM     33  H   UNL     1      -7.279   3.448  26.454  0.00  0.00    +0.148 HD
BRANCH  10   1
ATOM      1  S   UNL     1      -5.951   5.339  25.854  0.00  0.00    +0.027 S 
ATOM      7  O   UNL     1      -6.640   6.149  26.838  0.00  0.00    -0.158 OA
ATOM      8  O   UNL     1      -6.033   5.657  24.441  0.00  0.00    -0.158 OA
ATOM     23  C   UNL     1      -4.227   5.296  26.289  0.00  0.00    +0.214 C 
ENDBRANCH  10   1
ENDBRANCH  12  10
TORSDOF 4
ENDMDL
MODEL 3
REMARK VINA RESULT:      15.3      5.799      9.596
REMARK  Name = 25390940
REMARK  5 active torsions:
REMARK  status: ('A' for Active; 'I' for Inactive)
REMARK    1  A    between atoms: S_1  and  N_10
REMARK    2  A    between atoms: S_1  and  C_23
REMARK    3  A    between atoms: N_10  and  C_12
REMARK    4  A    between atoms: C_24  and  C_26
REMARK    5  A    between atoms: C_29  and  C_32
REMARK                            x       y       z     vdW  Elec       q    Type
REMARK                         _______ _______ _______ _____ _____    ______ ____
ROOT
ATOM      5  O   UNL     1       1.754  -0.674  20.979  0.00  0.00    -0.273 OA
ATOM      6  O   UNL     1      -1.372  -1.384  25.092  0.00  0.00    -0.270 OA
ATOM      9  N   UNL     1       0.634  -0.882  24.036  0.00  0.00    -0.286 N 
ATOM     11  N   UNL     1      -0.273   0.267  21.465  0.00  0.00    -0.283 N 
ATOM     12  C   UNL     1       3.478  -1.398  23.626  0.00  0.00    +0.080 C 
ATOM     13  C   UNL     1       1.406   0.070  23.248  0.00  0.00    +0.164 C 
ATOM     14  C   UNL     1       2.920   0.017  23.484  0.00  0.00    +0.052 C 
ATOM     15  C   UNL     1       2.680  -2.152  24.685  0.00  0.00    +0.039 C 
ATOM     16  C   UNL     1       1.209  -2.202  24.305  0.00  0.00    +0.110 C 
ATOM     17  C   UNL     1       0.992  -0.174  21.808  0.00  0.00    +0.238 C 
ATOM     18  C   UNL     1      -0.710  -0.662  24.346  0.00  0.00    +0.249 C 
ATOM     19  C   UNL     1      -1.418   0.466  23.684  0.00  0.00    +0.059 A 
ATOM     20  C   UNL     1      -1.268   0.788  22.323  0.00  0.00    +0.046 A 
ATOM     21  C   UNL     1      -2.428   1.088  24.439  0.00  0.00    +0.023 A 
ATOM     22  C   UNL     1      -2.180   1.678  21.732  0.00  0.00    +0.024 A 
ATOM     24  C   UNL     1      -3.292   2.007  23.846  0.00  0.00    -0.017 A 
ATOM     25  C   UNL     1      -3.177   2.292  22.490  0.00  0.00    +0.010 A 
ATOM     34  H   UNL     1      -0.470   0.314  20.468  0.00  0.00    +0.155 HD
ENDROOT
BRANCH  24  26
ATOM     26  C   UNL     1      -4.324   2.645  24.634  0.00  0.00    -0.017 A 
ATOM     27  C   UNL     1      -5.025   1.911  25.591  0.00  0.00    +0.021 A 
ATOM     28  C   UNL     1      -4.620   3.994  24.435  0.00  0.00    +0.008 A 
ATOM     29  C   UNL     1      -6.020   2.526  26.351  0.00  0.00    +0.055 A 
ATOM     30  C   UNL     1      -5.616   4.609  25.195  0.00  0.00    +0.001 A 
ATOM     31  C   UNL     1      -6.316   3.874  26.152  0.00  0.00    +0.012 A 
BRANCH  29  32
ATOM      2  F   UNL     1      -6.583   0.396  27.245  0.00  0.00    -0.166 F 
ATOM      3  F   UNL     1      -6.414   2.039  28.660  0.00  0.00    -0.166 F 
ATOM      4  F   UNL     1      -8.121   1.931  27.327  0.00  0.00    -0.166 F 
ATOM     32  C   UNL     1      -6.770   1.742  27.375  0.00  0.00    +0.417 C 
ENDBRANCH  29  32
ENDBRANCH  24  26
BRANCH  12  10
ATOM     10  N   UNL     1       4.880  -1.364  23.969  0.00  0.00    -0.192 NA
ATOM     33  H   UNL     1       5.244  -2.069  24.621  0.00  0.00    +0.148 HD
BRANCH  10   1
ATOM      1  S   UNL     1       5.764   0.063  23.680  0.00  0.00    +0.027 S 
ATOM      7  O   UNL     1       7.034  -0.257  23.061  0.00  0.00    -0.158 OA
ATOM      8  O   UNL     1       5.707   0.881  24.877  0.00  0.00    -0.158 OA
ATOM     23  C   UNL     1       4.738   0.843  22.455  0.00  0.00    +0.214 C 
ENDBRANCH  10   1
ENDBRANCH  12  10
TORSDOF 4
ENDMDL
MODEL 4
REMARK VINA RESULT:      15.5      5.688      9.534
REMARK  Name = 25390940
REMARK  5 active torsions:
REMARK  status: ('A' for Active; 'I' for Inactive)
REMARK    1  A    between atoms: S_1  and  N_10
REMARK    2  A    between atoms: S_1  and  C_23
REMARK    3  A    between atoms: N_10  and  C_12
REMARK    4  A    between atoms: C_24  and  C_26
REMARK    5  A    between atoms: C_29  and  C_32
REMARK                            x       y       z     vdW  Elec       q    Type
REMARK                         _______ _______ _______ _____ _____    ______ ____
ROOT
ATOM      5  O   UNL     1       1.879  -0.633  21.083  0.00  0.00    -0.273 OA
ATOM      6  O   UNL     1      -1.248  -1.835  25.081  0.00  0.00    -0.270 OA
ATOM      9  N   UNL     1       0.729  -1.112  24.099  0.00  0.00    -0.286 N 
ATOM     11  N   UNL     1      -0.226   0.112  21.580  0.00  0.00    -0.283 N 
ATOM     12  C   UNL     1       3.612  -1.374  23.720  0.00  0.00    +0.080 C 
ATOM     13  C   UNL     1       1.434  -0.056  23.384  0.00  0.00    +0.164 C 
ATOM     14  C   UNL     1       2.943  -0.002  23.648  0.00  0.00    +0.052 C 
ATOM     15  C   UNL     1       2.860  -2.251  24.715  0.00  0.00    +0.039 C 
ATOM     16  C   UNL     1       1.405  -2.396  24.302  0.00  0.00    +0.110 C 
ATOM     17  C   UNL     1       1.065  -0.246  21.923  0.00  0.00    +0.238 C 
ATOM     18  C   UNL     1      -0.633  -1.019  24.392  0.00  0.00    +0.249 C 
ATOM     19  C   UNL     1      -1.419   0.086  23.782  0.00  0.00    +0.059 A 
ATOM     20  C   UNL     1      -1.274   0.499  22.446  0.00  0.00    +0.046 A 
ATOM     21  C   UNL     1      -2.489   0.579  24.550  0.00  0.00    +0.023 A 
ATOM     22  C   UNL     1      -2.245   1.347  21.888  0.00  0.00    +0.024 A 
ATOM     24  C   UNL     1      -3.415   1.460  23.993  0.00  0.00    -0.017 A 
ATOM     25  C   UNL     1      -3.301   1.833  22.659  0.00  0.00    +0.010 A 
ATOM     34  H   UNL     1      -0.409   0.203  20.583  0.00  0.00    +0.155 HD
ENDROOT
BRANCH  24  26
ATOM     26  C   UNL     1      -4.508   1.965  24.795  0.00  0.00    -0.017 A 
ATOM     27  C   UNL     1      -4.716   3.341  24.902  0.00  0.00    +0.021 A 
ATOM     28  C   UNL     1      -5.353   1.078  25.462  0.00  0.00    +0.008 A 
ATOM     29  C   UNL     1      -5.770   3.829  25.675  0.00  0.00    +0.055 A 
ATOM     30  C   UNL     1      -6.407   1.566  26.235  0.00  0.00    +0.001 A 
ATOM     31  C   UNL     1      -6.615   2.941  26.342  0.00  0.00    +0.012 A 
BRANCH  29  32
ATOM      2  F   UNL     1      -4.909   5.956  26.296  0.00  0.00    -0.166 F 
ATOM      3  F   UNL     1      -6.267   5.906  24.598  0.00  0.00    -0.166 F 
ATOM      4  F   UNL     1      -7.037   5.631  26.607  0.00  0.00    -0.166 F 
ATOM     32  C   UNL     1      -5.994   5.299  25.791  0.00  0.00    +0.417 C 
ENDBRANCH  29  32
ENDBRANCH  24  26
BRANCH  12  10
ATOM     10  N   UNL     1       5.001  -1.248  24.094  0.00  0.00    -0.192 NA
ATOM     33  H   UNL     1       5.364  -1.847  24.845  0.00  0.00    +0.148 HD
BRANCH  10   1
ATOM      1  S   UNL     1       5.852   0.155  23.640  0.00  0.00    +0.027 S 
ATOM      7  O   UNL     1       7.113  -0.207  23.024  0.00  0.00    -0.158 OA
ATOM      8  O   UNL     1       5.809   1.090  24.749  0.00  0.00    -0.158 OA
ATOM     23  C   UNL     1       4.784   0.791  22.368  0.00  0.00    +0.214 C 
ENDBRANCH  10   1
ENDBRANCH  12  10
TORSDOF 4
ENDMDL
MODEL 5
REMARK VINA RESULT:      16.3      6.269      9.896
REMARK  Name = 25390940
REMARK  5 active torsions:
REMARK  status: ('A' for Active; 'I' for Inactive)
REMARK    1  A    between atoms: S_1  and  N_10
REMARK    2  A    between atoms: S_1  and  C_23
REMARK    3  A    between atoms: N_10  and  C_12
REMARK    4  A    between atoms: C_24  and  C_26
REMARK    5  A    between atoms: C_29  and  C_32
REMARK                            x       y       z     vdW  Elec       q    Type
REMARK                         _______ _______ _______ _____ _____    ______ ____
ROOT
ATOM      5  O   UNL     1       4.259   0.264  20.838  0.00  0.00    -0.273 OA
ATOM      6  O   UNL     1       1.876  -2.313  24.695  0.00  0.00    -0.270 OA
ATOM      9  N   UNL     1       3.425  -0.835  23.794  0.00  0.00    -0.286 N 
ATOM     11  N   UNL     1       2.038   0.134  21.367  0.00  0.00    -0.283 N 
ATOM     12  C   UNL     1       6.191   0.023  23.429  0.00  0.00    +0.080 C 
ATOM     13  C   UNL     1       3.674   0.458  23.171  0.00  0.00    +0.164 C 
ATOM     14  C   UNL     1       5.059   1.049  23.456  0.00  0.00    +0.052 C 
ATOM     15  C   UNL     1       5.837  -1.144  24.345  0.00  0.00    +0.039 C 
ATOM     16  C   UNL     1       4.532  -1.787  23.906  0.00  0.00    +0.110 C 
ATOM     17  C   UNL     1       3.376   0.256  21.696  0.00  0.00    +0.238 C 
ATOM     18  C   UNL     1       2.131  -1.277  24.078  0.00  0.00    +0.249 C 
ATOM     19  C   UNL     1       0.980  -0.501  23.547  0.00  0.00    +0.059 A 
ATOM     20  C   UNL     1       0.937   0.037  22.248  0.00  0.00    +0.046 A 
ATOM     21  C   UNL     1      -0.183  -0.500  24.338  0.00  0.00    +0.023 A 
ATOM     22  C   UNL     1      -0.290   0.503  21.747  0.00  0.00    +0.024 A 
ATOM     24  C   UNL     1      -1.379   0.013  23.841  0.00  0.00    -0.017 A 
ATOM     25  C   UNL     1      -1.436   0.502  22.541  0.00  0.00    +0.010 A 
ATOM     34  H   UNL     1       1.816   0.225  20.378  0.00  0.00    +0.155 HD
ENDROOT
BRANCH  24  26
ATOM     26  C   UNL     1      -2.567   0.014  24.666  0.00  0.00    -0.017 A 
ATOM     27  C   UNL     1      -3.488   1.056  24.562  0.00  0.00    +0.021 A 
ATOM     28  C   UNL     1      -2.790  -1.027  25.568  0.00  0.00    +0.008 A 
ATOM     29  C   UNL     1      -4.634   1.058  25.358  0.00  0.00    +0.055 A 
ATOM     30  C   UNL     1      -3.936  -1.026  26.365  0.00  0.00    +0.001 A 
ATOM     31  C   UNL     1      -4.857   0.017  26.260  0.00  0.00    +0.012 A 
BRANCH  29  32
ATOM      2  F   UNL     1      -5.955   2.698  26.461  0.00  0.00    -0.166 F 
ATOM      3  F   UNL     1      -5.174   3.225  24.501  0.00  0.00    -0.166 F 
ATOM      4  F   UNL     1      -6.800   1.801  24.669  0.00  0.00    -0.166 F 
ATOM     32  C   UNL     1      -5.620   2.171  25.247  0.00  0.00    +0.417 C 
ENDBRANCH  29  32
ENDBRANCH  24  26
BRANCH  12  10
ATOM     10  N   UNL     1       7.441   0.627  23.827  0.00  0.00    -0.192 NA
ATOM     33  H   UNL     1       7.417   1.540  24.297  0.00  0.00    +0.148 HD
BRANCH  10   1
ATOM      1  S   UNL     1       8.886   0.074  23.117  0.00  0.00    +0.027 S 
ATOM      7  O   UNL     1       9.571   1.173  22.466  0.00  0.00    -0.158 OA
ATOM      8  O   UNL     1       8.597  -1.152  22.396  0.00  0.00    -0.158 OA
ATOM     23  C   UNL     1       9.816  -0.370  24.567  0.00  0.00    +0.214 C 
ENDBRANCH  10   1
ENDBRANCH  12  10
TORSDOF 4
ENDMDL
