MODEL 1
REMARK VINA RESULT:       0.7      0.000      0.000
REMARK  Name = 11911865
REMARK  11 active torsions:
REMARK  status: ('A' for Active; 'I' for Inactive)
REMARK    1  A    between atoms: O_4  and  C_26
REMARK    2  A    between atoms: N_6  and  C_13
REMARK    3  A    between atoms: N_7  and  C_14
REMARK    4  A    between atoms: N_10  and  C_31
REMARK    5  A    between atoms: N_10  and  C_32
REMARK    6  A    between atoms: N_10  and  C_33
REMARK    7  A    between atoms: C_17  and  C_19
REMARK    8  A    between atoms: C_19  and  C_20
REMARK    9  A    between atoms: C_20  and  C_22
REMARK   10  A    between atoms: C_21  and  C_25
REMARK   11  A    between atoms: C_22  and  C_26
REMARK                            x       y       z     vdW  Elec       q    Type
REMARK                         _______ _______ _______ _____ _____    ______ ____
ROOT
ATOM      1  O   UNL     1      -3.243   3.112  23.669  0.00  0.00    -0.370 OA
ATOM      2  O   UNL     1      -5.329   2.683  25.951  0.00  0.00    -0.370 OA
ATOM     11  C   UNL     1      -3.907   2.489  25.867  0.00  0.00    +0.171 C 
ATOM     12  C   UNL     1      -3.602   1.976  24.474  0.00  0.00    +0.171 C 
ATOM     13  C   UNL     1      -3.191   3.820  25.934  0.00  0.00    +0.130 C 
ATOM     14  C   UNL     1      -4.913   1.392  24.000  0.00  0.00    +0.130 C 
ATOM     15  C   UNL     1      -3.242   4.289  24.491  0.00  0.00    +0.185 C 
ATOM     16  C   UNL     1      -5.938   2.242  24.727  0.00  0.00    +0.185 C 
ENDROOT
BRANCH  14   7
ATOM      7  N   UNL     1      -5.019   0.012  24.419  0.00  0.00    -0.306 N 
ATOM      8  N   UNL     1      -2.732  -0.330  24.199  0.00  0.00    -0.214 NA
ATOM      9  N   UNL     1      -4.197  -2.100  24.926  0.00  0.00    -0.223 NA
ATOM     18  C   UNL     1      -3.936  -0.844  24.519  0.00  0.00    +0.216 A 
ATOM     21  C   UNL     1      -1.699  -1.191  24.307  0.00  0.00    +0.076 A 
ATOM     23  C   UNL     1      -3.118  -2.907  25.012  0.00  0.00    +0.116 A 
ATOM     24  C   UNL     1      -1.834  -2.503  24.712  0.00  0.00    +0.048 A 
ATOM     35  H   UNL     1      -5.920  -0.353  24.709  0.00  0.00    +0.149 HD
BRANCH  21  25
ATOM     25  C   UNL     1      -0.408  -0.644  23.965  0.00  0.00    +0.001 A 
ATOM     27  C   UNL     1      -0.231   0.738  23.902  0.00  0.00    +0.012 A 
ATOM     28  C   UNL     1       0.662  -1.498  23.693  0.00  0.00    +0.012 A 
ATOM     29  C   UNL     1       1.017   1.267  23.569  0.00  0.00    +0.024 A 
ATOM     30  C   UNL     1       1.908  -0.969  23.360  0.00  0.00    +0.024 A 
ATOM     31  C   UNL     1       2.086   0.413  23.298  0.00  0.00    +0.029 A 
BRANCH  31  10
ATOM     10  N   UNL     1       3.347   0.948  22.962  0.00  0.00    -0.336 N 
ATOM     32  C   UNL     1       3.456   2.294  22.435  0.00  0.00    +0.129 C 
ATOM     33  C   UNL     1       4.551   0.165  23.152  0.00  0.00    +0.129 C 
ENDBRANCH  31  10
ENDBRANCH  21  25
ENDBRANCH  14   7
BRANCH  13   6
ATOM      3  O   UNL     1      -0.816   4.210  24.371  0.00  0.00    -0.276 OA
ATOM      6  N   UNL     1      -1.829   3.658  26.383  0.00  0.00    -0.308 N 
ATOM     17  C   UNL     1      -0.742   3.871  25.549  0.00  0.00    +0.213 C 
ATOM     34  H   UNL     1      -1.667   3.321  27.329  0.00  0.00    +0.149 HD
BRANCH  17  19
ATOM     19  C   UNL     1       0.575   3.603  26.260  0.00  0.00    +0.096 C 
BRANCH  19  20
ATOM     20  C   UNL     1       0.559   2.346  27.130  0.00  0.00    +0.020 C 
BRANCH  20  22
ATOM     22  C   UNL     1       0.692   2.666  28.619  0.00  0.00    +0.121 C 
BRANCH  22  26
ATOM      5  O   UNL     1       3.095   3.055  28.695  0.00  0.00    -0.251 OA
ATOM     26  C   UNL     1       2.107   2.467  29.113  0.00  0.00    +0.305 C 
BRANCH  26   4
ATOM      4  O   UNL     1       2.160   1.539  30.104  0.00  0.00    -0.481 OA
ATOM     36  H   UNL     1       2.932   1.678  30.694  0.00  0.00    +0.295 HD
ENDBRANCH  26   4
ENDBRANCH  22  26
ENDBRANCH  20  22
ENDBRANCH  19  20
ENDBRANCH  17  19
ENDBRANCH  13   6
TORSDOF 9
ENDMDL
MODEL 2
REMARK VINA RESULT:       3.1      2.567      5.411
REMARK  Name = 11911865
REMARK  11 active torsions:
REMARK  status: ('A' for Active; 'I' for Inactive)
REMARK    1  A    between atoms: O_4  and  C_26
REMARK    2  A    between atoms: N_6  and  C_13
REMARK    3  A    between atoms: N_7  and  C_14
REMARK    4  A    between atoms: N_10  and  C_31
REMARK    5  A    between atoms: N_10  and  C_32
REMARK    6  A    between atoms: N_10  and  C_33
REMARK    7  A    between atoms: C_17  and  C_19
REMARK    8  A    between atoms: C_19  and  C_20
REMARK    9  A    between atoms: C_20  and  C_22
REMARK   10  A    between atoms: C_21  and  C_25
REMARK   11  A    between atoms: C_22  and  C_26
REMARK                            x       y       z     vdW  Elec       q    Type
REMARK                         _______ _______ _______ _____ _____    ______ ____
ROOT
ATOM      1  O   UNL     1      -2.620  -1.442  26.070  0.00  0.00    -0.370 OA
ATOM      2  O   UNL     1      -3.593  -1.560  23.107  0.00  0.00    -0.370 OA
ATOM     11  C   UNL     1      -2.473  -0.931  23.751  0.00  0.00    +0.171 C 
ATOM     12  C   UNL     1      -2.949  -0.432  25.101  0.00  0.00    +0.171 C 
ATOM     13  C   UNL     1      -1.417  -1.960  24.091  0.00  0.00    +0.130 C 
ATOM     14  C   UNL     1      -4.448  -0.322  24.946  0.00  0.00    +0.130 C 
ATOM     15  C   UNL     1      -1.912  -2.507  25.419  0.00  0.00    +0.185 C 
ATOM     16  C   UNL     1      -4.758  -1.409  23.933  0.00  0.00    +0.185 C 
ENDROOT
BRANCH  14   7
ATOM      7  N   UNL     1      -4.797   0.975  24.411  0.00  0.00    -0.306 N 
ATOM      8  N   UNL     1      -2.992   1.996  25.459  0.00  0.00    -0.214 NA
ATOM      9  N   UNL     1      -4.524   3.259  24.092  0.00  0.00    -0.223 NA
ATOM     18  C   UNL     1      -4.073   2.127  24.665  0.00  0.00    +0.216 A 
ATOM     21  C   UNL     1      -2.311   3.138  25.686  0.00  0.00    +0.076 A 
ATOM     23  C   UNL     1      -3.794   4.363  24.361  0.00  0.00    +0.116 A 
ATOM     24  C   UNL     1      -2.669   4.362  25.158  0.00  0.00    +0.048 A 
ATOM     35  H   UNL     1      -5.580   1.057  23.773  0.00  0.00    +0.149 HD
BRANCH  21  25
ATOM     25  C   UNL     1      -1.152   3.001  26.536  0.00  0.00    +0.001 A 
ATOM     27  C   UNL     1       0.111   2.825  25.971  0.00  0.00    +0.012 A 
ATOM     28  C   UNL     1      -1.297   3.042  27.923  0.00  0.00    +0.012 A 
ATOM     29  C   UNL     1       1.230   2.690  26.793  0.00  0.00    +0.024 A 
ATOM     30  C   UNL     1      -0.178   2.907  28.744  0.00  0.00    +0.024 A 
ATOM     31  C   UNL     1       1.085   2.731  28.180  0.00  0.00    +0.029 A 
BRANCH  31  10
ATOM     10  N   UNL     1       2.217   2.595  29.011  0.00  0.00    -0.336 N 
ATOM     32  C   UNL     1       3.481   3.194  28.631  0.00  0.00    +0.129 C 
ATOM     33  C   UNL     1       2.127   1.868  30.261  0.00  0.00    +0.129 C 
ENDBRANCH  31  10
ENDBRANCH  21  25
ENDBRANCH  14   7
BRANCH  13   6
ATOM      3  O   UNL     1      -0.450   0.343  22.677  0.00  0.00    -0.276 OA
ATOM      6  N   UNL     1      -0.118  -1.348  24.229  0.00  0.00    -0.308 N 
ATOM     17  C   UNL     1       0.259  -0.231  23.498  0.00  0.00    +0.213 C 
ATOM     34  H   UNL     1       0.563  -1.789  24.844  0.00  0.00    +0.149 HD
BRANCH  17  19
ATOM     19  C   UNL     1       1.685   0.191  23.811  0.00  0.00    +0.096 C 
BRANCH  19  20
ATOM     20  C   UNL     1       2.638   0.070  22.623  0.00  0.00    +0.020 C 
BRANCH  20  22
ATOM     22  C   UNL     1       3.830   1.021  22.731  0.00  0.00    +0.121 C 
BRANCH  22  26
ATOM      5  O   UNL     1       5.865  -0.313  22.809  0.00  0.00    -0.251 OA
ATOM     26  C   UNL     1       5.021   0.359  23.385  0.00  0.00    +0.305 C 
BRANCH  26   4
ATOM      4  O   UNL     1       5.053   0.604  24.722  0.00  0.00    -0.481 OA
ATOM     36  H   UNL     1       4.270   0.231  25.180  0.00  0.00    +0.295 HD
ENDBRANCH  26   4
ENDBRANCH  22  26
ENDBRANCH  20  22
ENDBRANCH  19  20
ENDBRANCH  17  19
ENDBRANCH  13   6
TORSDOF 9
ENDMDL
