MODEL 1
REMARK VINA RESULT:      -3.9      0.000      0.000
REMARK  Name = 26743862
REMARK  5 active torsions:
REMARK  status: ('A' for Active; 'I' for Inactive)
REMARK    1  A    between atoms: O_2  and  C_11
REMARK    2  A    between atoms: N_4  and  C_7
REMARK    3  A    between atoms: C_8  and  C_14
REMARK    4  A    between atoms: C_17  and  C_18
REMARK    5  A    between atoms: C_21  and  C_24
REMARK                            x       y       z     vdW  Elec       q    Type
REMARK                         _______ _______ _______ _____ _____    ______ ____
ROOT
ATOM      4  N   UNL     1      -4.097   1.137  25.505  0.00  0.00    -0.286 NA
ATOM      8  C   UNL     1      -3.593   1.833  24.304  0.00  0.00    +0.149 C 
ATOM      9  C   UNL     1      -5.326   1.822  25.897  0.00  0.00    +0.116 C 
ATOM     10  C   UNL     1      -4.118   3.275  24.437  0.00  0.00    +0.061 C 
ATOM     11  C   UNL     1      -4.943   3.279  25.717  0.00  0.00    +0.130 C 
ENDROOT
BRANCH   4   7
ATOM      1  O   UNL     1      -3.364  -2.795  24.224  0.00  0.00    -0.380 OA
ATOM      7  C   UNL     1      -4.307  -0.294  25.295  0.00  0.00    +0.062 C 
ATOM     12  C   UNL     1      -4.347  -0.612  23.799  0.00  0.00    +0.047 C 
ATOM     13  C   UNL     1      -3.213  -1.119  25.979  0.00  0.00    +0.047 C 
ATOM     15  C   UNL     1      -4.443  -2.119  23.579  0.00  0.00    +0.161 C 
ATOM     16  C   UNL     1      -3.372  -2.596  25.639  0.00  0.00    +0.161 C 
ENDBRANCH   4   7
BRANCH   8  14
ATOM      3  O   UNL     1      -1.375   2.595  24.993  0.00  0.00    -0.336 OA
ATOM      5  N   UNL     1      -1.348   1.022  23.399  0.00  0.00    -0.190 NA
ATOM      6  N   UNL     1      -0.026   2.359  24.702  0.00  0.00    -0.056 NA
ATOM     14  C   UNL     1      -2.085   1.768  24.182  0.00  0.00    +0.245 A 
ATOM     17  C   UNL     1      -0.091   1.421  23.754  0.00  0.00    +0.202 A 
BRANCH  17  18
ATOM     18  C   UNL     1       1.078   0.859  23.143  0.00  0.00    +0.023 A 
ATOM     19  C   UNL     1       2.346   1.224  23.593  0.00  0.00    +0.015 A 
ATOM     20  C   UNL     1       0.946  -0.056  22.098  0.00  0.00    +0.012 A 
ATOM     21  C   UNL     1       3.483   0.675  22.998  0.00  0.00    -0.050 A 
ATOM     22  C   UNL     1       2.082  -0.604  21.503  0.00  0.00    +0.001 A 
ATOM     23  C   UNL     1       3.351  -0.239  21.953  0.00  0.00    +0.003 A 
ATOM     24  C   UNL     1       4.839   1.066  23.480  0.00  0.00    +0.044 C 
ENDBRANCH  17  18
ENDBRANCH   8  14
BRANCH  11   2
ATOM      2  O   UNL     1      -6.080   4.109  25.580  0.00  0.00    -0.390 OA
ATOM     25  H   UNL     1      -6.700   3.874  26.291  0.00  0.00    +0.210 HD
ENDBRANCH  11   2
TORSDOF 4
ENDMDL
MODEL 2
REMARK VINA RESULT:      -2.1      1.391      3.764
REMARK  Name = 26743862
REMARK  5 active torsions:
REMARK  status: ('A' for Active; 'I' for Inactive)
REMARK    1  A    between atoms: O_2  and  C_11
REMARK    2  A    between atoms: N_4  and  C_7
REMARK    3  A    between atoms: C_8  and  C_14
REMARK    4  A    between atoms: C_17  and  C_18
REMARK    5  A    between atoms: C_21  and  C_24
REMARK                            x       y       z     vdW  Elec       q    Type
REMARK                         _______ _______ _______ _____ _____    ______ ____
ROOT
ATOM      4  N   UNL     1      -3.486   0.231  24.229  0.00  0.00    -0.286 NA
ATOM      8  C   UNL     1      -2.323  -0.453  24.828  0.00  0.00    +0.149 C 
ATOM      9  C   UNL     1      -4.545  -0.771  24.120  0.00  0.00    +0.116 C 
ATOM     10  C   UNL     1      -2.477  -1.928  24.414  0.00  0.00    +0.061 C 
ATOM     11  C   UNL     1      -3.778  -1.983  23.625  0.00  0.00    +0.130 C 
ENDROOT
BRANCH   4   7
ATOM      1  O   UNL     1      -5.669   3.677  25.223  0.00  0.00    -0.380 OA
ATOM      7  C   UNL     1      -3.916   1.406  24.984  0.00  0.00    +0.062 C 
ATOM     12  C   UNL     1      -3.736   2.673  24.144  0.00  0.00    +0.047 C 
ATOM     13  C   UNL     1      -5.376   1.272  25.427  0.00  0.00    +0.047 C 
ATOM     15  C   UNL     1      -4.299   3.884  24.883  0.00  0.00    +0.161 C 
ATOM     16  C   UNL     1      -5.847   2.559  26.095  0.00  0.00    +0.161 C 
ENDBRANCH   4   7
BRANCH   8  14
ATOM      3  O   UNL     1      -0.987   1.487  24.173  0.00  0.00    -0.336 OA
ATOM      5  N   UNL     1       0.145  -0.445  24.173  0.00  0.00    -0.190 NA
ATOM      6  N   UNL     1       0.318   1.801  23.777  0.00  0.00    -0.056 NA
ATOM     14  C   UNL     1      -1.004   0.145  24.386  0.00  0.00    +0.245 A 
ATOM     17  C   UNL     1       0.925   0.611  23.801  0.00  0.00    +0.202 A 
BRANCH  17  18
ATOM     18  C   UNL     1       2.308   0.443  23.461  0.00  0.00    +0.023 A 
ATOM     19  C   UNL     1       2.976  -0.729  23.814  0.00  0.00    +0.015 A 
ATOM     20  C   UNL     1       2.985   1.453  22.775  0.00  0.00    +0.012 A 
ATOM     21  C   UNL     1       4.322  -0.892  23.481  0.00  0.00    -0.050 A 
ATOM     22  C   UNL     1       4.330   1.289  22.443  0.00  0.00    +0.001 A 
ATOM     23  C   UNL     1       4.998   0.117  22.795  0.00  0.00    +0.003 A 
ATOM     24  C   UNL     1       5.036  -2.145  23.858  0.00  0.00    +0.044 C 
ENDBRANCH  17  18
ENDBRANCH   8  14
BRANCH  11   2
ATOM      2  O   UNL     1      -4.473  -3.186  23.886  0.00  0.00    -0.390 OA
ATOM     25  H   UNL     1      -4.283  -3.798  23.155  0.00  0.00    +0.210 HD
ENDBRANCH  11   2
TORSDOF 4
ENDMDL
MODEL 3
REMARK VINA RESULT:      -1.0      1.686      2.317
REMARK  Name = 26743862
REMARK  5 active torsions:
REMARK  status: ('A' for Active; 'I' for Inactive)
REMARK    1  A    between atoms: O_2  and  C_11
REMARK    2  A    between atoms: N_4  and  C_7
REMARK    3  A    between atoms: C_8  and  C_14
REMARK    4  A    between atoms: C_17  and  C_18
REMARK    5  A    between atoms: C_21  and  C_24
REMARK                            x       y       z     vdW  Elec       q    Type
REMARK                         _______ _______ _______ _____ _____    ______ ____
ROOT
ATOM      4  N   UNL     1      -2.414   1.265  25.225  0.00  0.00    -0.286 NA
ATOM      8  C   UNL     1      -1.936   1.649  23.882  0.00  0.00    +0.149 C 
ATOM      9  C   UNL     1      -3.150   2.415  25.747  0.00  0.00    +0.116 C 
ATOM     10  C   UNL     1      -1.794   3.182  23.938  0.00  0.00    +0.061 C 
ATOM     11  C   UNL     1      -2.258   3.571  25.335  0.00  0.00    +0.130 C 
ENDROOT
BRANCH   4   7
ATOM      1  O   UNL     1      -3.685  -2.604  24.204  0.00  0.00    -0.380 OA
ATOM      7  C   UNL     1      -3.223   0.049  25.223  0.00  0.00    +0.062 C 
ATOM     12  C   UNL     1      -3.799  -0.205  23.828  0.00  0.00    +0.047 C 
ATOM     13  C   UNL     1      -2.402  -1.160  25.681  0.00  0.00    +0.047 C 
ATOM     15  C   UNL     1      -4.541  -1.538  23.795  0.00  0.00    +0.161 C 
ATOM     16  C   UNL     1      -3.221  -2.439  25.545  0.00  0.00    +0.161 C 
ENDBRANCH   4   7
BRANCH   8  14
ATOM      3  O   UNL     1      -0.762  -0.184  22.770  0.00  0.00    -0.336 OA
ATOM      5  N   UNL     1       0.590   1.289  23.777  0.00  0.00    -0.190 NA
ATOM      6  N   UNL     1       0.543  -0.638  22.546  0.00  0.00    -0.056 NA
ATOM     14  C   UNL     1      -0.645   0.954  23.502  0.00  0.00    +0.245 A 
ATOM     17  C   UNL     1       1.283   0.283  23.170  0.00  0.00    +0.202 A 
BRANCH  17  18
ATOM     18  C   UNL     1       2.716   0.228  23.205  0.00  0.00    +0.023 A 
ATOM     19  C   UNL     1       3.360  -0.938  23.619  0.00  0.00    +0.015 A 
ATOM     20  C   UNL     1       3.465   1.341  22.822  0.00  0.00    +0.012 A 
ATOM     21  C   UNL     1       4.754  -0.990  23.651  0.00  0.00    -0.050 A 
ATOM     22  C   UNL     1       4.858   1.287  22.855  0.00  0.00    +0.001 A 
ATOM     23  C   UNL     1       5.503   0.123  23.268  0.00  0.00    +0.003 A 
ATOM     24  C   UNL     1       5.443  -2.237  24.093  0.00  0.00    +0.044 C 
ENDBRANCH  17  18
ENDBRANCH   8  14
BRANCH  11   2
ATOM      2  O   UNL     1      -2.964   4.796  25.307  0.00  0.00    -0.390 OA
ATOM     25  H   UNL     1      -2.463   5.434  25.842  0.00  0.00    +0.210 HD
ENDBRANCH  11   2
TORSDOF 4
ENDMDL
MODEL 4
REMARK VINA RESULT:      -0.9      3.295      4.216
REMARK  Name = 26743862
REMARK  5 active torsions:
REMARK  status: ('A' for Active; 'I' for Inactive)
REMARK    1  A    between atoms: O_2  and  C_11
REMARK    2  A    between atoms: N_4  and  C_7
REMARK    3  A    between atoms: C_8  and  C_14
REMARK    4  A    between atoms: C_17  and  C_18
REMARK    5  A    between atoms: C_21  and  C_24
REMARK                            x       y       z     vdW  Elec       q    Type
REMARK                         _______ _______ _______ _____ _____    ______ ____
ROOT
ATOM      4  N   UNL     1      -3.745   1.066  25.201  0.00  0.00    -0.286 NA
ATOM      8  C   UNL     1      -3.007   2.248  24.715  0.00  0.00    +0.149 C 
ATOM      9  C   UNL     1      -5.164   1.416  25.157  0.00  0.00    +0.116 C 
ATOM     10  C   UNL     1      -3.911   3.447  25.060  0.00  0.00    +0.061 C 
ATOM     11  C   UNL     1      -5.152   2.834  25.695  0.00  0.00    +0.130 C 
ENDROOT
BRANCH   4   7
ATOM      1  O   UNL     1      -3.325  -3.023  24.340  0.00  0.00    -0.380 OA
ATOM      7  C   UNL     1      -3.454  -0.148  24.441  0.00  0.00    +0.062 C 
ATOM     12  C   UNL     1      -2.334  -0.943  25.116  0.00  0.00    +0.047 C 
ATOM     13  C   UNL     1      -4.704  -1.021  24.297  0.00  0.00    +0.047 C 
ATOM     15  C   UNL     1      -2.115  -2.269  24.394  0.00  0.00    +0.161 C 
ATOM     16  C   UNL     1      -4.354  -2.341  23.620  0.00  0.00    +0.161 C 
ENDBRANCH   4   7
BRANCH   8  14
ATOM      3  O   UNL     1      -0.579   2.371  24.455  0.00  0.00    -0.336 OA
ATOM      5  N   UNL     1      -1.277   2.456  26.581  0.00  0.00    -0.190 NA
ATOM      6  N   UNL     1       0.575   2.482  25.239  0.00  0.00    -0.056 NA
ATOM     14  C   UNL     1      -1.624   2.363  25.323  0.00  0.00    +0.245 A 
ATOM     17  C   UNL     1       0.083   2.527  26.480  0.00  0.00    +0.202 A 
BRANCH  17  18
ATOM     18  C   UNL     1       0.919   2.643  27.639  0.00  0.00    +0.023 A 
ATOM     19  C   UNL     1       0.385   2.431  28.910  0.00  0.00    +0.015 A 
ATOM     20  C   UNL     1       2.268   2.967  27.494  0.00  0.00    +0.012 A 
ATOM     21  C   UNL     1       1.201   2.543  30.037  0.00  0.00    -0.050 A 
ATOM     22  C   UNL     1       3.083   3.079  28.621  0.00  0.00    +0.001 A 
ATOM     23  C   UNL     1       2.550   2.867  29.892  0.00  0.00    +0.003 A 
ATOM     24  C   UNL     1       0.629   2.317  31.395  0.00  0.00    +0.044 C 
ENDBRANCH  17  18
ENDBRANCH   8  14
BRANCH  11   2
ATOM      2  O   UNL     1      -6.313   3.548  25.318  0.00  0.00    -0.390 OA
ATOM     25  H   UNL     1      -6.085   4.086  24.541  0.00  0.00    +0.210 HD
ENDBRANCH  11   2
TORSDOF 4
ENDMDL
