MODEL 1
REMARK VINA RESULT:      -7.2      0.000      0.000
REMARK  Name = 38030163
REMARK  10 active torsions:
REMARK  status: ('A' for Active; 'I' for Inactive)
REMARK    1  A    between atoms: O_1  and  C_13
REMARK    2  A    between atoms: N_3  and  C_18
REMARK    3  A    between atoms: C_5  and  C_9
REMARK    4  A    between atoms: C_7  and  C_13
REMARK    5  A    between atoms: C_8  and  C_12
REMARK    6  A    between atoms: C_9  and  C_14
REMARK    7  A    between atoms: C_9  and  C_15
REMARK    8  A    between atoms: C_10  and  C_16
REMARK    9  A    between atoms: C_12  and  C_17
REMARK   10  A    between atoms: C_18  and  C_19
REMARK                            x       y       z     vdW  Elec       q    Type
REMARK                         _______ _______ _______ _____ _____    ______ ____
ROOT
ATOM      5  C   UNL     1      -3.362   0.681  24.885  0.00  0.00    +0.001 C 
ATOM      6  C   UNL     1      -1.961   0.719  25.512  0.00  0.00    +0.012 C 
ATOM      7  C   UNL     1      -4.188   1.915  25.330  0.00  0.00    +0.040 C 
ATOM      8  C   UNL     1      -1.184   1.992  25.127  0.00  0.00    +0.023 C 
ATOM     10  C   UNL     1      -2.031   3.239  25.286  0.00  0.00    -0.073 C 
ATOM     11  C   UNL     1      -3.370   3.183  25.389  0.00  0.00    -0.022 C 
ATOM     16  C   UNL     1      -1.298   4.549  25.370  0.00  0.00    +0.039 C 
ENDROOT
BRANCH   5   9
ATOM      9  C   UNL     1      -4.060  -0.633  25.252  0.00  0.00    -0.013 C 
ATOM     14  C   UNL     1      -4.298  -1.476  24.003  0.00  0.00    +0.007 C 
ATOM     15  C   UNL     1      -3.235  -1.405  26.276  0.00  0.00    +0.007 C 
ENDBRANCH   5   9
BRANCH   8  12
ATOM     12  C   UNL     1      -0.624   1.887  23.704  0.00  0.00    +0.103 C 
BRANCH  12  17
ATOM      2  O   UNL     1      -0.127  -0.451  24.080  0.00  0.00    -0.276 OA
ATOM      3  N   UNL     1       1.117   0.749  22.526  0.00  0.00    -0.310 N 
ATOM     17  C   UNL     1       0.125   0.592  23.482  0.00  0.00    +0.214 C 
ATOM     25  H   UNL     1       1.249   1.654  22.085  0.00  0.00    +0.149 HD
BRANCH   3  18
ATOM     18  C   UNL     1       1.992  -0.324  22.114  0.00  0.00    +0.159 C 
BRANCH  18  19
ATOM      4  N   UNL     1       3.708  -1.410  23.446  0.00  0.00    -0.258 NA
ATOM     19  C   UNL     1       3.314  -0.277  22.823  0.00  0.00    +0.058 A 
ATOM     20  C   UNL     1       4.052   0.896  22.806  0.00  0.00    +0.025 A 
ATOM     21  C   UNL     1       5.272   0.906  23.472  0.00  0.00    +0.003 A 
ATOM     22  C   UNL     1       4.900  -1.363  24.083  0.00  0.00    +0.111 A 
ATOM     23  C   UNL     1       5.712  -0.241  24.125  0.00  0.00    +0.020 A 
ENDBRANCH  18  19
ENDBRANCH   3  18
ENDBRANCH  12  17
ENDBRANCH   8  12
BRANCH   7  13
ATOM     13  C   UNL     1      -5.399   2.129  24.415  0.00  0.00    +0.163 C 
BRANCH  13   1
ATOM      1  O   UNL     1      -6.572   1.935  25.180  0.00  0.00    -0.394 OA
ATOM     24  H   UNL     1      -6.339   2.092  26.111  0.00  0.00    +0.209 HD
ENDBRANCH  13   1
ENDBRANCH   7  13
TORSDOF 7
ENDMDL
MODEL 2
REMARK VINA RESULT:      -6.9      1.343      3.026
REMARK  Name = 38030163
REMARK  10 active torsions:
REMARK  status: ('A' for Active; 'I' for Inactive)
REMARK    1  A    between atoms: O_1  and  C_13
REMARK    2  A    between atoms: N_3  and  C_18
REMARK    3  A    between atoms: C_5  and  C_9
REMARK    4  A    between atoms: C_7  and  C_13
REMARK    5  A    between atoms: C_8  and  C_12
REMARK    6  A    between atoms: C_9  and  C_14
REMARK    7  A    between atoms: C_9  and  C_15
REMARK    8  A    between atoms: C_10  and  C_16
REMARK    9  A    between atoms: C_12  and  C_17
REMARK   10  A    between atoms: C_18  and  C_19
REMARK                            x       y       z     vdW  Elec       q    Type
REMARK                         _______ _______ _______ _____ _____    ______ ____
ROOT
ATOM      5  C   UNL     1      -3.543   1.712  24.341  0.00  0.00    +0.001 C 
ATOM      6  C   UNL     1      -2.705   0.913  23.333  0.00  0.00    +0.012 C 
ATOM      7  C   UNL     1      -4.740   0.866  24.842  0.00  0.00    +0.040 C 
ATOM      8  C   UNL     1      -2.159  -0.396  23.937  0.00  0.00    +0.023 C 
ATOM     10  C   UNL     1      -3.232  -1.162  24.684  0.00  0.00    -0.073 C 
ATOM     11  C   UNL     1      -4.385  -0.585  25.068  0.00  0.00    -0.022 C 
ATOM     16  C   UNL     1      -2.970  -2.620  24.939  0.00  0.00    +0.039 C 
ENDROOT
BRANCH   5   9
ATOM      9  C   UNL     1      -4.004   3.028  23.705  0.00  0.00    -0.013 C 
ATOM     14  C   UNL     1      -3.533   4.216  24.538  0.00  0.00    +0.007 C 
ATOM     15  C   UNL     1      -3.491   3.134  22.273  0.00  0.00    +0.007 C 
ENDBRANCH   5   9
BRANCH   8  12
ATOM     12  C   UNL     1      -0.950  -0.125  24.839  0.00  0.00    +0.103 C 
BRANCH  12  17
ATOM      2  O   UNL     1       0.468   1.766  24.316  0.00  0.00    -0.276 OA
ATOM      3  N   UNL     1       0.759  -0.237  23.172  0.00  0.00    -0.310 N 
ATOM     17  C   UNL     1       0.157   0.596  24.103  0.00  0.00    +0.214 C 
ATOM     25  H   UNL     1       0.432  -1.193  23.069  0.00  0.00    +0.149 HD
BRANCH   3  18
ATOM     18  C   UNL     1       1.849   0.187  22.323  0.00  0.00    +0.159 C 
BRANCH  18  19
ATOM      4  N   UNL     1       3.378  -1.333  23.441  0.00  0.00    -0.258 NA
ATOM     19  C   UNL     1       3.187  -0.090  22.945  0.00  0.00    +0.058 A 
ATOM     20  C   UNL     1       4.141   0.915  22.980  0.00  0.00    +0.025 A 
ATOM     21  C   UNL     1       5.370   0.625  23.562  0.00  0.00    +0.003 A 
ATOM     22  C   UNL     1       4.585  -1.578  24.000  0.00  0.00    +0.111 A 
ATOM     23  C   UNL     1       5.604  -0.642  24.084  0.00  0.00    +0.020 A 
ENDBRANCH  18  19
ENDBRANCH   3  18
ENDBRANCH  12  17
ENDBRANCH   8  12
BRANCH   7  13
ATOM     13  C   UNL     1      -5.334   1.452  26.127  0.00  0.00    +0.163 C 
BRANCH  13   1
ATOM      1  O   UNL     1      -6.606   1.990  25.824  0.00  0.00    -0.394 OA
ATOM     24  H   UNL     1      -7.240   1.252  25.833  0.00  0.00    +0.209 HD
ENDBRANCH  13   1
ENDBRANCH   7  13
TORSDOF 7
ENDMDL
MODEL 3
REMARK VINA RESULT:      -5.9      3.094      5.304
REMARK  Name = 38030163
REMARK  10 active torsions:
REMARK  status: ('A' for Active; 'I' for Inactive)
REMARK    1  A    between atoms: O_1  and  C_13
REMARK    2  A    between atoms: N_3  and  C_18
REMARK    3  A    between atoms: C_5  and  C_9
REMARK    4  A    between atoms: C_7  and  C_13
REMARK    5  A    between atoms: C_8  and  C_12
REMARK    6  A    between atoms: C_9  and  C_14
REMARK    7  A    between atoms: C_9  and  C_15
REMARK    8  A    between atoms: C_10  and  C_16
REMARK    9  A    between atoms: C_12  and  C_17
REMARK   10  A    between atoms: C_18  and  C_19
REMARK                            x       y       z     vdW  Elec       q    Type
REMARK                         _______ _______ _______ _____ _____    ______ ____
ROOT
ATOM      5  C   UNL     1      -3.010   1.207  23.894  0.00  0.00    +0.001 C 
ATOM      6  C   UNL     1      -2.318   0.109  23.073  0.00  0.00    +0.012 C 
ATOM      7  C   UNL     1      -4.438   0.762  24.299  0.00  0.00    +0.040 C 
ATOM      8  C   UNL     1      -2.215  -1.220  23.846  0.00  0.00    +0.023 C 
ATOM     10  C   UNL     1      -3.529  -1.592  24.504  0.00  0.00    -0.073 C 
ATOM     11  C   UNL     1      -4.516  -0.696  24.685  0.00  0.00    -0.022 C 
ATOM     16  C   UNL     1      -3.701  -3.030  24.908  0.00  0.00    +0.039 C 
ENDROOT
BRANCH   5   9
ATOM      9  C   UNL     1      -3.026   2.517  23.099  0.00  0.00    -0.013 C 
ATOM     14  C   UNL     1      -2.642   2.262  21.645  0.00  0.00    +0.007 C 
ATOM     15  C   UNL     1      -4.398   3.177  23.189  0.00  0.00    +0.007 C 
ENDBRANCH   5   9
BRANCH   8  12
ATOM     12  C   UNL     1      -1.081  -1.172  24.876  0.00  0.00    +0.103 C 
BRANCH  12  17
ATOM      2  O   UNL     1       0.461   0.351  23.799  0.00  0.00    -0.276 OA
ATOM      3  N   UNL     1      -0.436   0.904  25.870  0.00  0.00    -0.310 N 
ATOM     17  C   UNL     1      -0.260   0.093  24.759  0.00  0.00    +0.214 C 
ATOM     25  H   UNL     1      -1.057   0.604  26.616  0.00  0.00    +0.149 HD
BRANCH   3  18
ATOM     18  C   UNL     1       0.228   2.177  26.030  0.00  0.00    +0.159 C 
BRANCH  18  19
ATOM      4  N   UNL     1      -1.888   3.306  26.420  0.00  0.00    -0.258 NA
ATOM     19  C   UNL     1      -0.699   3.331  25.776  0.00  0.00    +0.058 A 
ATOM     20  C   UNL     1      -0.305   4.342  24.915  0.00  0.00    +0.025 A 
ATOM     21  C   UNL     1      -1.187   5.395  24.702  0.00  0.00    +0.003 A 
ATOM     22  C   UNL     1      -2.719   4.346  26.189  0.00  0.00    +0.111 A 
ATOM     23  C   UNL     1      -2.418   5.405  25.347  0.00  0.00    +0.020 A 
ENDBRANCH  18  19
ENDBRANCH   3  18
ENDBRANCH  12  17
ENDBRANCH   8  12
BRANCH   7  13
ATOM     13  C   UNL     1      -4.983   1.624  25.443  0.00  0.00    +0.163 C 
BRANCH  13   1
ATOM      1  O   UNL     1      -6.385   1.724  25.295  0.00  0.00    -0.394 OA
ATOM     24  H   UNL     1      -6.778   0.953  25.739  0.00  0.00    +0.209 HD
ENDBRANCH  13   1
ENDBRANCH   7  13
TORSDOF 7
ENDMDL
MODEL 4
REMARK VINA RESULT:      -5.7      2.725      6.457
REMARK  Name = 38030163
REMARK  10 active torsions:
REMARK  status: ('A' for Active; 'I' for Inactive)
REMARK    1  A    between atoms: O_1  and  C_13
REMARK    2  A    between atoms: N_3  and  C_18
REMARK    3  A    between atoms: C_5  and  C_9
REMARK    4  A    between atoms: C_7  and  C_13
REMARK    5  A    between atoms: C_8  and  C_12
REMARK    6  A    between atoms: C_9  and  C_14
REMARK    7  A    between atoms: C_9  and  C_15
REMARK    8  A    between atoms: C_10  and  C_16
REMARK    9  A    between atoms: C_12  and  C_17
REMARK   10  A    between atoms: C_18  and  C_19
REMARK                            x       y       z     vdW  Elec       q    Type
REMARK                         _______ _______ _______ _____ _____    ______ ____
ROOT
ATOM      5  C   UNL     1      -1.663  -0.107  24.665  0.00  0.00    +0.001 C 
ATOM      6  C   UNL     1      -1.428   1.021  23.650  0.00  0.00    +0.012 C 
ATOM      7  C   UNL     1      -0.994  -1.418  24.182  0.00  0.00    +0.040 C 
ATOM      8  C   UNL     1       0.071   1.294  23.419  0.00  0.00    +0.023 C 
ATOM     10  C   UNL     1       0.850   0.012  23.200  0.00  0.00    -0.073 C 
ATOM     11  C   UNL     1       0.352  -1.191  23.535  0.00  0.00    -0.022 C 
ATOM     16  C   UNL     1       2.197   0.142  22.545  0.00  0.00    +0.039 C 
ENDROOT
BRANCH   5   9
ATOM      9  C   UNL     1      -3.167  -0.289  24.899  0.00  0.00    -0.013 C 
ATOM     14  C   UNL     1      -3.806  -1.010  23.716  0.00  0.00    +0.007 C 
ATOM     15  C   UNL     1      -3.415  -1.052  26.196  0.00  0.00    +0.007 C 
ENDBRANCH   5   9
BRANCH   8  12
ATOM     12  C   UNL     1       0.668   2.107  24.573  0.00  0.00    +0.103 C 
BRANCH  12  17
ATOM      2  O   UNL     1      -0.606   2.516  26.590  0.00  0.00    -0.276 OA
ATOM      3  N   UNL     1      -1.104   3.711  24.660  0.00  0.00    -0.310 N 
ATOM     17  C   UNL     1      -0.401   2.778  25.407  0.00  0.00    +0.214 C 
ATOM     25  H   UNL     1      -0.859   3.858  23.685  0.00  0.00    +0.149 HD
BRANCH   3  18
ATOM     18  C   UNL     1      -2.184   4.503  25.200  0.00  0.00    +0.159 C 
BRANCH  18  19
ATOM      4  N   UNL     1      -4.204   3.758  26.326  0.00  0.00    -0.258 NA
ATOM     19  C   UNL     1      -3.490   3.762  25.178  0.00  0.00    +0.058 A 
ATOM     20  C   UNL     1      -3.894   3.133  24.011  0.00  0.00    +0.025 A 
ATOM     21  C   UNL     1      -5.109   2.456  24.025  0.00  0.00    +0.003 A 
ATOM     22  C   UNL     1      -5.379   3.090  26.301  0.00  0.00    +0.111 A 
ATOM     23  C   UNL     1      -5.871   2.429  25.187  0.00  0.00    +0.020 A 
ENDBRANCH  18  19
ENDBRANCH   3  18
ENDBRANCH  12  17
ENDBRANCH   8  12
BRANCH   7  13
ATOM     13  C   UNL     1      -0.845  -2.420  25.332  0.00  0.00    +0.163 C 
BRANCH  13   1
ATOM      1  O   UNL     1       0.435  -2.249  25.907  0.00  0.00    -0.394 OA
ATOM     24  H   UNL     1       1.064  -2.756  25.366  0.00  0.00    +0.209 HD
ENDBRANCH  13   1
ENDBRANCH   7  13
TORSDOF 7
ENDMDL
MODEL 5
REMARK VINA RESULT:      -4.6     15.130     18.024
REMARK  Name = 38030163
REMARK  10 active torsions:
REMARK  status: ('A' for Active; 'I' for Inactive)
REMARK    1  A    between atoms: O_1  and  C_13
REMARK    2  A    between atoms: N_3  and  C_18
REMARK    3  A    between atoms: C_5  and  C_9
REMARK    4  A    between atoms: C_7  and  C_13
REMARK    5  A    between atoms: C_8  and  C_12
REMARK    6  A    between atoms: C_9  and  C_14
REMARK    7  A    between atoms: C_9  and  C_15
REMARK    8  A    between atoms: C_10  and  C_16
REMARK    9  A    between atoms: C_12  and  C_17
REMARK   10  A    between atoms: C_18  and  C_19
REMARK                            x       y       z     vdW  Elec       q    Type
REMARK                         _______ _______ _______ _____ _____    ______ ____
ROOT
ATOM      5  C   UNL     1      -4.870 -10.263  14.855  0.00  0.00    +0.001 C 
ATOM      6  C   UNL     1      -5.650 -10.781  13.638  0.00  0.00    +0.012 C 
ATOM      7  C   UNL     1      -3.404 -10.762  14.812  0.00  0.00    +0.040 C 
ATOM      8  C   UNL     1      -5.020 -10.329  12.307  0.00  0.00    +0.023 C 
ATOM     10  C   UNL     1      -3.520 -10.545  12.292  0.00  0.00    -0.073 C 
ATOM     11  C   UNL     1      -2.817 -10.751  13.420  0.00  0.00    -0.022 C 
ATOM     16  C   UNL     1      -2.851 -10.564  10.945  0.00  0.00    +0.039 C 
ENDROOT
BRANCH   5   9
ATOM      9  C   UNL     1      -5.579 -10.690  16.145  0.00  0.00    -0.013 C 
ATOM     14  C   UNL     1      -5.072  -9.871  17.328  0.00  0.00    +0.007 C 
ATOM     15  C   UNL     1      -7.089 -10.546  15.995  0.00  0.00    +0.007 C 
ENDBRANCH   5   9
BRANCH   8  12
ATOM     12  C   UNL     1      -5.366  -8.868  12.000  0.00  0.00    +0.103 C 
BRANCH  12  17
ATOM      2  O   UNL     1      -5.227  -8.145   9.694  0.00  0.00    -0.276 OA
ATOM      3  N   UNL     1      -7.148  -9.216  10.445  0.00  0.00    -0.310 N 
ATOM     17  C   UNL     1      -5.873  -8.689  10.586  0.00  0.00    +0.214 C 
ATOM     25  H   UNL     1      -7.603  -9.649  11.243  0.00  0.00    +0.149 HD
BRANCH   3  18
ATOM     18  C   UNL     1      -7.881  -9.185   9.200  0.00  0.00    +0.159 C 
BRANCH  18  19
ATOM      4  N   UNL     1      -9.941  -7.952   9.570  0.00  0.00    -0.258 NA
ATOM     19  C   UNL     1      -8.691  -7.929   9.055  0.00  0.00    +0.058 A 
ATOM     20  C   UNL     1      -8.134  -6.831   8.418  0.00  0.00    +0.025 A 
ATOM     21  C   UNL     1      -8.911  -5.684   8.301  0.00  0.00    +0.003 A 
ATOM     22  C   UNL     1     -10.666  -6.819   9.438  0.00  0.00    +0.111 A 
ATOM     23  C   UNL     1     -10.202  -5.669   8.818  0.00  0.00    +0.020 A 
ENDBRANCH  18  19
ENDBRANCH   3  18
ENDBRANCH  12  17
ENDBRANCH   8  12
BRANCH   7  13
ATOM     13  C   UNL     1      -2.512  -9.942  15.750  0.00  0.00    +0.163 C 
BRANCH  13   1
ATOM      1  O   UNL     1      -1.227  -9.844  15.167  0.00  0.00    -0.394 OA
ATOM     24  H   UNL     1      -0.594 -10.226  15.798  0.00  0.00    +0.209 HD
ENDBRANCH  13   1
ENDBRANCH   7  13
TORSDOF 7
ENDMDL
MODEL 6
REMARK VINA RESULT:      -4.3      2.883      4.329
REMARK  Name = 38030163
REMARK  10 active torsions:
REMARK  status: ('A' for Active; 'I' for Inactive)
REMARK    1  A    between atoms: O_1  and  C_13
REMARK    2  A    between atoms: N_3  and  C_18
REMARK    3  A    between atoms: C_5  and  C_9
REMARK    4  A    between atoms: C_7  and  C_13
REMARK    5  A    between atoms: C_8  and  C_12
REMARK    6  A    between atoms: C_9  and  C_14
REMARK    7  A    between atoms: C_9  and  C_15
REMARK    8  A    between atoms: C_10  and  C_16
REMARK    9  A    between atoms: C_12  and  C_17
REMARK   10  A    between atoms: C_18  and  C_19
REMARK                            x       y       z     vdW  Elec       q    Type
REMARK                         _______ _______ _______ _____ _____    ______ ____
ROOT
ATOM      5  C   UNL     1      -3.055   2.156  24.664  0.00  0.00    +0.001 C 
ATOM      6  C   UNL     1      -2.075   2.343  25.831  0.00  0.00    +0.012 C 
ATOM      7  C   UNL     1      -3.766   3.492  24.334  0.00  0.00    +0.040 C 
ATOM      8  C   UNL     1      -1.001   3.405  25.526  0.00  0.00    +0.023 C 
ATOM     10  C   UNL     1      -1.606   4.666  24.941  0.00  0.00    -0.073 C 
ATOM     11  C   UNL     1      -2.848   4.688  24.425  0.00  0.00    -0.022 C 
ATOM     16  C   UNL     1      -0.767   5.911  25.003  0.00  0.00    +0.039 C 
ENDROOT
BRANCH   5   9
ATOM      9  C   UNL     1      -4.058   1.046  25.000  0.00  0.00    -0.013 C 
ATOM     14  C   UNL     1      -5.373   1.647  25.486  0.00  0.00    +0.007 C 
ATOM     15  C   UNL     1      -4.287   0.151  23.787  0.00  0.00    +0.007 C 
ENDBRANCH   5   9
BRANCH   8  12
ATOM     12  C   UNL     1       0.087   2.841  24.607  0.00  0.00    +0.103 C 
BRANCH  12  17
ATOM      2  O   UNL     1      -1.126   1.432  23.056  0.00  0.00    -0.276 OA
ATOM      3  N   UNL     1       0.324   0.462  24.592  0.00  0.00    -0.310 N 
ATOM     17  C   UNL     1      -0.323   1.526  23.981  0.00  0.00    +0.214 C 
ATOM     25  H   UNL     1       0.974   0.640  25.352  0.00  0.00    +0.149 HD
BRANCH   3  18
ATOM     18  C   UNL     1       0.122  -0.914  24.199  0.00  0.00    +0.159 C 
BRANCH  18  19
ATOM      4  N   UNL     1      -1.795  -2.394  24.011  0.00  0.00    -0.258 NA
ATOM     19  C   UNL     1      -1.145  -1.482  24.770  0.00  0.00    +0.058 A 
ATOM     20  C   UNL     1      -1.579  -1.058  26.015  0.00  0.00    +0.025 A 
ATOM     21  C   UNL     1      -2.757  -1.604  26.514  0.00  0.00    +0.003 A 
ATOM     22  C   UNL     1      -2.935  -2.903  24.529  0.00  0.00    +0.111 A 
ATOM     23  C   UNL     1      -3.453  -2.545  25.764  0.00  0.00    +0.020 A 
ENDBRANCH  18  19
ENDBRANCH   3  18
ENDBRANCH  12  17
ENDBRANCH   8  12
BRANCH   7  13
ATOM     13  C   UNL     1      -4.411   3.448  22.944  0.00  0.00    +0.163 C 
BRANCH  13   1
ATOM      1  O   UNL     1      -3.463   2.932  22.031  0.00  0.00    -0.394 OA
ATOM     24  H   UNL     1      -2.624   3.396  22.192  0.00  0.00    +0.209 HD
ENDBRANCH  13   1
ENDBRANCH   7  13
TORSDOF 7
ENDMDL
MODEL 7
REMARK VINA RESULT:      -4.3     15.305     18.175
REMARK  Name = 38030163
REMARK  10 active torsions:
REMARK  status: ('A' for Active; 'I' for Inactive)
REMARK    1  A    between atoms: O_1  and  C_13
REMARK    2  A    between atoms: N_3  and  C_18
REMARK    3  A    between atoms: C_5  and  C_9
REMARK    4  A    between atoms: C_7  and  C_13
REMARK    5  A    between atoms: C_8  and  C_12
REMARK    6  A    between atoms: C_9  and  C_14
REMARK    7  A    between atoms: C_9  and  C_15
REMARK    8  A    between atoms: C_10  and  C_16
REMARK    9  A    between atoms: C_12  and  C_17
REMARK   10  A    between atoms: C_18  and  C_19
REMARK                            x       y       z     vdW  Elec       q    Type
REMARK                         _______ _______ _______ _____ _____    ______ ____
ROOT
ATOM      5  C   UNL     1      -6.697 -10.136  14.125  0.00  0.00    +0.001 C 
ATOM      6  C   UNL     1      -6.464 -10.781  12.752  0.00  0.00    +0.012 C 
ATOM      7  C   UNL     1      -5.590 -10.564  15.121  0.00  0.00    +0.040 C 
ATOM      8  C   UNL     1      -5.096 -10.400  12.154  0.00  0.00    +0.023 C 
ATOM     10  C   UNL     1      -3.978 -10.542  13.168  0.00  0.00    -0.073 C 
ATOM     11  C   UNL     1      -4.220 -10.628  14.488  0.00  0.00    -0.022 C 
ATOM     16  C   UNL     1      -2.579 -10.630  12.626  0.00  0.00    +0.039 C 
ENDROOT
BRANCH   5   9
ATOM      9  C   UNL     1      -8.095 -10.499  14.638  0.00  0.00    -0.013 C 
ATOM     14  C   UNL     1      -8.596  -9.439  15.614  0.00  0.00    +0.007 C 
ATOM     15  C   UNL     1      -9.064 -10.662  13.472  0.00  0.00    +0.007 C 
ENDBRANCH   5   9
BRANCH   8  12
ATOM     12  C   UNL     1      -5.126  -8.985  11.566  0.00  0.00    +0.103 C 
BRANCH  12  17
ATOM      2  O   UNL     1      -4.885  -9.653   9.252  0.00  0.00    -0.276 OA
ATOM      3  N   UNL     1      -6.556  -8.149   9.842  0.00  0.00    -0.310 N 
ATOM     17  C   UNL     1      -5.481  -8.988  10.096  0.00  0.00    +0.214 C 
ATOM     25  H   UNL     1      -6.985  -7.640  10.609  0.00  0.00    +0.149 HD
BRANCH   3  18
ATOM     18  C   UNL     1      -7.111  -7.954   8.523  0.00  0.00    +0.159 C 
BRANCH  18  19
ATOM      4  N   UNL     1      -8.312  -5.873   8.171  0.00  0.00    -0.258 NA
ATOM     19  C   UNL     1      -8.388  -7.165   8.560  0.00  0.00    +0.058 A 
ATOM     20  C   UNL     1      -9.555  -7.782   8.981  0.00  0.00    +0.025 A 
ATOM     21  C   UNL     1     -10.720  -7.023   9.003  0.00  0.00    +0.003 A 
ATOM     22  C   UNL     1      -9.464  -5.166   8.205  0.00  0.00    +0.111 A 
ATOM     23  C   UNL     1     -10.682  -5.690   8.610  0.00  0.00    +0.020 A 
ENDBRANCH  18  19
ENDBRANCH   3  18
ENDBRANCH  12  17
ENDBRANCH   8  12
BRANCH   7  13
ATOM     13  C   UNL     1      -5.549  -9.633  16.337  0.00  0.00    +0.163 C 
BRANCH  13   1
ATOM      1  O   UNL     1      -4.335  -9.858  17.028  0.00  0.00    -0.394 OA
ATOM     24  H   UNL     1      -4.523  -9.769  17.977  0.00  0.00    +0.209 HD
ENDBRANCH  13   1
ENDBRANCH   7  13
TORSDOF 7
ENDMDL
MODEL 8
REMARK VINA RESULT:      -4.2      3.421      6.041
REMARK  Name = 38030163
REMARK  10 active torsions:
REMARK  status: ('A' for Active; 'I' for Inactive)
REMARK    1  A    between atoms: O_1  and  C_13
REMARK    2  A    between atoms: N_3  and  C_18
REMARK    3  A    between atoms: C_5  and  C_9
REMARK    4  A    between atoms: C_7  and  C_13
REMARK    5  A    between atoms: C_8  and  C_12
REMARK    6  A    between atoms: C_9  and  C_14
REMARK    7  A    between atoms: C_9  and  C_15
REMARK    8  A    between atoms: C_10  and  C_16
REMARK    9  A    between atoms: C_12  and  C_17
REMARK   10  A    between atoms: C_18  and  C_19
REMARK                            x       y       z     vdW  Elec       q    Type
REMARK                         _______ _______ _______ _____ _____    ______ ____
ROOT
ATOM      5  C   UNL     1      -1.634   2.064  24.511  0.00  0.00    +0.001 C 
ATOM      6  C   UNL     1      -2.733   2.889  23.826  0.00  0.00    +0.012 C 
ATOM      7  C   UNL     1      -0.315   2.873  24.585  0.00  0.00    +0.040 C 
ATOM      8  C   UNL     1      -3.013   4.213  24.564  0.00  0.00    +0.023 C 
ATOM     10  C   UNL     1      -1.732   4.945  24.912  0.00  0.00    -0.073 C 
ATOM     11  C   UNL     1      -0.535   4.334  24.902  0.00  0.00    -0.022 C 
ATOM     16  C   UNL     1      -1.854   6.410  25.226  0.00  0.00    +0.039 C 
ENDROOT
BRANCH   5   9
ATOM      9  C   UNL     1      -1.445   0.735  23.771  0.00  0.00    -0.013 C 
ATOM     14  C   UNL     1      -2.215   0.746  22.453  0.00  0.00    +0.007 C 
ATOM     15  C   UNL     1       0.037   0.467  23.530  0.00  0.00    +0.007 C 
ENDBRANCH   5   9
BRANCH   8  12
ATOM     12  C   UNL     1      -3.866   3.977  25.815  0.00  0.00    +0.103 C 
BRANCH  12  17
ATOM      2  O   UNL     1      -6.159   3.248  25.553  0.00  0.00    -0.276 OA
ATOM      3  N   UNL     1      -4.437   1.697  25.376  0.00  0.00    -0.310 N 
ATOM     17  C   UNL     1      -4.964   2.965  25.571  0.00  0.00    +0.214 C 
ATOM     25  H   UNL     1      -3.431   1.562  25.409  0.00  0.00    +0.149 HD
BRANCH   3  18
ATOM     18  C   UNL     1      -5.255   0.534  25.123  0.00  0.00    +0.159 C 
BRANCH  18  19
ATOM      4  N   UNL     1      -4.688  -1.462  23.859  0.00  0.00    -0.258 NA
ATOM     19  C   UNL     1      -4.429  -0.709  24.952  0.00  0.00    +0.058 A 
ATOM     20  C   UNL     1      -3.464  -1.018  25.897  0.00  0.00    +0.025 A 
ATOM     21  C   UNL     1      -2.717  -2.175  25.709  0.00  0.00    +0.003 A 
ATOM     22  C   UNL     1      -3.941  -2.579  23.710  0.00  0.00    +0.111 A 
ATOM     23  C   UNL     1      -2.953  -2.976  24.597  0.00  0.00    +0.020 A 
ENDBRANCH  18  19
ENDBRANCH   3  18
ENDBRANCH  12  17
ENDBRANCH   8  12
BRANCH   7  13
ATOM     13  C   UNL     1       0.650   2.267  25.610  0.00  0.00    +0.163 C 
BRANCH  13   1
ATOM      1  O   UNL     1       0.032   2.311  26.881  0.00  0.00    -0.394 OA
ATOM     24  H   UNL     1       0.512   1.691  27.456  0.00  0.00    +0.209 HD
ENDBRANCH  13   1
ENDBRANCH   7  13
TORSDOF 7
ENDMDL
MODEL 9
REMARK VINA RESULT:      -3.2      3.742      6.602
REMARK  Name = 38030163
REMARK  10 active torsions:
REMARK  status: ('A' for Active; 'I' for Inactive)
REMARK    1  A    between atoms: O_1  and  C_13
REMARK    2  A    between atoms: N_3  and  C_18
REMARK    3  A    between atoms: C_5  and  C_9
REMARK    4  A    between atoms: C_7  and  C_13
REMARK    5  A    between atoms: C_8  and  C_12
REMARK    6  A    between atoms: C_9  and  C_14
REMARK    7  A    between atoms: C_9  and  C_15
REMARK    8  A    between atoms: C_10  and  C_16
REMARK    9  A    between atoms: C_12  and  C_17
REMARK   10  A    between atoms: C_18  and  C_19
REMARK                            x       y       z     vdW  Elec       q    Type
REMARK                         _______ _______ _______ _____ _____    ______ ____
ROOT
ATOM      5  C   UNL     1      -1.396   1.063  25.299  0.00  0.00    +0.001 C 
ATOM      6  C   UNL     1      -1.189  -0.075  26.309  0.00  0.00    +0.012 C 
ATOM      7  C   UNL     1      -0.718   0.719  23.949  0.00  0.00    +0.040 C 
ATOM      8  C   UNL     1      -1.759  -1.414  25.803  0.00  0.00    +0.023 C 
ATOM     10  C   UNL     1      -1.349  -1.696  24.371  0.00  0.00    -0.073 C 
ATOM     11  C   UNL     1      -0.873  -0.733  23.563  0.00  0.00    -0.022 C 
ATOM     16  C   UNL     1      -1.455  -3.121  23.904  0.00  0.00    +0.039 C 
ENDROOT
BRANCH   5   9
ATOM      9  C   UNL     1      -0.867   2.377  25.883  0.00  0.00    -0.013 C 
ATOM     14  C   UNL     1       0.102   2.099  27.028  0.00  0.00    +0.007 C 
ATOM     15  C   UNL     1      -0.196   3.210  24.796  0.00  0.00    +0.007 C 
ENDBRANCH   5   9
BRANCH   8  12
ATOM     12  C   UNL     1      -3.283  -1.458  25.955  0.00  0.00    +0.103 C 
BRANCH  12  17
ATOM      2  O   UNL     1      -4.012  -0.692  23.777  0.00  0.00    -0.276 OA
ATOM      3  N   UNL     1      -4.557   0.545  25.668  0.00  0.00    -0.310 N 
ATOM     17  C   UNL     1      -3.977  -0.519  24.993  0.00  0.00    +0.214 C 
ATOM     25  H   UNL     1      -4.476   0.601  26.679  0.00  0.00    +0.149 HD
BRANCH   3  18
ATOM     18  C   UNL     1      -5.286   1.599  25.001  0.00  0.00    +0.159 C 
BRANCH  18  19
ATOM      4  N   UNL     1      -4.199   3.354  23.721  0.00  0.00    -0.258 NA
ATOM     19  C   UNL     1      -4.504   2.880  24.950  0.00  0.00    +0.058 A 
ATOM     20  C   UNL     1      -4.140   3.501  26.134  0.00  0.00    +0.025 A 
ATOM     21  C   UNL     1      -3.417   4.685  26.051  0.00  0.00    +0.003 A 
ATOM     22  C   UNL     1      -3.495   4.508  23.680  0.00  0.00    +0.111 A 
ATOM     23  C   UNL     1      -3.084   5.205  24.805  0.00  0.00    +0.020 A 
ENDBRANCH  18  19
ENDBRANCH   3  18
ENDBRANCH  12  17
ENDBRANCH   8  12
BRANCH   7  13
ATOM     13  C   UNL     1      -1.250   1.608  22.820  0.00  0.00    +0.163 C 
BRANCH  13   1
ATOM      1  O   UNL     1      -2.619   1.310  22.627  0.00  0.00    -0.394 OA
ATOM     24  H   UNL     1      -2.783   0.440  23.029  0.00  0.00    +0.209 HD
ENDBRANCH  13   1
ENDBRANCH   7  13
TORSDOF 7
ENDMDL
