MODEL 1
REMARK VINA RESULT:      12.9      0.000      0.000
REMARK  Name = 11941660
REMARK  8 active torsions:
REMARK  status: ('A' for Active; 'I' for Inactive)
REMARK    1  A    between atoms: O_4  and  C_33
REMARK    2  A    between atoms: O_4  and  C_36
REMARK    3  A    between atoms: N_6  and  C_13
REMARK    4  A    between atoms: N_7  and  C_14
REMARK    5  A    between atoms: N_8  and  C_20
REMARK    6  A    between atoms: C_19  and  C_23
REMARK    7  A    between atoms: C_30  and  C_34
REMARK    8  A    between atoms: C_34  and  C_35
REMARK                            x       y       z     vdW  Elec       q    Type
REMARK                         _______ _______ _______ _____ _____    ______ ____
ROOT
ATOM      1  O   UNL     1      -5.454  -0.421  23.871  0.00  0.00    -0.370 OA
ATOM      2  O   UNL     1      -3.504  -0.684  26.292  0.00  0.00    -0.370 OA
ATOM     11  C   UNL     1      -3.597   0.246  25.201  0.00  0.00    +0.171 C 
ATOM     12  C   UNL     1      -4.026  -0.539  23.975  0.00  0.00    +0.171 C 
ATOM     13  C   UNL     1      -4.732   1.215  25.433  0.00  0.00    +0.130 C 
ATOM     14  C   UNL     1      -3.639  -1.964  24.298  0.00  0.00    +0.131 C 
ATOM     15  C   UNL     1      -5.933   0.456  24.901  0.00  0.00    +0.185 C 
ATOM     16  C   UNL     1      -3.784  -2.007  25.809  0.00  0.00    +0.185 C 
ENDROOT
BRANCH  13   6
ATOM      6  N   UNL     1      -4.520   2.421  24.662  0.00  0.00    -0.306 N 
ATOM      9  N   UNL     1      -2.488   2.842  25.704  0.00  0.00    -0.214 NA
ATOM     10  N   UNL     1      -3.351   4.317  24.004  0.00  0.00    -0.223 NA
ATOM     17  C   UNL     1      -3.404   3.228  24.796  0.00  0.00    +0.216 A 
ATOM     19  C   UNL     1      -1.414   3.653  25.809  0.00  0.00    +0.076 A 
ATOM     21  C   UNL     1      -2.251   5.081  24.161  0.00  0.00    +0.116 A 
ATOM     22  C   UNL     1      -1.240   4.796  25.056  0.00  0.00    +0.048 A 
ATOM     37  H   UNL     1      -5.187   2.677  23.943  0.00  0.00    +0.149 HD
BRANCH  19  23
ATOM     23  C   UNL     1      -0.429   3.242  26.780  0.00  0.00    +0.001 A 
ATOM     28  C   UNL     1      -0.806   3.031  28.106  0.00  0.00    +0.013 A 
ATOM     29  C   UNL     1       0.899   3.056  26.395  0.00  0.00    +0.013 A 
ATOM     31  C   UNL     1       0.144   2.635  29.048  0.00  0.00    +0.046 A 
ATOM     32  C   UNL     1       1.849   2.661  27.336  0.00  0.00    +0.046 A 
ATOM     33  C   UNL     1       1.472   2.450  28.663  0.00  0.00    +0.120 A 
BRANCH  33   4
ATOM      4  O   UNL     1       2.398   2.062  29.580  0.00  0.00    -0.495 OA
ATOM     36  C   UNL     1       1.941   1.849  30.916  0.00  0.00    +0.277 C 
ENDBRANCH  33   4
ENDBRANCH  19  23
ENDBRANCH  13   6
BRANCH  14   7
ATOM      3  O   UNL     1      -1.410  -0.171  24.449  0.00  0.00    -0.252 OA
ATOM      7  N   UNL     1      -2.281  -2.240  23.895  0.00  0.00    -0.292 N 
ATOM      8  N   UNL     1      -0.045  -1.850  23.537  0.00  0.00    -0.269 N 
ATOM     18  C   UNL     1      -1.246  -1.304  24.003  0.00  0.00    +0.304 C 
ATOM     38  H   UNL     1      -2.051  -3.178  23.579  0.00  0.00    +0.151 HD
ATOM     39  H   UNL     1      -0.082  -2.808  23.197  0.00  0.00    +0.156 HD
BRANCH   8  20
ATOM     20  C   UNL     1       1.225  -1.231  23.479  0.00  0.00    +0.035 A 
ATOM     24  C   UNL     1       1.350   0.052  22.946  0.00  0.00    +0.024 A 
ATOM     25  C   UNL     1       2.351  -1.903  23.953  0.00  0.00    +0.024 A 
ATOM     26  C   UNL     1       2.603   0.663  22.888  0.00  0.00    +0.013 A 
ATOM     27  C   UNL     1       3.603  -1.292  23.895  0.00  0.00    +0.013 A 
ATOM     30  C   UNL     1       3.730  -0.009  23.361  0.00  0.00    +0.017 A 
BRANCH  30  34
ATOM      5  O   UNL     1       5.156   1.869  23.348  0.00  0.00    -0.292 OA
ATOM     34  C   UNL     1       5.035   0.629  23.301  0.00  0.00    +0.160 C 
ATOM     35  C   UNL     1       6.300  -0.216  23.180  0.00  0.00    +0.091 C 
ENDBRANCH  30  34
ENDBRANCH   8  20
ENDBRANCH  14   7
TORSDOF 6
ENDMDL
MODEL 2
REMARK VINA RESULT:      13.0      1.521      2.098
REMARK  Name = 11941660
REMARK  8 active torsions:
REMARK  status: ('A' for Active; 'I' for Inactive)
REMARK    1  A    between atoms: O_4  and  C_33
REMARK    2  A    between atoms: O_4  and  C_36
REMARK    3  A    between atoms: N_6  and  C_13
REMARK    4  A    between atoms: N_7  and  C_14
REMARK    5  A    between atoms: N_8  and  C_20
REMARK    6  A    between atoms: C_19  and  C_23
REMARK    7  A    between atoms: C_30  and  C_34
REMARK    8  A    between atoms: C_34  and  C_35
REMARK                            x       y       z     vdW  Elec       q    Type
REMARK                         _______ _______ _______ _____ _____    ______ ____
ROOT
ATOM      1  O   UNL     1      -4.281  -0.731  23.058  0.00  0.00    -0.370 OA
ATOM      2  O   UNL     1      -3.063  -1.214  25.890  0.00  0.00    -0.370 OA
ATOM     11  C   UNL     1      -3.581  -0.048  25.227  0.00  0.00    +0.171 C 
ATOM     12  C   UNL     1      -3.178  -0.143  23.767  0.00  0.00    +0.171 C 
ATOM     13  C   UNL     1      -5.091  -0.090  25.196  0.00  0.00    +0.130 C 
ATOM     14  C   UNL     1      -1.996  -1.085  23.774  0.00  0.00    +0.131 C 
ATOM     15  C   UNL     1      -5.375  -0.929  23.964  0.00  0.00    +0.185 C 
ATOM     16  C   UNL     1      -2.308  -1.993  24.949  0.00  0.00    +0.185 C 
ENDROOT
BRANCH  13   6
ATOM      6  N   UNL     1      -5.620   1.246  25.027  0.00  0.00    -0.306 N 
ATOM      9  N   UNL     1      -3.631   2.223  25.718  0.00  0.00    -0.214 NA
ATOM     10  N   UNL     1      -5.527   3.565  25.076  0.00  0.00    -0.223 NA
ATOM     17  C   UNL     1      -4.894   2.395  25.285  0.00  0.00    +0.216 A 
ATOM     19  C   UNL     1      -2.953   3.365  25.960  0.00  0.00    +0.076 A 
ATOM     21  C   UNL     1      -4.791   4.665  25.338  0.00  0.00    +0.116 A 
ATOM     22  C   UNL     1      -3.487   4.626  25.786  0.00  0.00    +0.048 A 
ATOM     37  H   UNL     1      -6.553   1.367  24.650  0.00  0.00    +0.149 HD
BRANCH  19  23
ATOM     23  C   UNL     1      -1.598   3.186  26.424  0.00  0.00    +0.001 A 
ATOM     28  C   UNL     1      -1.341   3.061  27.789  0.00  0.00    +0.013 A 
ATOM     29  C   UNL     1      -0.546   3.138  25.509  0.00  0.00    +0.013 A 
ATOM     31  C   UNL     1      -0.032   2.889  28.239  0.00  0.00    +0.046 A 
ATOM     32  C   UNL     1       0.762   2.967  25.959  0.00  0.00    +0.046 A 
ATOM     33  C   UNL     1       1.020   2.842  27.324  0.00  0.00    +0.120 A 
BRANCH  33   4
ATOM      4  O   UNL     1       2.297   2.673  27.764  0.00  0.00    -0.495 OA
ATOM     36  C   UNL     1       2.504   2.674  29.176  0.00  0.00    +0.277 C 
ENDBRANCH  33   4
ENDBRANCH  19  23
ENDBRANCH  13   6
BRANCH  14   7
ATOM      3  O   UNL     1       0.622  -1.916  22.960  0.00  0.00    -0.252 OA
ATOM      7  N   UNL     1      -0.760  -0.369  23.981  0.00  0.00    -0.292 N 
ATOM      8  N   UNL     1       1.496   0.056  23.889  0.00  0.00    -0.269 N 
ATOM     18  C   UNL     1       0.483  -0.847  23.550  0.00  0.00    +0.304 C 
ATOM     38  H   UNL     1      -0.800   0.555  24.403  0.00  0.00    +0.151 HD
ATOM     39  H   UNL     1       1.210   0.899  24.381  0.00  0.00    +0.156 HD
BRANCH   8  20
ATOM     20  C   UNL     1       2.882  -0.058  23.631  0.00  0.00    +0.035 A 
ATOM     24  C   UNL     1       3.565  -1.220  23.994  0.00  0.00    +0.024 A 
ATOM     25  C   UNL     1       3.566   0.990  23.016  0.00  0.00    +0.024 A 
ATOM     26  C   UNL     1       4.932  -1.332  23.740  0.00  0.00    +0.013 A 
ATOM     27  C   UNL     1       4.933   0.877  22.763  0.00  0.00    +0.013 A 
ATOM     30  C   UNL     1       5.616  -0.283  23.125  0.00  0.00    +0.017 A 
BRANCH  30  34
ATOM      5  O   UNL     1       7.480  -1.194  22.002  0.00  0.00    -0.292 OA
ATOM     34  C   UNL     1       7.041  -0.402  22.860  0.00  0.00    +0.160 C 
ATOM     35  C   UNL     1       8.041   0.451  23.634  0.00  0.00    +0.091 C 
ENDBRANCH  30  34
ENDBRANCH   8  20
ENDBRANCH  14   7
TORSDOF 6
ENDMDL
MODEL 3
REMARK VINA RESULT:      13.9      2.595      4.551
REMARK  Name = 11941660
REMARK  8 active torsions:
REMARK  status: ('A' for Active; 'I' for Inactive)
REMARK    1  A    between atoms: O_4  and  C_33
REMARK    2  A    between atoms: O_4  and  C_36
REMARK    3  A    between atoms: N_6  and  C_13
REMARK    4  A    between atoms: N_7  and  C_14
REMARK    5  A    between atoms: N_8  and  C_20
REMARK    6  A    between atoms: C_19  and  C_23
REMARK    7  A    between atoms: C_30  and  C_34
REMARK    8  A    between atoms: C_34  and  C_35
REMARK                            x       y       z     vdW  Elec       q    Type
REMARK                         _______ _______ _______ _____ _____    ______ ____
ROOT
ATOM      1  O   UNL     1      -3.630   3.433  26.914  0.00  0.00    -0.370 OA
ATOM      2  O   UNL     1      -2.505   5.098  24.527  0.00  0.00    -0.370 OA
ATOM     11  C   UNL     1      -3.497   4.062  24.623  0.00  0.00    +0.171 C 
ATOM     12  C   UNL     1      -3.014   3.073  25.667  0.00  0.00    +0.171 C 
ATOM     13  C   UNL     1      -4.777   4.615  25.204  0.00  0.00    +0.130 C 
ATOM     14  C   UNL     1      -1.522   3.304  25.731  0.00  0.00    +0.131 C 
ATOM     15  C   UNL     1      -4.529   4.530  26.698  0.00  0.00    +0.185 C 
ATOM     16  C   UNL     1      -1.407   4.781  25.396  0.00  0.00    +0.185 C 
ENDROOT
BRANCH  13   6
ATOM      6  N   UNL     1      -5.894   3.773  24.832  0.00  0.00    -0.306 N 
ATOM      9  N   UNL     1      -4.588   1.854  24.893  0.00  0.00    -0.214 NA
ATOM     10  N   UNL     1      -6.930   1.755  24.332  0.00  0.00    -0.223 NA
ATOM     17  C   UNL     1      -5.799   2.401  24.679  0.00  0.00    +0.216 A 
ATOM     19  C   UNL     1      -4.533   0.514  24.735  0.00  0.00    +0.076 A 
ATOM     21  C   UNL     1      -6.802   0.420  24.191  0.00  0.00    +0.116 A 
ATOM     22  C   UNL     1      -5.618  -0.261  24.382  0.00  0.00    +0.048 A 
ATOM     37  H   UNL     1      -6.813   4.184  24.724  0.00  0.00    +0.149 HD
BRANCH  19  23
ATOM     23  C   UNL     1      -3.236  -0.076  24.965  0.00  0.00    +0.001 A 
ATOM     28  C   UNL     1      -2.436  -0.441  23.882  0.00  0.00    +0.013 A 
ATOM     29  C   UNL     1      -2.782  -0.283  26.268  0.00  0.00    +0.013 A 
ATOM     31  C   UNL     1      -1.183  -1.014  24.102  0.00  0.00    +0.046 A 
ATOM     32  C   UNL     1      -1.530  -0.856  26.487  0.00  0.00    +0.046 A 
ATOM     33  C   UNL     1      -0.730  -1.221  25.404  0.00  0.00    +0.120 A 
BRANCH  33   4
ATOM      4  O   UNL     1       0.493  -1.777  25.618  0.00  0.00    -0.495 OA
ATOM     36  C   UNL     1       0.570  -3.203  25.603  0.00  0.00    +0.277 C 
ENDBRANCH  33   4
ENDBRANCH  19  23
ENDBRANCH  13   6
BRANCH  14   7
ATOM      3  O   UNL     1       1.183   2.377  25.900  0.00  0.00    -0.252 OA
ATOM      7  N   UNL     1      -0.826   2.493  24.761  0.00  0.00    -0.292 N 
ATOM      8  N   UNL     1       0.907   1.309  23.826  0.00  0.00    -0.269 N 
ATOM     18  C   UNL     1       0.502   2.081  24.920  0.00  0.00    +0.304 C 
ATOM     38  H   UNL     1      -1.343   2.151  23.956  0.00  0.00    +0.151 HD
ATOM     39  H   UNL     1       0.217   1.158  23.094  0.00  0.00    +0.156 HD
BRANCH   8  20
ATOM     20  C   UNL     1       2.168   0.708  23.608  0.00  0.00    +0.035 A 
ATOM     24  C   UNL     1       2.334  -0.661  23.821  0.00  0.00    +0.024 A 
ATOM     25  C   UNL     1       3.246   1.483  23.180  0.00  0.00    +0.024 A 
ATOM     26  C   UNL     1       3.578  -1.254  23.606  0.00  0.00    +0.013 A 
ATOM     27  C   UNL     1       4.489   0.890  22.965  0.00  0.00    +0.013 A 
ATOM     30  C   UNL     1       4.656  -0.478  23.179  0.00  0.00    +0.017 A 
BRANCH  30  34
ATOM      5  O   UNL     1       6.087  -2.338  22.935  0.00  0.00    -0.292 OA
ATOM     34  C   UNL     1       5.953  -1.098  22.954  0.00  0.00    +0.160 C 
ATOM     35  C   UNL     1       7.190  -0.234  22.731  0.00  0.00    +0.091 C 
ENDBRANCH  30  34
ENDBRANCH   8  20
ENDBRANCH  14   7
TORSDOF 6
ENDMDL
MODEL 4
REMARK VINA RESULT:      14.4      1.774      5.699
REMARK  Name = 11941660
REMARK  8 active torsions:
REMARK  status: ('A' for Active; 'I' for Inactive)
REMARK    1  A    between atoms: O_4  and  C_33
REMARK    2  A    between atoms: O_4  and  C_36
REMARK    3  A    between atoms: N_6  and  C_13
REMARK    4  A    between atoms: N_7  and  C_14
REMARK    5  A    between atoms: N_8  and  C_20
REMARK    6  A    between atoms: C_19  and  C_23
REMARK    7  A    between atoms: C_30  and  C_34
REMARK    8  A    between atoms: C_34  and  C_35
REMARK                            x       y       z     vdW  Elec       q    Type
REMARK                         _______ _______ _______ _____ _____    ______ ____
ROOT
ATOM      1  O   UNL     1      -6.552   1.945  25.034  0.00  0.00    -0.370 OA
ATOM      2  O   UNL     1      -4.008   2.762  23.422  0.00  0.00    -0.370 OA
ATOM     11  C   UNL     1      -4.288   1.694  24.343  0.00  0.00    +0.171 C 
ATOM     12  C   UNL     1      -5.202   2.255  25.417  0.00  0.00    +0.171 C 
ATOM     13  C   UNL     1      -5.121   0.628  23.671  0.00  0.00    +0.130 C 
ATOM     14  C   UNL     1      -4.967   3.747  25.356  0.00  0.00    +0.131 C 
ATOM     15  C   UNL     1      -6.534   1.155  23.837  0.00  0.00    +0.185 C 
ATOM     16  C   UNL     1      -4.635   3.965  23.891  0.00  0.00    +0.185 C 
ENDROOT
BRANCH  13   6
ATOM      6  N   UNL     1      -4.971  -0.631  24.369  0.00  0.00    -0.306 N 
ATOM      9  N   UNL     1      -2.655  -0.541  24.225  0.00  0.00    -0.214 NA
ATOM     10  N   UNL     1      -3.771  -2.385  25.305  0.00  0.00    -0.223 NA
ATOM     17  C   UNL     1      -3.745  -1.211  24.645  0.00  0.00    +0.216 A 
ATOM     19  C   UNL     1      -1.477  -1.136  24.511  0.00  0.00    +0.076 A 
ATOM     21  C   UNL     1      -2.560  -2.922  25.557  0.00  0.00    +0.116 A 
ATOM     22  C   UNL     1      -1.368  -2.337  25.181  0.00  0.00    +0.048 A 
ATOM     37  H   UNL     1      -5.793  -1.102  24.728  0.00  0.00    +0.149 HD
BRANCH  19  23
ATOM     23  C   UNL     1      -0.306  -0.422  24.064  0.00  0.00    +0.001 A 
ATOM     28  C   UNL     1      -0.124   0.912  24.430  0.00  0.00    +0.013 A 
ATOM     29  C   UNL     1       0.642  -1.062  23.266  0.00  0.00    +0.013 A 
ATOM     31  C   UNL     1       1.007   1.606  23.997  0.00  0.00    +0.046 A 
ATOM     32  C   UNL     1       1.772  -0.368  22.833  0.00  0.00    +0.046 A 
ATOM     33  C   UNL     1       1.954   0.966  23.198  0.00  0.00    +0.120 A 
BRANCH  33   4
ATOM      4  O   UNL     1       3.058   1.642  22.778  0.00  0.00    -0.495 OA
ATOM     36  C   UNL     1       4.304   0.947  22.828  0.00  0.00    +0.277 C 
ENDBRANCH  33   4
ENDBRANCH  19  23
ENDBRANCH  13   6
BRANCH  14   7
ATOM      3  O   UNL     1      -2.696   2.149  26.061  0.00  0.00    -0.252 OA
ATOM      7  N   UNL     1      -3.868   4.137  26.206  0.00  0.00    -0.292 N 
ATOM      8  N   UNL     1      -1.883   3.939  27.345  0.00  0.00    -0.269 N 
ATOM     18  C   UNL     1      -2.792   3.293  26.502  0.00  0.00    +0.304 C 
ATOM     38  H   UNL     1      -3.841   5.091  26.554  0.00  0.00    +0.151 HD
ATOM     39  H   UNL     1      -2.113   4.891  27.620  0.00  0.00    +0.156 HD
BRANCH   8  20
ATOM     20  C   UNL     1      -0.672   3.430  27.870  0.00  0.00    +0.035 A 
ATOM     24  C   UNL     1       0.395   3.153  27.015  0.00  0.00    +0.024 A 
ATOM     25  C   UNL     1      -0.545   3.205  29.240  0.00  0.00    +0.024 A 
ATOM     26  C   UNL     1       1.589   2.650  27.532  0.00  0.00    +0.013 A 
ATOM     27  C   UNL     1       0.649   2.702  29.756  0.00  0.00    +0.013 A 
ATOM     30  C   UNL     1       1.716   2.424  28.903  0.00  0.00    +0.017 A 
BRANCH  30  34
ATOM      5  O   UNL     1       2.993   1.272  30.517  0.00  0.00    -0.292 OA
ATOM     34  C   UNL     1       2.962   1.901  29.441  0.00  0.00    +0.160 C 
ATOM     35  C   UNL     1       4.272   2.113  28.690  0.00  0.00    +0.091 C 
ENDBRANCH  30  34
ENDBRANCH   8  20
ENDBRANCH  14   7
TORSDOF 6
ENDMDL
