MODEL 1
REMARK VINA RESULT:      -2.9      0.000      0.000
REMARK  Name = 75368584
REMARK  6 active torsions:
REMARK  status: ('A' for Active; 'I' for Inactive)
REMARK    1  A    between atoms: N_4  and  C_13
REMARK    2  A    between atoms: N_5  and  C_14
REMARK    3  A    between atoms: N_6  and  C_23
REMARK    4  A    between atoms: C_13  and  C_15
REMARK    5  A    between atoms: C_14  and  C_16
REMARK    6  A    between atoms: C_27  and  C_28
REMARK                            x       y       z     vdW  Elec       q    Type
REMARK                         _______ _______ _______ _____ _____    ______ ____
ROOT
ATOM      1  O   UNL     1     -10.229  -9.025  10.841  0.00  0.00    -0.252 OA
ATOM      3  N   UNL     1      -7.934  -9.203  11.310  0.00  0.00    -0.278 N 
ATOM      4  N   UNL     1      -5.231  -9.900  10.967  0.00  0.00    -0.295 NA
ATOM      5  N   UNL     1      -9.395  -9.616  12.966  0.00  0.00    -0.279 N 
ATOM      7  C   UNL     1      -7.108  -9.407  12.481  0.00  0.00    +0.109 C 
ATOM      8  C   UNL     1      -5.961 -10.367  12.163  0.00  0.00    +0.109 C 
ATOM      9  C   UNL     1      -8.091  -9.910  13.537  0.00  0.00    +0.133 C 
ATOM     10  C   UNL     1      -7.304  -8.887  10.045  0.00  0.00    +0.125 C 
ATOM     11  C   UNL     1      -6.127  -9.833   9.795  0.00  0.00    +0.104 C 
ATOM     12  C   UNL     1      -9.303  -9.248  11.608  0.00  0.00    +0.305 C 
ENDROOT
BRANCH   4  13
ATOM     13  C   UNL     1      -4.095 -10.779  10.690  0.00  0.00    +0.119 C 
BRANCH  13  15
ATOM     15  C   UNL     1      -2.782 -10.096  10.937  0.00  0.00    -0.033 A 
ATOM     17  C   UNL     1      -1.904 -10.599  11.898  0.00  0.00    +0.007 A 
ATOM     18  C   UNL     1      -2.439  -8.957  10.208  0.00  0.00    +0.007 A 
ATOM     21  C   UNL     1      -0.683  -9.964  12.128  0.00  0.00    +0.023 A 
ATOM     22  C   UNL     1      -1.219  -8.322  10.438  0.00  0.00    +0.023 A 
ATOM     23  C   UNL     1      -0.341  -8.825  11.398  0.00  0.00    +0.033 A 
BRANCH  23   6
ATOM      2  O   UNL     1       0.275  -6.208  12.754  0.00  0.00    -0.276 OA
ATOM      6  N   UNL     1       0.879  -8.190  11.629  0.00  0.00    -0.286 N 
ATOM     27  C   UNL     1       1.110  -6.964  12.267  0.00  0.00    +0.214 C 
ATOM     28  C   UNL     1       2.579  -6.626  12.315  0.00  0.00    +0.109 C 
ATOM     29  H   UNL     1       1.699  -8.688  11.286  0.00  0.00    +0.155 HD
ENDBRANCH  23   6
ENDBRANCH  13  15
ENDBRANCH   4  13
BRANCH   5  14
ATOM     14  C   UNL     1     -10.620  -9.838  13.700  0.00  0.00    +0.144 C 
BRANCH  14  16
ATOM     16  C   UNL     1     -10.515  -9.367  15.123  0.00  0.00    -0.030 A 
ATOM     19  C   UNL     1     -10.624 -10.281  16.170  0.00  0.00    +0.005 A 
ATOM     20  C   UNL     1     -10.308  -8.015  15.396  0.00  0.00    +0.005 A 
ATOM     24  C   UNL     1     -10.527  -9.844  17.492  0.00  0.00    +0.000 A 
ATOM     25  C   UNL     1     -10.211  -7.577  16.717  0.00  0.00    +0.000 A 
ATOM     26  C   UNL     1     -10.320  -8.492  17.765  0.00  0.00    +0.000 A 
ENDBRANCH  14  16
ENDBRANCH   5  14
TORSDOF 5
ENDMDL
MODEL 2
REMARK VINA RESULT:      -0.8      1.532      2.220
REMARK  Name = 75368584
REMARK  6 active torsions:
REMARK  status: ('A' for Active; 'I' for Inactive)
REMARK    1  A    between atoms: N_4  and  C_13
REMARK    2  A    between atoms: N_5  and  C_14
REMARK    3  A    between atoms: N_6  and  C_23
REMARK    4  A    between atoms: C_13  and  C_15
REMARK    5  A    between atoms: C_14  and  C_16
REMARK    6  A    between atoms: C_27  and  C_28
REMARK                            x       y       z     vdW  Elec       q    Type
REMARK                         _______ _______ _______ _____ _____    ______ ____
ROOT
ATOM      1  O   UNL     1      -8.526 -10.542  11.100  0.00  0.00    -0.252 OA
ATOM      3  N   UNL     1      -6.345  -9.974  11.761  0.00  0.00    -0.278 N 
ATOM      4  N   UNL     1      -3.532  -9.966  11.801  0.00  0.00    -0.295 NA
ATOM      5  N   UNL     1      -7.870 -10.379  13.359  0.00  0.00    -0.279 N 
ATOM      7  C   UNL     1      -5.662  -9.670  13.001  0.00  0.00    +0.109 C 
ATOM      8  C   UNL     1      -4.281 -10.327  13.022  0.00  0.00    +0.109 C 
ATOM      9  C   UNL     1      -6.625 -10.166  14.077  0.00  0.00    +0.133 C 
ATOM     10  C   UNL     1      -5.646  -9.797  10.505  0.00  0.00    +0.125 C 
ATOM     11  C   UNL     1      -4.249 -10.417  10.591  0.00  0.00    +0.104 C 
ATOM     12  C   UNL     1      -7.688 -10.322  11.962  0.00  0.00    +0.305 C 
ENDROOT
BRANCH   4  13
ATOM     13  C   UNL     1      -2.188 -10.541  11.841  0.00  0.00    +0.119 C 
BRANCH  13  15
ATOM     15  C   UNL     1      -1.129  -9.485  11.963  0.00  0.00    -0.033 A 
ATOM     17  C   UNL     1      -0.307  -9.192  10.874  0.00  0.00    +0.007 A 
ATOM     18  C   UNL     1      -0.966  -8.795  13.165  0.00  0.00    +0.007 A 
ATOM     21  C   UNL     1       0.677  -8.210  10.987  0.00  0.00    +0.023 A 
ATOM     22  C   UNL     1       0.019  -7.813  13.278  0.00  0.00    +0.023 A 
ATOM     23  C   UNL     1       0.841  -7.521  12.189  0.00  0.00    +0.033 A 
BRANCH  23   6
ATOM      2  O   UNL     1       3.828  -7.703  11.857  0.00  0.00    -0.276 OA
ATOM      6  N   UNL     1       1.825  -6.540  12.302  0.00  0.00    -0.286 N 
ATOM     27  C   UNL     1       3.211  -6.680  12.138  0.00  0.00    +0.214 C 
ATOM     28  C   UNL     1       3.934  -5.373  12.346  0.00  0.00    +0.109 C 
ATOM     29  H   UNL     1       1.486  -5.608  12.533  0.00  0.00    +0.155 HD
ENDBRANCH  23   6
ENDBRANCH  13  15
ENDBRANCH   4  13
BRANCH   5  14
ATOM     14  C   UNL     1      -9.092 -10.751  14.037  0.00  0.00    +0.144 C 
BRANCH  14  16
ATOM     16  C   UNL     1      -9.426  -9.804  15.153  0.00  0.00    -0.030 A 
ATOM     19  C   UNL     1      -9.955  -8.546  14.866  0.00  0.00    +0.005 A 
ATOM     20  C   UNL     1      -9.206 -10.182  16.478  0.00  0.00    +0.005 A 
ATOM     24  C   UNL     1     -10.265  -7.666  15.903  0.00  0.00    +0.000 A 
ATOM     25  C   UNL     1      -9.515  -9.302  17.516  0.00  0.00    +0.000 A 
ATOM     26  C   UNL     1     -10.046  -8.044  17.228  0.00  0.00    +0.000 A 
ENDBRANCH  14  16
ENDBRANCH   5  14
TORSDOF 5
ENDMDL
