MODEL 1
REMARK VINA RESULT:       3.1      0.000      0.000
REMARK  Name = 40467589
REMARK  3 active torsions:
REMARK  status: ('A' for Active; 'I' for Inactive)
REMARK    1  A    between atoms: S_1  and  N_5
REMARK    2  A    between atoms: S_1  and  C_19
REMARK    3  A    between atoms: C_15  and  C_20
REMARK                            x       y       z     vdW  Elec       q    Type
REMARK                         _______ _______ _______ _____ _____    ______ ____
ROOT
ATOM      4  O   UNL     1      -2.055   5.785  25.821  0.00  0.00    -0.268 OA
ATOM      5  N   UNL     1      -4.288   1.719  24.084  0.00  0.00    -0.176 NA
ATOM      6  N   UNL     1      -2.107   3.977  24.332  0.00  0.00    -0.311 N 
ATOM      8  C   UNL     1      -3.990   3.706  22.612  0.00  0.00    +0.025 C 
ATOM      9  C   UNL     1      -2.208   2.023  22.752  0.00  0.00    +0.053 C 
ATOM     10  C   UNL     1      -2.943   2.963  21.800  0.00  0.00    +0.017 C 
ATOM     11  C   UNL     1      -4.992   2.726  23.241  0.00  0.00    +0.114 C 
ATOM     12  C   UNL     1      -3.207   1.008  23.341  0.00  0.00    +0.119 C 
ATOM     13  C   UNL     1      -3.277   4.561  23.662  0.00  0.00    +0.130 C 
ATOM     14  C   UNL     1      -1.496   2.795  23.868  0.00  0.00    +0.034 A 
ATOM     15  C   UNL     1      -0.331   2.372  24.424  0.00  0.00    +0.003 A 
ATOM     16  C   UNL     1      -1.572   4.739  25.386  0.00  0.00    +0.252 A 
ATOM     17  C   UNL     1       0.249   3.130  25.518  0.00  0.00    +0.015 A 
ATOM     18  C   UNL     1      -0.320   4.236  25.997  0.00  0.00    +0.071 A 
ENDROOT
BRANCH  15  20
ATOM      7  N   UNL     1       2.140   0.100  22.768  0.00  0.00    -0.263 NA
ATOM     20  C   UNL     1       0.316   1.147  23.959  0.00  0.00    +0.002 A 
ATOM     23  C   UNL     1      -0.229  -0.101  24.237  0.00  0.00    +0.011 A 
ATOM     24  C   UNL     1       1.492   1.193  23.228  0.00  0.00    +0.119 A 
ATOM     27  C   UNL     1       0.409  -1.249  23.780  0.00  0.00    +0.020 A 
ATOM     29  C   UNL     1       1.580  -1.097  23.057  0.00  0.00    +0.111 A 
ENDBRANCH  15  20
BRANCH   5   1
ATOM      1  S   UNL     1      -5.295   0.730  25.052  0.00  0.00    +0.061 S 
ATOM      2  O   UNL     1      -6.553   0.520  24.367  0.00  0.00    -0.153 OA
ATOM      3  O   UNL     1      -5.263   1.216  26.416  0.00  0.00    -0.153 OA
BRANCH   1  19
ATOM     19  C   UNL     1      -4.390  -0.785  24.995  0.00  0.00    +0.105 A 
ATOM     21  C   UNL     1      -3.495  -1.102  26.017  0.00  0.00    +0.028 A 
ATOM     22  C   UNL     1      -4.569  -1.665  23.927  0.00  0.00    +0.028 A 
ATOM     25  C   UNL     1      -2.780  -2.299  25.971  0.00  0.00    +0.002 A 
ATOM     26  C   UNL     1      -3.854  -2.861  23.882  0.00  0.00    +0.002 A 
ATOM     28  C   UNL     1      -2.959  -3.178  24.904  0.00  0.00    +0.000 A 
ENDBRANCH   1  19
ENDBRANCH   5   1
TORSDOF 3
ENDMDL
MODEL 2
REMARK VINA RESULT:       5.5      2.315      4.594
REMARK  Name = 40467589
REMARK  3 active torsions:
REMARK  status: ('A' for Active; 'I' for Inactive)
REMARK    1  A    between atoms: S_1  and  N_5
REMARK    2  A    between atoms: S_1  and  C_19
REMARK    3  A    between atoms: C_15  and  C_20
REMARK                            x       y       z     vdW  Elec       q    Type
REMARK                         _______ _______ _______ _____ _____    ______ ____
ROOT
ATOM      4  O   UNL     1      -2.469  -1.368  26.966  0.00  0.00    -0.268 OA
ATOM      5  N   UNL     1      -1.784   2.915  24.574  0.00  0.00    -0.176 NA
ATOM      6  N   UNL     1      -1.032   0.206  25.992  0.00  0.00    -0.311 N 
ATOM      8  C   UNL     1      -0.876   2.609  26.873  0.00  0.00    +0.025 C 
ATOM      9  C   UNL     1       0.470   1.924  24.937  0.00  0.00    +0.053 C 
ATOM     10  C   UNL     1       0.539   2.564  26.322  0.00  0.00    +0.017 C 
ATOM     11  C   UNL     1      -1.790   3.447  25.966  0.00  0.00    +0.114 C 
ATOM     12  C   UNL     1      -0.406   2.795  24.015  0.00  0.00    +0.119 C 
ATOM     13  C   UNL     1      -1.380   1.174  27.041  0.00  0.00    +0.130 C 
ATOM     14  C   UNL     1      -0.069   0.492  25.004  0.00  0.00    +0.034 A 
ATOM     15  C   UNL     1       0.330  -0.483  24.146  0.00  0.00    +0.003 A 
ATOM     16  C   UNL     1      -1.635  -1.059  26.115  0.00  0.00    +0.252 A 
ATOM     17  C   UNL     1      -0.273  -1.799  24.239  0.00  0.00    +0.015 A 
ATOM     18  C   UNL     1      -1.206  -2.093  25.144  0.00  0.00    +0.071 A 
ENDROOT
BRANCH  15  20
ATOM      7  N   UNL     1       1.982  -0.336  20.790  0.00  0.00    -0.263 NA
ATOM     20  C   UNL     1       1.325  -0.205  23.113  0.00  0.00    +0.002 A 
ATOM     23  C   UNL     1       2.524   0.426  23.424  0.00  0.00    +0.011 A 
ATOM     24  C   UNL     1       1.104  -0.563  21.792  0.00  0.00    +0.119 A 
ATOM     27  C   UNL     1       3.452   0.677  22.419  0.00  0.00    +0.020 A 
ATOM     29  C   UNL     1       3.137   0.279  21.130  0.00  0.00    +0.111 A 
ENDBRANCH  15  20
BRANCH   5   1
ATOM      1  S   UNL     1      -2.954   3.586  23.521  0.00  0.00    +0.061 S 
ATOM      2  O   UNL     1      -2.893   2.901  22.247  0.00  0.00    -0.153 OA
ATOM      3  O   UNL     1      -2.881   5.030  23.593  0.00  0.00    -0.153 OA
BRANCH   1  19
ATOM     19  C   UNL     1      -4.435   3.076  24.337  0.00  0.00    +0.105 A 
ATOM     21  C   UNL     1      -5.146   3.983  25.122  0.00  0.00    +0.028 A 
ATOM     22  C   UNL     1      -4.893   1.766  24.197  0.00  0.00    +0.028 A 
ATOM     25  C   UNL     1      -6.315   3.580  25.768  0.00  0.00    +0.002 A 
ATOM     26  C   UNL     1      -6.062   1.364  24.842  0.00  0.00    +0.002 A 
ATOM     28  C   UNL     1      -6.773   2.271  25.628  0.00  0.00    +0.000 A 
ENDBRANCH   1  19
ENDBRANCH   5   1
TORSDOF 3
ENDMDL
MODEL 3
REMARK VINA RESULT:       6.0      2.827      5.035
REMARK  Name = 40467589
REMARK  3 active torsions:
REMARK  status: ('A' for Active; 'I' for Inactive)
REMARK    1  A    between atoms: S_1  and  N_5
REMARK    2  A    between atoms: S_1  and  C_19
REMARK    3  A    between atoms: C_15  and  C_20
REMARK                            x       y       z     vdW  Elec       q    Type
REMARK                         _______ _______ _______ _____ _____    ______ ____
ROOT
ATOM      4  O   UNL     1      -0.230   5.868  23.634  0.00  0.00    -0.268 OA
ATOM      5  N   UNL     1      -0.496   1.043  24.718  0.00  0.00    -0.176 NA
ATOM      6  N   UNL     1      -1.094   4.126  24.940  0.00  0.00    -0.311 N 
ATOM      8  C   UNL     1       0.425   2.648  26.384  0.00  0.00    +0.025 C 
ATOM      9  C   UNL     1      -1.992   2.223  26.317  0.00  0.00    +0.053 C 
ATOM     10  C   UNL     1      -0.811   2.477  27.251  0.00  0.00    +0.017 C 
ATOM     11  C   UNL     1       0.690   1.384  25.553  0.00  0.00    +0.114 C 
ATOM     12  C   UNL     1      -1.747   0.926  25.523  0.00  0.00    +0.119 C 
ATOM     13  C   UNL     1       0.240   3.890  25.510  0.00  0.00    +0.130 C 
ATOM     14  C   UNL     1      -2.226   3.404  25.370  0.00  0.00    +0.034 A 
ATOM     15  C   UNL     1      -3.461   3.756  24.927  0.00  0.00    +0.003 A 
ATOM     16  C   UNL     1      -1.182   5.196  24.031  0.00  0.00    +0.252 A 
ATOM     17  C   UNL     1      -3.591   4.851  23.984  0.00  0.00    +0.015 A 
ATOM     18  C   UNL     1      -2.536   5.535  23.538  0.00  0.00    +0.071 A 
ENDROOT
BRANCH  15  20
ATOM      7  N   UNL     1      -6.329   2.620  27.047  0.00  0.00    -0.263 NA
ATOM     20  C   UNL     1      -4.646   3.018  25.358  0.00  0.00    +0.002 A 
ATOM     23  C   UNL     1      -5.218   2.045  24.548  0.00  0.00    +0.011 A 
ATOM     24  C   UNL     1      -5.234   3.267  26.588  0.00  0.00    +0.119 A 
ATOM     27  C   UNL     1      -6.346   1.358  24.986  0.00  0.00    +0.020 A 
ATOM     29  C   UNL     1      -6.858   1.680  26.232  0.00  0.00    +0.111 A 
ENDBRANCH  15  20
BRANCH   5   1
ATOM      1  S   UNL     1      -0.250  -0.184  23.550  0.00  0.00    +0.061 S 
ATOM      2  O   UNL     1       0.907  -0.969  23.924  0.00  0.00    -0.153 OA
ATOM      3  O   UNL     1      -0.360   0.395  22.227  0.00  0.00    -0.153 OA
BRANCH   1  19
ATOM     19  C   UNL     1      -1.686  -1.172  23.830  0.00  0.00    +0.105 A 
ATOM     21  C   UNL     1      -1.559  -2.447  24.380  0.00  0.00    +0.028 A 
ATOM     22  C   UNL     1      -2.948  -0.679  23.497  0.00  0.00    +0.028 A 
ATOM     25  C   UNL     1      -2.694  -3.228  24.601  0.00  0.00    +0.002 A 
ATOM     26  C   UNL     1      -4.082  -1.459  23.718  0.00  0.00    +0.002 A 
ATOM     28  C   UNL     1      -3.955  -2.734  24.269  0.00  0.00    +0.000 A 
ENDBRANCH   1  19
ENDBRANCH   5   1
TORSDOF 3
ENDMDL
MODEL 4
REMARK VINA RESULT:       6.4      2.839      5.214
REMARK  Name = 40467589
REMARK  3 active torsions:
REMARK  status: ('A' for Active; 'I' for Inactive)
REMARK    1  A    between atoms: S_1  and  N_5
REMARK    2  A    between atoms: S_1  and  C_19
REMARK    3  A    between atoms: C_15  and  C_20
REMARK                            x       y       z     vdW  Elec       q    Type
REMARK                         _______ _______ _______ _____ _____    ______ ____
ROOT
ATOM      4  O   UNL     1      -1.455   2.654  20.657  0.00  0.00    -0.268 OA
ATOM      5  N   UNL     1      -0.816   0.699  25.163  0.00  0.00    -0.176 NA
ATOM      6  N   UNL     1      -1.784   2.746  22.975  0.00  0.00    -0.311 N 
ATOM      8  C   UNL     1       0.187   2.910  24.607  0.00  0.00    +0.025 C 
ATOM      9  C   UNL     1      -2.109   2.802  25.467  0.00  0.00    +0.053 C 
ATOM     10  C   UNL     1      -0.811   3.605  25.515  0.00  0.00    +0.017 C 
ATOM     11  C   UNL     1       0.454   1.474  25.084  0.00  0.00    +0.114 C 
ATOM     12  C   UNL     1      -1.849   1.378  25.997  0.00  0.00    +0.119 C 
ATOM     13  C   UNL     1      -0.343   2.956  23.172  0.00  0.00    +0.130 C 
ATOM     14  C   UNL     1      -2.693   2.758  24.052  0.00  0.00    +0.034 A 
ATOM     15  C   UNL     1      -4.029   2.710  23.810  0.00  0.00    +0.003 A 
ATOM     16  C   UNL     1      -2.202   2.654  21.635  0.00  0.00    +0.252 A 
ATOM     17  C   UNL     1      -4.498   2.610  22.441  0.00  0.00    +0.015 A 
ATOM     18  C   UNL     1      -3.662   2.569  21.403  0.00  0.00    +0.071 A 
ENDROOT
BRANCH  15  20
ATOM      7  N   UNL     1      -6.341   3.986  26.462  0.00  0.00    -0.263 NA
ATOM     20  C   UNL     1      -4.987   2.718  24.914  0.00  0.00    +0.002 A 
ATOM     23  C   UNL     1      -5.455   1.530  25.464  0.00  0.00    +0.011 A 
ATOM     24  C   UNL     1      -5.457   3.908  25.443  0.00  0.00    +0.119 A 
ATOM     27  C   UNL     1      -6.366   1.569  26.514  0.00  0.00    +0.020 A 
ATOM     29  C   UNL     1      -6.774   2.811  26.973  0.00  0.00    +0.111 A 
ENDBRANCH  15  20
BRANCH   5   1
ATOM      1  S   UNL     1      -0.640  -0.983  25.426  0.00  0.00    +0.061 S 
ATOM      2  O   UNL     1      -0.656  -1.244  26.850  0.00  0.00    -0.153 OA
ATOM      3  O   UNL     1       0.432  -1.482  24.590  0.00  0.00    -0.153 OA
BRANCH   1  19
ATOM     19  C   UNL     1      -2.166  -1.564  24.754  0.00  0.00    +0.105 A 
ATOM     21  C   UNL     1      -3.043  -0.670  24.140  0.00  0.00    +0.028 A 
ATOM     22  C   UNL     1      -2.496  -2.917  24.839  0.00  0.00    +0.028 A 
ATOM     25  C   UNL     1      -4.250  -1.129  23.610  0.00  0.00    +0.002 A 
ATOM     26  C   UNL     1      -3.702  -3.375  24.309  0.00  0.00    +0.002 A 
ATOM     28  C   UNL     1      -4.579  -2.482  23.695  0.00  0.00    +0.000 A 
ENDBRANCH   1  19
ENDBRANCH   5   1
TORSDOF 3
ENDMDL
MODEL 5
REMARK VINA RESULT:       6.6      3.083      5.974
REMARK  Name = 40467589
REMARK  3 active torsions:
REMARK  status: ('A' for Active; 'I' for Inactive)
REMARK    1  A    between atoms: S_1  and  N_5
REMARK    2  A    between atoms: S_1  and  C_19
REMARK    3  A    between atoms: C_15  and  C_20
REMARK                            x       y       z     vdW  Elec       q    Type
REMARK                         _______ _______ _______ _____ _____    ______ ____
ROOT
ATOM      4  O   UNL     1      -2.583   4.784  24.530  0.00  0.00    -0.268 OA
ATOM      5  N   UNL     1       0.737   1.147  24.006  0.00  0.00    -0.176 NA
ATOM      6  N   UNL     1      -1.823   2.637  25.075  0.00  0.00    -0.311 N 
ATOM      8  C   UNL     1       0.445   2.263  26.214  0.00  0.00    +0.025 C 
ATOM      9  C   UNL     1      -0.965   0.339  25.631  0.00  0.00    +0.053 C 
ATOM     10  C   UNL     1      -0.208   1.011  26.774  0.00  0.00    +0.017 C 
ATOM     11  C   UNL     1       1.425   1.911  25.085  0.00  0.00    +0.114 C 
ATOM     12  C   UNL     1       0.029  -0.060  24.524  0.00  0.00    +0.119 C 
ATOM     13  C   UNL     1      -0.655   3.221  25.750  0.00  0.00    +0.130 C 
ATOM     14  C   UNL     1      -2.064   1.248  25.073  0.00  0.00    +0.034 A 
ATOM     15  C   UNL     1      -3.229   0.765  24.568  0.00  0.00    +0.003 A 
ATOM     16  C   UNL     1      -2.736   3.563  24.541  0.00  0.00    +0.252 A 
ATOM     17  C   UNL     1      -4.195   1.690  24.003  0.00  0.00    +0.015 A 
ATOM     18  C   UNL     1      -3.983   3.006  23.966  0.00  0.00    +0.071 A 
ENDROOT
BRANCH  15  20
ATOM      7  N   UNL     1      -3.394  -2.802  25.689  0.00  0.00    -0.263 NA
ATOM     20  C   UNL     1      -3.497  -0.671  24.553  0.00  0.00    +0.002 A 
ATOM     23  C   UNL     1      -4.084  -1.279  23.450  0.00  0.00    +0.011 A 
ATOM     24  C   UNL     1      -3.175  -1.469  25.639  0.00  0.00    +0.119 A 
ATOM     27  C   UNL     1      -4.326  -2.648  23.464  0.00  0.00    +0.020 A 
ATOM     29  C   UNL     1      -3.966  -3.359  24.598  0.00  0.00    +0.111 A 
ENDBRANCH  15  20
BRANCH   5   1
ATOM      1  S   UNL     1       1.641   0.917  22.571  0.00  0.00    +0.061 S 
ATOM      2  O   UNL     1       2.015   2.208  22.034  0.00  0.00    -0.153 OA
ATOM      3  O   UNL     1       0.971  -0.067  21.745  0.00  0.00    -0.153 OA
BRANCH   1  19
ATOM     19  C   UNL     1       3.095   0.167  23.235  0.00  0.00    +0.105 A 
ATOM     21  C   UNL     1       4.249   0.928  23.423  0.00  0.00    +0.028 A 
ATOM     22  C   UNL     1       3.090  -1.187  23.571  0.00  0.00    +0.028 A 
ATOM     25  C   UNL     1       5.398   0.335  23.947  0.00  0.00    +0.002 A 
ATOM     26  C   UNL     1       4.238  -1.779  24.096  0.00  0.00    +0.002 A 
ATOM     28  C   UNL     1       5.392  -1.019  24.283  0.00  0.00    +0.000 A 
ENDBRANCH   1  19
ENDBRANCH   5   1
TORSDOF 3
ENDMDL
MODEL 6
REMARK VINA RESULT:       6.7      2.685      4.442
REMARK  Name = 40467589
REMARK  3 active torsions:
REMARK  status: ('A' for Active; 'I' for Inactive)
REMARK    1  A    between atoms: S_1  and  N_5
REMARK    2  A    between atoms: S_1  and  C_19
REMARK    3  A    between atoms: C_15  and  C_20
REMARK                            x       y       z     vdW  Elec       q    Type
REMARK                         _______ _______ _______ _____ _____    ______ ____
ROOT
ATOM      4  O   UNL     1      -1.546   3.363  22.105  0.00  0.00    -0.268 OA
ATOM      5  N   UNL     1      -2.031  -0.556  25.094  0.00  0.00    -0.176 NA
ATOM      6  N   UNL     1      -0.651   1.916  23.716  0.00  0.00    -0.311 N 
ATOM      8  C   UNL     1      -0.353  -0.589  23.254  0.00  0.00    +0.025 C 
ATOM      9  C   UNL     1       0.266   0.335  25.443  0.00  0.00    +0.053 C 
ATOM     10  C   UNL     1       0.776  -0.492  24.265  0.00  0.00    +0.017 C 
ATOM     11  C   UNL     1      -1.582  -1.276  23.869  0.00  0.00    +0.114 C 
ATOM     12  C   UNL     1      -0.934  -0.384  26.090  0.00  0.00    +0.119 C 
ATOM     13  C   UNL     1      -0.670   0.817  22.740  0.00  0.00    +0.130 C 
ATOM     14  C   UNL     1      -0.120   1.753  25.010  0.00  0.00    +0.034 A 
ATOM     15  C   UNL     1       0.015   2.831  25.827  0.00  0.00    +0.003 A 
ATOM     16  C   UNL     1      -1.087   3.162  23.230  0.00  0.00    +0.252 A 
ATOM     17  C   UNL     1      -0.428   4.132  25.362  0.00  0.00    +0.015 A 
ATOM     18  C   UNL     1      -0.961   4.313  24.153  0.00  0.00    +0.071 A 
ENDROOT
BRANCH  15  20
ATOM      7  N   UNL     1       2.487   2.705  28.635  0.00  0.00    -0.263 NA
ATOM     20  C   UNL     1       0.561   2.682  27.174  0.00  0.00    +0.002 A 
ATOM     23  C   UNL     1      -0.264   2.387  28.253  0.00  0.00    +0.011 A 
ATOM     24  C   UNL     1       1.918   2.830  27.416  0.00  0.00    +0.119 A 
ATOM     27  C   UNL     1       0.285   2.251  29.523  0.00  0.00    +0.020 A 
ATOM     29  C   UNL     1       1.653   2.418  29.660  0.00  0.00    +0.111 A 
ENDBRANCH  15  20
BRANCH   5   1
ATOM      1  S   UNL     1      -3.540  -1.054  25.732  0.00  0.00    +0.061 S 
ATOM      2  O   UNL     1      -3.392  -1.315  27.148  0.00  0.00    -0.153 OA
ATOM      3  O   UNL     1      -4.122  -2.043  24.849  0.00  0.00    -0.153 OA
BRANCH   1  19
ATOM     19  C   UNL     1      -4.461   0.442  25.552  0.00  0.00    +0.105 A 
ATOM     21  C   UNL     1      -4.017   1.434  24.679  0.00  0.00    +0.028 A 
ATOM     22  C   UNL     1      -5.633   0.631  26.285  0.00  0.00    +0.028 A 
ATOM     25  C   UNL     1      -4.745   2.616  24.538  0.00  0.00    +0.002 A 
ATOM     26  C   UNL     1      -6.361   1.812  26.143  0.00  0.00    +0.002 A 
ATOM     28  C   UNL     1      -5.917   2.805  25.271  0.00  0.00    +0.000 A 
ENDBRANCH   1  19
ENDBRANCH   5   1
TORSDOF 3
ENDMDL
MODEL 7
REMARK VINA RESULT:       6.9      2.537      4.335
REMARK  Name = 40467589
REMARK  3 active torsions:
REMARK  status: ('A' for Active; 'I' for Inactive)
REMARK    1  A    between atoms: S_1  and  N_5
REMARK    2  A    between atoms: S_1  and  C_19
REMARK    3  A    between atoms: C_15  and  C_20
REMARK                            x       y       z     vdW  Elec       q    Type
REMARK                         _______ _______ _______ _____ _____    ______ ____
ROOT
ATOM      4  O   UNL     1       1.080   2.448  27.963  0.00  0.00    -0.268 OA
ATOM      5  N   UNL     1      -2.296   3.584  24.522  0.00  0.00    -0.176 NA
ATOM      6  N   UNL     1      -0.036   1.935  25.968  0.00  0.00    -0.311 N 
ATOM      8  C   UNL     1       0.116   3.462  23.913  0.00  0.00    +0.025 C 
ATOM      9  C   UNL     1      -1.260   1.430  23.830  0.00  0.00    +0.053 C 
ATOM     10  C   UNL     1      -0.134   2.186  23.128  0.00  0.00    +0.017 C 
ATOM     11  C   UNL     1      -1.146   4.338  23.949  0.00  0.00    +0.114 C 
ATOM     12  C   UNL     1      -2.538   2.291  23.819  0.00  0.00    +0.119 C 
ATOM     13  C   UNL     1       0.603   3.086  25.314  0.00  0.00    +0.130 C 
ATOM     14  C   UNL     1      -0.875   1.049  25.263  0.00  0.00    +0.034 A 
ATOM     15  C   UNL     1      -1.323  -0.082  25.867  0.00  0.00    +0.003 A 
ATOM     16  C   UNL     1       0.341   1.716  27.305  0.00  0.00    +0.252 A 
ATOM     17  C   UNL     1      -0.959  -0.341  27.247  0.00  0.00    +0.015 A 
ATOM     18  C   UNL     1      -0.191   0.493  27.949  0.00  0.00    +0.071 A 
ENDROOT
BRANCH  15  20
ATOM      7  N   UNL     1      -2.447  -3.081  23.929  0.00  0.00    -0.263 NA
ATOM     20  C   UNL     1      -2.196  -1.012  25.153  0.00  0.00    +0.002 A 
ATOM     23  C   UNL     1      -3.554  -0.753  25.009  0.00  0.00    +0.011 A 
ATOM     24  C   UNL     1      -1.696  -2.180  24.600  0.00  0.00    +0.119 A 
ATOM     27  C   UNL     1      -4.359  -1.657  24.325  0.00  0.00    +0.020 A 
ATOM     29  C   UNL     1      -3.763  -2.795  23.808  0.00  0.00    +0.111 A 
ENDBRANCH  15  20
BRANCH   5   1
ATOM      1  S   UNL     1      -3.692   4.513  24.865  0.00  0.00    +0.061 S 
ATOM      2  O   UNL     1      -4.144   5.156  23.650  0.00  0.00    -0.153 OA
ATOM      3  O   UNL     1      -3.463   5.280  26.072  0.00  0.00    -0.153 OA
BRANCH   1  19
ATOM     19  C   UNL     1      -4.836   3.225  25.251  0.00  0.00    +0.105 A 
ATOM     21  C   UNL     1      -5.328   2.402  24.238  0.00  0.00    +0.028 A 
ATOM     22  C   UNL     1      -5.249   3.030  26.569  0.00  0.00    +0.028 A 
ATOM     25  C   UNL     1      -6.233   1.385  24.543  0.00  0.00    +0.002 A 
ATOM     26  C   UNL     1      -6.153   2.012  26.874  0.00  0.00    +0.002 A 
ATOM     28  C   UNL     1      -6.645   1.190  25.861  0.00  0.00    +0.000 A 
ENDBRANCH   1  19
ENDBRANCH   5   1
TORSDOF 3
ENDMDL
