MODEL 1
REMARK VINA RESULT:      -4.9      0.000      0.000
REMARK  Name = 28962369
REMARK  9 active torsions:
REMARK  status: ('A' for Active; 'I' for Inactive)
REMARK    1  A    between atoms: S_1  and  N_9
REMARK    2  A    between atoms: S_1  and  C_22
REMARK    3  A    between atoms: O_4  and  C_12
REMARK    4  A    between atoms: O_5  and  C_20
REMARK    5  A    between atoms: N_8  and  C_10
REMARK    6  A    between atoms: N_9  and  C_19
REMARK    7  A    between atoms: C_11  and  C_19
REMARK    8  A    between atoms: C_13  and  C_20
REMARK    9  A    between atoms: C_16  and  C_21
REMARK                            x       y       z     vdW  Elec       q    Type
REMARK                         _______ _______ _______ _____ _____    ______ ____
ROOT
ATOM      3  O   UNL     1      -0.403   3.442  25.360  0.00  0.00    -0.366 OA
ATOM     10  C   UNL     1      -1.815   1.532  25.509  0.00  0.00    +0.118 C 
ATOM     11  C   UNL     1      -0.424   2.023  25.089  0.00  0.00    +0.154 C 
ATOM     12  C   UNL     1      -2.676   2.779  25.372  0.00  0.00    +0.165 C 
ATOM     13  C   UNL     1      -1.698   3.848  25.845  0.00  0.00    +0.174 C 
ENDROOT
BRANCH  10   8
ATOM      8  N   UNL     1      -2.315   0.355  24.820  0.00  0.00    -0.295 NA
ATOM     14  C   UNL     1      -3.783   0.313  24.872  0.00  0.00    +0.085 C 
ATOM     15  C   UNL     1      -1.729  -0.864  25.391  0.00  0.00    +0.085 C 
ATOM     16  C   UNL     1      -3.734  -2.204  24.630  0.00  0.00    -0.012 C 
ATOM     17  C   UNL     1      -4.328  -0.892  24.104  0.00  0.00    +0.018 C 
ATOM     18  C   UNL     1      -2.204  -2.110  24.641  0.00  0.00    +0.018 C 
ATOM     21  C   UNL     1      -4.204  -3.392  23.796  0.00  0.00    +0.007 C 
ENDBRANCH  10   8
BRANCH  12   4
ATOM      4  O   UNL     1      -3.045   3.010  24.019  0.00  0.00    -0.388 OA
ATOM     26  H   UNL     1      -2.875   2.192  23.523  0.00  0.00    +0.210 HD
ENDBRANCH  12   4
BRANCH  11  19
ATOM     19  C   UNL     1      -0.047   1.839  23.623  0.00  0.00    +0.139 C 
BRANCH  19   9
ATOM      9  N   UNL     1       1.339   1.348  23.532  0.00  0.00    -0.187 NA
ATOM     27  H   UNL     1       2.016   2.081  23.282  0.00  0.00    +0.148 HD
BRANCH   9   1
ATOM      1  S   UNL     1       1.655  -0.213  22.929  0.00  0.00    +0.065 S 
ATOM      6  O   UNL     1       1.494  -0.212  21.487  0.00  0.00    -0.153 OA
ATOM      7  O   UNL     1       0.949  -1.186  23.740  0.00  0.00    -0.153 OA
BRANCH   1  22
ATOM      2  S   UNL     1       4.351   0.933  22.818  0.00  0.00    -0.077 S 
ATOM     22  C   UNL     1       3.377  -0.396  23.286  0.00  0.00    +0.142 A 
ATOM     23  C   UNL     1       4.116  -1.399  23.871  0.00  0.00    +0.036 A 
ATOM     24  C   UNL     1       5.502  -1.072  23.938  0.00  0.00    +0.010 A 
ATOM     25  C   UNL     1       5.768   0.167  23.399  0.00  0.00    +0.047 A 
ENDBRANCH   1  22
ENDBRANCH   9   1
ENDBRANCH  19   9
ENDBRANCH  11  19
BRANCH  13  20
ATOM     20  C   UNL     1      -1.991   5.258  25.369  0.00  0.00    +0.190 C 
BRANCH  20   5
ATOM      5  O   UNL     1      -0.851   5.761  24.692  0.00  0.00    -0.392 OA
ATOM     28  H   UNL     1      -0.506   6.501  25.221  0.00  0.00    +0.210 HD
ENDBRANCH  20   5
ENDBRANCH  13  20
TORSDOF 8
ENDMDL
MODEL 2
REMARK VINA RESULT:      -2.9      1.858      4.584
REMARK  Name = 28962369
REMARK  9 active torsions:
REMARK  status: ('A' for Active; 'I' for Inactive)
REMARK    1  A    between atoms: S_1  and  N_9
REMARK    2  A    between atoms: S_1  and  C_22
REMARK    3  A    between atoms: O_4  and  C_12
REMARK    4  A    between atoms: O_5  and  C_20
REMARK    5  A    between atoms: N_8  and  C_10
REMARK    6  A    between atoms: N_9  and  C_19
REMARK    7  A    between atoms: C_11  and  C_19
REMARK    8  A    between atoms: C_13  and  C_20
REMARK    9  A    between atoms: C_16  and  C_21
REMARK                            x       y       z     vdW  Elec       q    Type
REMARK                         _______ _______ _______ _____ _____    ______ ____
ROOT
ATOM      3  O   UNL     1      -2.203  -1.921  23.663  0.00  0.00    -0.366 OA
ATOM     10  C   UNL     1      -2.850   0.358  23.902  0.00  0.00    +0.118 C 
ATOM     11  C   UNL     1      -1.658  -0.583  23.685  0.00  0.00    +0.154 C 
ATOM     12  C   UNL     1      -3.857  -0.525  24.625  0.00  0.00    +0.165 C 
ATOM     13  C   UNL     1      -3.620  -1.856  23.920  0.00  0.00    +0.174 C 
ENDROOT
BRANCH  10   8
ATOM      8  N   UNL     1      -2.558   1.624  24.551  0.00  0.00    -0.295 NA
ATOM     14  C   UNL     1      -3.778   2.435  24.668  0.00  0.00    +0.085 C 
ATOM     15  C   UNL     1      -1.509   2.346  23.821  0.00  0.00    +0.085 C 
ATOM     16  C   UNL     1      -2.387   4.547  24.705  0.00  0.00    -0.012 C 
ATOM     17  C   UNL     1      -3.499   3.750  25.397  0.00  0.00    +0.018 C 
ATOM     18  C   UNL     1      -1.151   3.658  24.522  0.00  0.00    +0.018 C 
ATOM     21  C   UNL     1      -2.045   5.808  25.493  0.00  0.00    +0.007 C 
ENDBRANCH  10   8
BRANCH  12   4
ATOM      4  O   UNL     1      -3.552  -0.637  26.009  0.00  0.00    -0.388 OA
ATOM     26  H   UNL     1      -3.941  -1.468  26.329  0.00  0.00    +0.210 HD
ENDBRANCH  12   4
BRANCH  11  19
ATOM     19  C   UNL     1      -0.565  -0.559  24.749  0.00  0.00    +0.139 C 
BRANCH  19   9
ATOM      9  N   UNL     1       0.719  -0.947  24.139  0.00  0.00    -0.187 NA
ATOM     27  H   UNL     1       1.343  -1.449  24.786  0.00  0.00    +0.148 HD
BRANCH   9   1
ATOM      1  S   UNL     1       1.470   0.076  23.004  0.00  0.00    +0.065 S 
ATOM      6  O   UNL     1       1.229   1.459  23.371  0.00  0.00    -0.153 OA
ATOM      7  O   UNL     1       1.154  -0.388  21.667  0.00  0.00    -0.153 OA
BRANCH   1  22
ATOM      2  S   UNL     1       4.255   0.958  22.766  0.00  0.00    -0.077 S 
ATOM     22  C   UNL     1       3.181  -0.272  23.281  0.00  0.00    +0.142 A 
ATOM     23  C   UNL     1       3.847  -1.343  23.834  0.00  0.00    +0.036 A 
ATOM     24  C   UNL     1       5.260  -1.152  23.835  0.00  0.00    +0.010 A 
ATOM     25  C   UNL     1       5.618   0.058  23.283  0.00  0.00    +0.047 A 
ENDBRANCH   1  22
ENDBRANCH   9   1
ENDBRANCH  19   9
ENDBRANCH  11  19
BRANCH  13  20
ATOM     20  C   UNL     1      -4.046  -3.089  24.693  0.00  0.00    +0.190 C 
BRANCH  20   5
ATOM      5  O   UNL     1      -3.138  -3.296  25.763  0.00  0.00    -0.392 OA
ATOM     28  H   UNL     1      -2.505  -3.976  25.475  0.00  0.00    +0.210 HD
ENDBRANCH  20   5
ENDBRANCH  13  20
TORSDOF 8
ENDMDL
MODEL 3
REMARK VINA RESULT:      -1.8      2.217      3.075
REMARK  Name = 28962369
REMARK  9 active torsions:
REMARK  status: ('A' for Active; 'I' for Inactive)
REMARK    1  A    between atoms: S_1  and  N_9
REMARK    2  A    between atoms: S_1  and  C_22
REMARK    3  A    between atoms: O_4  and  C_12
REMARK    4  A    between atoms: O_5  and  C_20
REMARK    5  A    between atoms: N_8  and  C_10
REMARK    6  A    between atoms: N_9  and  C_19
REMARK    7  A    between atoms: C_11  and  C_19
REMARK    8  A    between atoms: C_13  and  C_20
REMARK    9  A    between atoms: C_16  and  C_21
REMARK                            x       y       z     vdW  Elec       q    Type
REMARK                         _______ _______ _______ _____ _____    ______ ____
ROOT
ATOM      3  O   UNL     1      -3.798   3.954  25.278  0.00  0.00    -0.366 OA
ATOM     10  C   UNL     1      -3.760   1.587  25.531  0.00  0.00    +0.118 C 
ATOM     11  C   UNL     1      -2.946   2.805  25.075  0.00  0.00    +0.154 C 
ATOM     12  C   UNL     1      -5.198   2.046  25.343  0.00  0.00    +0.165 C 
ATOM     13  C   UNL     1      -5.083   3.508  25.756  0.00  0.00    +0.174 C 
ENDROOT
BRANCH  10   8
ATOM      8  N   UNL     1      -3.426   0.321  24.903  0.00  0.00    -0.295 NA
ATOM     14  C   UNL     1      -4.647  -0.424  24.568  0.00  0.00    +0.085 C 
ATOM     15  C   UNL     1      -2.546  -0.468  25.774  0.00  0.00    +0.085 C 
ATOM     16  C   UNL     1      -3.370  -2.604  24.698  0.00  0.00    -0.012 C 
ATOM     17  C   UNL     1      -4.315  -1.738  23.857  0.00  0.00    +0.018 C 
ATOM     18  C   UNL     1      -2.141  -1.784  25.104  0.00  0.00    +0.018 C 
ATOM     21  C   UNL     1      -2.964  -3.865  23.942  0.00  0.00    +0.007 C 
ENDBRANCH  10   8
BRANCH  12   4
ATOM      4  O   UNL     1      -5.603   1.945  23.984  0.00  0.00    -0.388 OA
ATOM     26  H   UNL     1      -5.360   2.776  23.543  0.00  0.00    +0.210 HD
ENDBRANCH  12   4
BRANCH  11  19
ATOM     19  C   UNL     1      -2.504   2.824  23.615  0.00  0.00    +0.139 C 
BRANCH  19   9
ATOM      9  N   UNL     1      -1.315   1.970  23.453  0.00  0.00    -0.187 NA
ATOM     27  H   UNL     1      -1.543   0.992  23.226  0.00  0.00    +0.148 HD
BRANCH   9   1
ATOM      1  S   UNL     1       0.058   2.221  24.428  0.00  0.00    +0.065 S 
ATOM      6  O   UNL     1      -0.145   1.584  25.715  0.00  0.00    -0.153 OA
ATOM      7  O   UNL     1       0.439   3.618  24.359  0.00  0.00    -0.153 OA
BRANCH   1  22
ATOM      2  S   UNL     1       0.764  -0.200  22.935  0.00  0.00    -0.077 S 
ATOM     22  C   UNL     1       1.293   1.305  23.555  0.00  0.00    +0.142 A 
ATOM     23  C   UNL     1       2.616   1.550  23.262  0.00  0.00    +0.036 A 
ATOM     24  C   UNL     1       3.204   0.487  22.517  0.00  0.00    +0.010 A 
ATOM     25  C   UNL     1       2.308  -0.530  22.271  0.00  0.00    +0.047 A 
ENDBRANCH   1  22
ENDBRANCH   9   1
ENDBRANCH  19   9
ENDBRANCH  11  19
BRANCH  13  20
ATOM     20  C   UNL     1      -6.163   4.427  25.216  0.00  0.00    +0.190 C 
BRANCH  20   5
ATOM      5  O   UNL     1      -6.466   5.405  26.196  0.00  0.00    -0.392 OA
ATOM     28  H   UNL     1      -6.350   6.276  25.778  0.00  0.00    +0.210 HD
ENDBRANCH  20   5
ENDBRANCH  13  20
TORSDOF 8
ENDMDL
MODEL 4
REMARK VINA RESULT:      -1.7      3.321      5.769
REMARK  Name = 28962369
REMARK  9 active torsions:
REMARK  status: ('A' for Active; 'I' for Inactive)
REMARK    1  A    between atoms: S_1  and  N_9
REMARK    2  A    between atoms: S_1  and  C_22
REMARK    3  A    between atoms: O_4  and  C_12
REMARK    4  A    between atoms: O_5  and  C_20
REMARK    5  A    between atoms: N_8  and  C_10
REMARK    6  A    between atoms: N_9  and  C_19
REMARK    7  A    between atoms: C_11  and  C_19
REMARK    8  A    between atoms: C_13  and  C_20
REMARK    9  A    between atoms: C_16  and  C_21
REMARK                            x       y       z     vdW  Elec       q    Type
REMARK                         _______ _______ _______ _____ _____    ______ ____
ROOT
ATOM      3  O   UNL     1      -2.012  -1.702  24.116  0.00  0.00    -0.366 OA
ATOM     10  C   UNL     1      -3.438   0.196  23.946  0.00  0.00    +0.118 C 
ATOM     11  C   UNL     1      -1.997  -0.260  24.206  0.00  0.00    +0.154 C 
ATOM     12  C   UNL     1      -4.263  -1.011  24.369  0.00  0.00    +0.165 C 
ATOM     13  C   UNL     1      -3.365  -2.145  23.889  0.00  0.00    +0.174 C 
ENDROOT
BRANCH  10   8
ATOM      8  N   UNL     1      -3.831   1.457  24.551  0.00  0.00    -0.295 NA
ATOM     14  C   UNL     1      -5.100   1.306  25.277  0.00  0.00    +0.085 C 
ATOM     15  C   UNL     1      -3.926   2.509  23.531  0.00  0.00    +0.085 C 
ATOM     16  C   UNL     1      -5.590   3.767  24.961  0.00  0.00    -0.012 C 
ATOM     17  C   UNL     1      -5.501   2.612  25.965  0.00  0.00    +0.018 C 
ATOM     18  C   UNL     1      -4.287   3.857  24.159  0.00  0.00    +0.018 C 
ATOM     21  C   UNL     1      -5.893   5.085  25.667  0.00  0.00    +0.007 C 
ENDBRANCH  10   8
BRANCH  12   4
ATOM      4  O   UNL     1      -4.419  -1.066  25.781  0.00  0.00    -0.388 OA
ATOM     26  H   UNL     1      -3.920  -0.324  26.161  0.00  0.00    +0.210 HD
ENDBRANCH  12   4
BRANCH  11  19
ATOM     19  C   UNL     1      -1.400   0.100  25.563  0.00  0.00    +0.139 C 
BRANCH  19   9
ATOM      9  N   UNL     1      -0.045   0.645  25.372  0.00  0.00    -0.187 NA
ATOM     27  H   UNL     1       0.414   0.915  26.252  0.00  0.00    +0.148 HD
BRANCH   9   1
ATOM      1  S   UNL     1       0.306   1.604  24.009  0.00  0.00    +0.065 S 
ATOM      6  O   UNL     1      -0.439   1.106  22.868  0.00  0.00    -0.153 OA
ATOM      7  O   UNL     1       1.741   1.790  23.917  0.00  0.00    -0.153 OA
BRANCH   1  22
ATOM      2  S   UNL     1      -1.234   3.152  25.965  0.00  0.00    -0.077 S 
ATOM     22  C   UNL     1      -0.389   3.161  24.476  0.00  0.00    +0.142 A 
ATOM     23  C   UNL     1      -0.394   4.405  23.885  0.00  0.00    +0.036 A 
ATOM     24  C   UNL     1      -1.102   5.365  24.665  0.00  0.00    +0.010 A 
ATOM     25  C   UNL     1      -1.611   4.817  25.822  0.00  0.00    +0.047 A 
ENDBRANCH   1  22
ENDBRANCH   9   1
ENDBRANCH  19   9
ENDBRANCH  11  19
BRANCH  13  20
ATOM     20  C   UNL     1      -3.576  -3.481  24.578  0.00  0.00    +0.190 C 
BRANCH  20   5
ATOM      5  O   UNL     1      -3.120  -3.383  25.917  0.00  0.00    -0.392 OA
ATOM     28  H   UNL     1      -2.755  -4.251  26.160  0.00  0.00    +0.210 HD
ENDBRANCH  20   5
ENDBRANCH  13  20
TORSDOF 8
ENDMDL
MODEL 5
REMARK VINA RESULT:      -1.6      2.811      5.764
REMARK  Name = 28962369
REMARK  9 active torsions:
REMARK  status: ('A' for Active; 'I' for Inactive)
REMARK    1  A    between atoms: S_1  and  N_9
REMARK    2  A    between atoms: S_1  and  C_22
REMARK    3  A    between atoms: O_4  and  C_12
REMARK    4  A    between atoms: O_5  and  C_20
REMARK    5  A    between atoms: N_8  and  C_10
REMARK    6  A    between atoms: N_9  and  C_19
REMARK    7  A    between atoms: C_11  and  C_19
REMARK    8  A    between atoms: C_13  and  C_20
REMARK    9  A    between atoms: C_16  and  C_21
REMARK                            x       y       z     vdW  Elec       q    Type
REMARK                         _______ _______ _______ _____ _____    ______ ____
ROOT
ATOM      3  O   UNL     1       1.442   1.662  24.473  0.00  0.00    -0.366 OA
ATOM     10  C   UNL     1      -0.712   2.616  24.126  0.00  0.00    +0.118 C 
ATOM     11  C   UNL     1       0.386   2.362  25.168  0.00  0.00    +0.154 C 
ATOM     12  C   UNL     1      -0.492   1.497  23.118  0.00  0.00    +0.165 C 
ATOM     13  C   UNL     1       1.030   1.417  23.114  0.00  0.00    +0.174 C 
ENDROOT
BRANCH  10   8
ATOM      8  N   UNL     1      -2.066   2.733  24.636  0.00  0.00    -0.295 NA
ATOM     14  C   UNL     1      -3.034   2.726  23.531  0.00  0.00    +0.085 C 
ATOM     15  C   UNL     1      -2.204   3.944  25.455  0.00  0.00    +0.085 C 
ATOM     16  C   UNL     1      -4.681   4.024  24.946  0.00  0.00    -0.012 C 
ATOM     17  C   UNL     1      -4.470   2.795  24.054  0.00  0.00    +0.018 C 
ATOM     18  C   UNL     1      -3.612   4.055  26.045  0.00  0.00    +0.018 C 
ATOM     21  C   UNL     1      -6.084   4.034  25.544  0.00  0.00    +0.007 C 
ENDBRANCH  10   8
BRANCH  12   4
ATOM      4  O   UNL     1      -1.052   0.271  23.570  0.00  0.00    -0.388 OA
ATOM     26  H   UNL     1      -0.690   0.091  24.453  0.00  0.00    +0.210 HD
ENDBRANCH  12   4
BRANCH  11  19
ATOM     19  C   UNL     1      -0.000   1.514  26.375  0.00  0.00    +0.139 C 
BRANCH  19   9
ATOM      9  N   UNL     1      -1.255   0.798  26.089  0.00  0.00    -0.187 NA
ATOM     27  H   UNL     1      -2.094   1.303  26.405  0.00  0.00    +0.148 HD
BRANCH   9   1
ATOM      1  S   UNL     1      -1.312  -0.901  26.188  0.00  0.00    +0.065 S 
ATOM      6  O   UNL     1      -1.574  -1.293  27.559  0.00  0.00    -0.153 OA
ATOM      7  O   UNL     1      -0.177  -1.455  25.476  0.00  0.00    -0.153 OA
BRANCH   1  22
ATOM      2  S   UNL     1      -2.726  -2.796  24.456  0.00  0.00    -0.077 S 
ATOM     22  C   UNL     1      -2.752  -1.270  25.230  0.00  0.00    +0.142 A 
ATOM     23  C   UNL     1      -3.913  -0.577  24.970  0.00  0.00    +0.036 A 
ATOM     24  C   UNL     1      -4.795  -1.309  24.123  0.00  0.00    +0.010 A 
ATOM     25  C   UNL     1      -4.273  -2.534  23.768  0.00  0.00    +0.047 A 
ENDBRANCH   1  22
ENDBRANCH   9   1
ENDBRANCH  19   9
ENDBRANCH  11  19
BRANCH  13  20
ATOM     20  C   UNL     1       1.613   0.098  22.645  0.00  0.00    +0.190 C 
BRANCH  20   5
ATOM      5  O   UNL     1       3.018   0.122  22.839  0.00  0.00    -0.392 OA
ATOM     28  H   UNL     1       3.286   1.056  22.872  0.00  0.00    +0.210 HD
ENDBRANCH  20   5
ENDBRANCH  13  20
TORSDOF 8
ENDMDL
MODEL 6
REMARK VINA RESULT:      -1.2      2.602      6.075
REMARK  Name = 28962369
REMARK  9 active torsions:
REMARK  status: ('A' for Active; 'I' for Inactive)
REMARK    1  A    between atoms: S_1  and  N_9
REMARK    2  A    between atoms: S_1  and  C_22
REMARK    3  A    between atoms: O_4  and  C_12
REMARK    4  A    between atoms: O_5  and  C_20
REMARK    5  A    between atoms: N_8  and  C_10
REMARK    6  A    between atoms: N_9  and  C_19
REMARK    7  A    between atoms: C_11  and  C_19
REMARK    8  A    between atoms: C_13  and  C_20
REMARK    9  A    between atoms: C_16  and  C_21
REMARK                            x       y       z     vdW  Elec       q    Type
REMARK                         _______ _______ _______ _____ _____    ______ ____
ROOT
ATOM      3  O   UNL     1       1.885   2.008  23.549  0.00  0.00    -0.366 OA
ATOM     10  C   UNL     1       0.118   0.435  23.293  0.00  0.00    +0.118 C 
ATOM     11  C   UNL     1       0.507   1.780  23.918  0.00  0.00    +0.154 C 
ATOM     12  C   UNL     1       1.451  -0.289  23.177  0.00  0.00    +0.165 C 
ATOM     13  C   UNL     1       2.369   0.870  22.809  0.00  0.00    +0.174 C 
ENDROOT
BRANCH  10   8
ATOM      8  N   UNL     1      -0.934  -0.307  23.967  0.00  0.00    -0.295 NA
ATOM     14  C   UNL     1      -0.718  -1.753  23.820  0.00  0.00    +0.085 C 
ATOM     15  C   UNL     1      -2.251   0.088  23.454  0.00  0.00    +0.085 C 
ATOM     16  C   UNL     1      -3.197  -2.166  24.106  0.00  0.00    -0.012 C 
ATOM     17  C   UNL     1      -1.787  -2.549  24.571  0.00  0.00    +0.018 C 
ATOM     18  C   UNL     1      -3.374  -0.646  24.192  0.00  0.00    +0.018 C 
ATOM     21  C   UNL     1      -4.260  -2.889  24.927  0.00  0.00    +0.007 C 
ENDBRANCH  10   8
BRANCH  12   4
ATOM      4  O   UNL     1       1.844  -0.856  24.420  0.00  0.00    -0.388 OA
ATOM     26  H   UNL     1       2.611  -0.354  24.743  0.00  0.00    +0.210 HD
ENDBRANCH  12   4
BRANCH  11  19
ATOM     19  C   UNL     1       0.425   1.877  25.439  0.00  0.00    +0.139 C 
BRANCH  19   9
ATOM      9  N   UNL     1      -0.862   2.480  25.822  0.00  0.00    -0.187 NA
ATOM     27  H   UNL     1      -1.510   1.814  26.264  0.00  0.00    +0.148 HD
BRANCH   9   1
ATOM      1  S   UNL     1      -1.565   3.685  24.847  0.00  0.00    +0.065 S 
ATOM      6  O   UNL     1      -1.140   3.499  23.472  0.00  0.00    -0.153 OA
ATOM      7  O   UNL     1      -1.400   4.973  25.492  0.00  0.00    -0.153 OA
BRANCH   1  22
ATOM      2  S   UNL     1      -4.041   3.716  26.416  0.00  0.00    -0.077 S 
ATOM     22  C   UNL     1      -3.282   3.274  24.946  0.00  0.00    +0.142 A 
ATOM     23  C   UNL     1      -4.156   2.662  24.076  0.00  0.00    +0.036 A 
ATOM     24  C   UNL     1      -5.468   2.554  24.623  0.00  0.00    +0.010 A 
ATOM     25  C   UNL     1      -5.545   3.088  25.891  0.00  0.00    +0.047 A 
ENDBRANCH   1  22
ENDBRANCH   9   1
ENDBRANCH  19   9
ENDBRANCH  11  19
BRANCH  13  20
ATOM     20  C   UNL     1       3.840   0.663  23.117  0.00  0.00    +0.190 C 
BRANCH  20   5
ATOM      5  O   UNL     1       4.076  -0.722  23.315  0.00  0.00    -0.392 OA
ATOM     28  H   UNL     1       5.014  -0.821  23.551  0.00  0.00    +0.210 HD
ENDBRANCH  20   5
ENDBRANCH  13  20
TORSDOF 8
ENDMDL
MODEL 7
REMARK VINA RESULT:      -1.0      2.437      4.976
REMARK  Name = 28962369
REMARK  9 active torsions:
REMARK  status: ('A' for Active; 'I' for Inactive)
REMARK    1  A    between atoms: S_1  and  N_9
REMARK    2  A    between atoms: S_1  and  C_22
REMARK    3  A    between atoms: O_4  and  C_12
REMARK    4  A    between atoms: O_5  and  C_20
REMARK    5  A    between atoms: N_8  and  C_10
REMARK    6  A    between atoms: N_9  and  C_19
REMARK    7  A    between atoms: C_11  and  C_19
REMARK    8  A    between atoms: C_13  and  C_20
REMARK    9  A    between atoms: C_16  and  C_21
REMARK                            x       y       z     vdW  Elec       q    Type
REMARK                         _______ _______ _______ _____ _____    ______ ____
ROOT
ATOM      3  O   UNL     1      -2.163  -1.570  24.059  0.00  0.00    -0.366 OA
ATOM     10  C   UNL     1      -3.619   0.313  24.008  0.00  0.00    +0.118 C 
ATOM     11  C   UNL     1      -2.169  -0.135  24.229  0.00  0.00    +0.154 C 
ATOM     12  C   UNL     1      -4.421  -0.928  24.372  0.00  0.00    +0.165 C 
ATOM     13  C   UNL     1      -3.511  -2.021  23.822  0.00  0.00    +0.174 C 
ENDROOT
BRANCH  10   8
ATOM      8  N   UNL     1      -4.024   1.532  24.685  0.00  0.00    -0.295 NA
ATOM     14  C   UNL     1      -5.435   1.452  25.089  0.00  0.00    +0.085 C 
ATOM     15  C   UNL     1      -3.784   2.700  23.828  0.00  0.00    +0.085 C 
ATOM     16  C   UNL     1      -5.612   3.975  25.024  0.00  0.00    -0.012 C 
ATOM     17  C   UNL     1      -5.864   2.708  25.850  0.00  0.00    +0.018 C 
ATOM     18  C   UNL     1      -4.156   3.999  24.546  0.00  0.00    +0.018 C 
ATOM     21  C   UNL     1      -5.948   5.228  25.827  0.00  0.00    +0.007 C 
ENDBRANCH  10   8
BRANCH  12   4
ATOM      4  O   UNL     1      -4.561  -1.063  25.781  0.00  0.00    -0.388 OA
ATOM     26  H   UNL     1      -3.759  -1.498  26.115  0.00  0.00    +0.210 HD
ENDBRANCH  12   4
BRANCH  11  19
ATOM     19  C   UNL     1      -1.562   0.160  25.597  0.00  0.00    +0.139 C 
BRANCH  19   9
ATOM      9  N   UNL     1      -0.130   0.467  25.442  0.00  0.00    -0.187 NA
ATOM     27  H   UNL     1       0.433   0.213  26.264  0.00  0.00    +0.148 HD
BRANCH   9   1
ATOM      1  S   UNL     1       0.358   1.858  24.590  0.00  0.00    +0.065 S 
ATOM      6  O   UNL     1       0.957   2.802  25.514  0.00  0.00    -0.153 OA
ATOM      7  O   UNL     1      -0.719   2.280  23.714  0.00  0.00    -0.153 OA
BRANCH   1  22
ATOM      2  S   UNL     1       1.183  -0.119  22.589  0.00  0.00    -0.077 S 
ATOM     22  C   UNL     1       1.642   1.216  23.557  0.00  0.00    +0.142 A 
ATOM     23  C   UNL     1       2.958   1.569  23.362  0.00  0.00    +0.036 A 
ATOM     24  C   UNL     1       3.600   0.731  22.403  0.00  0.00    +0.010 A 
ATOM     25  C   UNL     1       2.749  -0.230  21.905  0.00  0.00    +0.047 A 
ENDBRANCH   1  22
ENDBRANCH   9   1
ENDBRANCH  19   9
ENDBRANCH  11  19
BRANCH  13  20
ATOM     20  C   UNL     1      -3.694  -3.395  24.439  0.00  0.00    +0.190 C 
BRANCH  20   5
ATOM      5  O   UNL     1      -3.167  -3.381  25.756  0.00  0.00    -0.392 OA
ATOM     28  H   UNL     1      -3.744  -2.808  26.290  0.00  0.00    +0.210 HD
ENDBRANCH  20   5
ENDBRANCH  13  20
TORSDOF 8
ENDMDL
MODEL 8
REMARK VINA RESULT:      -0.9      3.485      5.453
REMARK  Name = 28962369
REMARK  9 active torsions:
REMARK  status: ('A' for Active; 'I' for Inactive)
REMARK    1  A    between atoms: S_1  and  N_9
REMARK    2  A    between atoms: S_1  and  C_22
REMARK    3  A    between atoms: O_4  and  C_12
REMARK    4  A    between atoms: O_5  and  C_20
REMARK    5  A    between atoms: N_8  and  C_10
REMARK    6  A    between atoms: N_9  and  C_19
REMARK    7  A    between atoms: C_11  and  C_19
REMARK    8  A    between atoms: C_13  and  C_20
REMARK    9  A    between atoms: C_16  and  C_21
REMARK                            x       y       z     vdW  Elec       q    Type
REMARK                         _______ _______ _______ _____ _____    ______ ____
ROOT
ATOM      3  O   UNL     1      -2.288   4.118  23.723  0.00  0.00    -0.366 OA
ATOM     10  C   UNL     1      -0.485   2.738  24.439  0.00  0.00    +0.118 C 
ATOM     11  C   UNL     1      -1.617   2.877  23.413  0.00  0.00    +0.154 C 
ATOM     12  C   UNL     1      -0.994   3.549  25.622  0.00  0.00    +0.165 C 
ATOM     13  C   UNL     1      -1.687   4.697  24.898  0.00  0.00    +0.174 C 
ENDROOT
BRANCH  10   8
ATOM      8  N   UNL     1      -0.065   1.383  24.752  0.00  0.00    -0.295 NA
ATOM     14  C   UNL     1       0.051   0.585  23.523  0.00  0.00    +0.085 C 
ATOM     15  C   UNL     1      -0.995   0.762  25.702  0.00  0.00    +0.085 C 
ATOM     16  C   UNL     1      -0.365  -1.532  24.843  0.00  0.00    -0.012 C 
ATOM     17  C   UNL     1       0.545  -0.830  23.829  0.00  0.00    +0.018 C 
ATOM     18  C   UNL     1      -0.537  -0.648  26.083  0.00  0.00    +0.018 C 
ATOM     21  C   UNL     1       0.187  -2.903  25.218  0.00  0.00    +0.007 C 
ENDBRANCH  10   8
BRANCH  12   4
ATOM      4  O   UNL     1      -1.933   2.811  26.394  0.00  0.00    -0.388 OA
ATOM     26  H   UNL     1      -2.586   2.435  25.781  0.00  0.00    +0.210 HD
ENDBRANCH  12   4
BRANCH  11  19
ATOM     19  C   UNL     1      -2.677   1.779  23.410  0.00  0.00    +0.139 C 
BRANCH  19   9
ATOM      9  N   UNL     1      -3.976   2.354  23.800  0.00  0.00    -0.187 NA
ATOM     27  H   UNL     1      -3.965   3.380  23.866  0.00  0.00    +0.148 HD
BRANCH   9   1
ATOM      1  S   UNL     1      -4.975   1.534  24.908  0.00  0.00    +0.065 S 
ATOM      6  O   UNL     1      -6.355   1.627  24.471  0.00  0.00    -0.153 OA
ATOM      7  O   UNL     1      -4.610   1.927  26.255  0.00  0.00    -0.153 OA
BRANCH   1  22
ATOM      2  S   UNL     1      -3.871  -0.895  26.123  0.00  0.00    -0.077 S 
ATOM     22  C   UNL     1      -4.448  -0.141  24.698  0.00  0.00    +0.142 A 
ATOM     23  C   UNL     1      -4.402  -0.985  23.611  0.00  0.00    +0.036 A 
ATOM     24  C   UNL     1      -3.886  -2.269  23.952  0.00  0.00    +0.010 A 
ATOM     25  C   UNL     1      -3.557  -2.356  25.286  0.00  0.00    +0.047 A 
ENDBRANCH   1  22
ENDBRANCH   9   1
ENDBRANCH  19   9
ENDBRANCH  11  19
BRANCH  13  20
ATOM     20  C   UNL     1      -2.752   5.424  25.697  0.00  0.00    +0.190 C 
BRANCH  20   5
ATOM      5  O   UNL     1      -3.886   4.582  25.824  0.00  0.00    -0.392 OA
ATOM     28  H   UNL     1      -3.578   3.667  25.710  0.00  0.00    +0.210 HD
ENDBRANCH  20   5
ENDBRANCH  13  20
TORSDOF 8
ENDMDL
