MODEL 1
REMARK VINA RESULT:      -3.9      0.000      0.000
REMARK  Name = 11912069
REMARK  10 active torsions:
REMARK  status: ('A' for Active; 'I' for Inactive)
REMARK    1  A    between atoms: S_1  and  N_5
REMARK    2  A    between atoms: S_1  and  C_17
REMARK    3  A    between atoms: N_6  and  C_18
REMARK    4  A    between atoms: N_6  and  C_21
REMARK    5  A    between atoms: C_8  and  C_14
REMARK    6  A    between atoms: C_9  and  C_13
REMARK    7  A    between atoms: C_13  and  C_15
REMARK    8  A    between atoms: C_14  and  C_16
REMARK    9  A    between atoms: C_18  and  C_22
REMARK   10  A    between atoms: C_22  and  C_26
REMARK                            x       y       z     vdW  Elec       q    Type
REMARK                         _______ _______ _______ _____ _____    ______ ____
ROOT
ATOM      5  N   UNL     1      -3.601   2.156  25.625  0.00  0.00    -0.176 NA
ATOM      8  C   UNL     1      -0.964   3.446  25.620  0.00  0.00    +0.003 C 
ATOM      9  C   UNL     1      -2.283   4.253  25.589  0.00  0.00    +0.008 C 
ATOM     10  C   UNL     1      -1.222   2.072  26.262  0.00  0.00    +0.021 C 
ATOM     11  C   UNL     1      -3.421   3.464  24.926  0.00  0.00    +0.113 C 
ATOM     12  C   UNL     1      -2.370   1.320  25.594  0.00  0.00    +0.110 C 
ENDROOT
BRANCH   5   1
ATOM      1  S   UNL     1      -5.058   1.329  25.262  0.00  0.00    +0.061 S 
ATOM      2  O   UNL     1      -5.569   1.806  23.995  0.00  0.00    -0.153 OA
ATOM      3  O   UNL     1      -5.892   1.310  26.444  0.00  0.00    -0.153 OA
BRANCH   1  17
ATOM     17  C   UNL     1      -4.430  -0.301  25.011  0.00  0.00    +0.105 A 
ATOM     19  C   UNL     1      -3.766  -0.939  26.047  0.00  0.00    +0.028 A 
ATOM     20  C   UNL     1      -4.612  -0.917  23.784  0.00  0.00    +0.028 A 
ATOM     23  C   UNL     1      -3.270  -2.227  25.849  0.00  0.00    +0.002 A 
ATOM     24  C   UNL     1      -4.116  -2.206  23.585  0.00  0.00    +0.002 A 
ATOM     25  C   UNL     1      -3.444  -2.861  24.618  0.00  0.00    +0.000 A 
ENDBRANCH   1  17
ENDBRANCH   5   1
BRANCH   9  13
ATOM     13  C   UNL     1      -2.129   5.625  24.932  0.00  0.00    +0.002 C 
ATOM     15  C   UNL     1      -0.672   5.945  24.671  0.00  0.00    +0.004 C 
ENDBRANCH   9  13
BRANCH   8  14
ATOM     14  C   UNL     1      -0.290   3.294  24.250  0.00  0.00    +0.100 C 
BRANCH  14  16
ATOM      4  O   UNL     1       1.563   1.847  24.714  0.00  0.00    -0.276 OA
ATOM      6  N   UNL     1      -0.095   1.009  23.325  0.00  0.00    -0.304 N 
ATOM     16  C   UNL     1       0.487   1.996  24.128  0.00  0.00    +0.216 C 
ATOM     21  C   UNL     1      -1.367   1.207  22.643  0.00  0.00    +0.132 C 
BRANCH   6  18
ATOM     18  C   UNL     1       0.529  -0.294  23.109  0.00  0.00    +0.122 C 
BRANCH  18  22
ATOM     22  C   UNL     1       1.507  -0.284  21.940  0.00  0.00    +0.137 C 
BRANCH  22  26
ATOM      7  N   UNL     1       3.900   0.528  22.669  0.00  0.00    -0.197 NA
ATOM     26  C   UNL     1       2.845   0.170  22.348  0.00  0.00    +0.064 C 
ENDBRANCH  22  26
ENDBRANCH  18  22
ENDBRANCH   6  18
ENDBRANCH  14  16
ENDBRANCH   8  14
TORSDOF 8
ENDMDL
MODEL 2
REMARK VINA RESULT:      -3.5      1.344      1.856
REMARK  Name = 11912069
REMARK  10 active torsions:
REMARK  status: ('A' for Active; 'I' for Inactive)
REMARK    1  A    between atoms: S_1  and  N_5
REMARK    2  A    between atoms: S_1  and  C_17
REMARK    3  A    between atoms: N_6  and  C_18
REMARK    4  A    between atoms: N_6  and  C_21
REMARK    5  A    between atoms: C_8  and  C_14
REMARK    6  A    between atoms: C_9  and  C_13
REMARK    7  A    between atoms: C_13  and  C_15
REMARK    8  A    between atoms: C_14  and  C_16
REMARK    9  A    between atoms: C_18  and  C_22
REMARK   10  A    between atoms: C_22  and  C_26
REMARK                            x       y       z     vdW  Elec       q    Type
REMARK                         _______ _______ _______ _____ _____    ______ ____
ROOT
ATOM      5  N   UNL     1      -2.702   1.739  25.255  0.00  0.00    -0.176 NA
ATOM      8  C   UNL     1       0.150   2.433  25.185  0.00  0.00    +0.003 C 
ATOM      9  C   UNL     1      -0.964   3.503  25.257  0.00  0.00    +0.008 C 
ATOM     10  C   UNL     1      -0.375   1.111  25.771  0.00  0.00    +0.021 C 
ATOM     11  C   UNL     1      -2.269   3.015  24.612  0.00  0.00    +0.113 C 
ATOM     12  C   UNL     1      -1.682   0.661  25.124  0.00  0.00    +0.110 C 
ENDROOT
BRANCH   5   1
ATOM      1  S   UNL     1      -4.315   1.264  24.923  0.00  0.00    +0.061 S 
ATOM      2  O   UNL     1      -4.705   1.787  23.631  0.00  0.00    -0.153 OA
ATOM      3  O   UNL     1      -5.124   1.500  26.099  0.00  0.00    -0.153 OA
BRANCH   1  17
ATOM     17  C   UNL     1      -4.093  -0.479  24.755  0.00  0.00    +0.105 A 
ATOM     19  C   UNL     1      -3.540  -1.196  25.804  0.00  0.00    +0.028 A 
ATOM     20  C   UNL     1      -4.476  -1.102  23.579  0.00  0.00    +0.028 A 
ATOM     23  C   UNL     1      -3.366  -2.574  25.671  0.00  0.00    +0.002 A 
ATOM     24  C   UNL     1      -4.302  -2.480  23.446  0.00  0.00    +0.002 A 
ATOM     25  C   UNL     1      -3.745  -3.215  24.493  0.00  0.00    +0.000 A 
ENDBRANCH   1  17
ENDBRANCH   5   1
BRANCH   9  13
ATOM     13  C   UNL     1      -0.541   4.846  24.661  0.00  0.00    +0.002 C 
ATOM     15  C   UNL     1      -1.573   5.918  24.942  0.00  0.00    +0.004 C 
ENDBRANCH   9  13
BRANCH   8  14
ATOM     14  C   UNL     1       0.724   2.220  23.779  0.00  0.00    +0.100 C 
BRANCH  14  16
ATOM      4  O   UNL     1       0.340  -0.146  23.754  0.00  0.00    -0.276 OA
ATOM      6  N   UNL     1       2.424   0.582  23.040  0.00  0.00    -0.304 N 
ATOM     16  C   UNL     1       1.128   0.778  23.530  0.00  0.00    +0.216 C 
ATOM     21  C   UNL     1       3.337   1.688  22.783  0.00  0.00    +0.132 C 
BRANCH   6  18
ATOM     18  C   UNL     1       2.959  -0.746  22.751  0.00  0.00    +0.122 C 
BRANCH  18  22
ATOM     22  C   UNL     1       3.931  -1.228  23.822  0.00  0.00    +0.137 C 
BRANCH  22  26
ATOM      7  N   UNL     1       6.274  -0.050  23.623  0.00  0.00    -0.197 NA
ATOM     26  C   UNL     1       5.240  -0.569  23.711  0.00  0.00    +0.064 C 
ENDBRANCH  22  26
ENDBRANCH  18  22
ENDBRANCH   6  18
ENDBRANCH  14  16
ENDBRANCH   8  14
TORSDOF 8
ENDMDL
MODEL 3
REMARK VINA RESULT:      -3.1      1.337      2.222
REMARK  Name = 11912069
REMARK  10 active torsions:
REMARK  status: ('A' for Active; 'I' for Inactive)
REMARK    1  A    between atoms: S_1  and  N_5
REMARK    2  A    between atoms: S_1  and  C_17
REMARK    3  A    between atoms: N_6  and  C_18
REMARK    4  A    between atoms: N_6  and  C_21
REMARK    5  A    between atoms: C_8  and  C_14
REMARK    6  A    between atoms: C_9  and  C_13
REMARK    7  A    between atoms: C_13  and  C_15
REMARK    8  A    between atoms: C_14  and  C_16
REMARK    9  A    between atoms: C_18  and  C_22
REMARK   10  A    between atoms: C_22  and  C_26
REMARK                            x       y       z     vdW  Elec       q    Type
REMARK                         _______ _______ _______ _____ _____    ______ ____
ROOT
ATOM      5  N   UNL     1      -4.940   2.581  25.015  0.00  0.00    -0.176 NA
ATOM      8  C   UNL     1      -2.676   4.428  24.723  0.00  0.00    +0.003 C 
ATOM      9  C   UNL     1      -3.113   3.464  23.595  0.00  0.00    +0.008 C 
ATOM     10  C   UNL     1      -3.876   4.715  25.641  0.00  0.00    +0.021 C 
ATOM     11  C   UNL     1      -3.784   2.200  24.150  0.00  0.00    +0.113 C 
ATOM     12  C   UNL     1      -4.534   3.440  26.162  0.00  0.00    +0.110 C 
ENDROOT
BRANCH   5   1
ATOM      1  S   UNL     1      -6.017   1.304  25.401  0.00  0.00    +0.061 S 
ATOM      2  O   UNL     1      -7.047   1.234  24.387  0.00  0.00    -0.153 OA
ATOM      3  O   UNL     1      -6.354   1.386  26.805  0.00  0.00    -0.153 OA
BRANCH   1  17
ATOM     17  C   UNL     1      -4.944  -0.079  25.177  0.00  0.00    +0.105 A 
ATOM     19  C   UNL     1      -4.016  -0.383  26.160  0.00  0.00    +0.028 A 
ATOM     20  C   UNL     1      -5.047  -0.838  24.023  0.00  0.00    +0.028 A 
ATOM     23  C   UNL     1      -3.169  -1.477  25.984  0.00  0.00    +0.002 A 
ATOM     24  C   UNL     1      -4.199  -1.932  23.847  0.00  0.00    +0.002 A 
ATOM     25  C   UNL     1      -3.259  -2.251  24.827  0.00  0.00    +0.000 A 
ENDBRANCH   1  17
ENDBRANCH   5   1
BRANCH   9  13
ATOM     13  C   UNL     1      -1.969   3.093  22.650  0.00  0.00    +0.002 C 
ATOM     15  C   UNL     1      -2.269   1.809  21.907  0.00  0.00    +0.004 C 
ENDBRANCH   9  13
BRANCH   8  14
ATOM     14  C   UNL     1      -1.470   3.937  25.534  0.00  0.00    +0.100 C 
BRANCH  14  16
ATOM      4  O   UNL     1       0.226   4.197  23.859  0.00  0.00    -0.276 OA
ATOM      6  N   UNL     1      -0.005   2.086  24.793  0.00  0.00    -0.304 N 
ATOM     16  C   UNL     1      -0.342   3.436  24.648  0.00  0.00    +0.216 C 
ATOM     21  C   UNL     1      -0.690   1.206  25.732  0.00  0.00    +0.132 C 
BRANCH   6  18
ATOM     18  C   UNL     1       1.057   1.456  24.013  0.00  0.00    +0.122 C 
BRANCH  18  22
ATOM     22  C   UNL     1       0.642   0.101  23.451  0.00  0.00    +0.137 C 
BRANCH  22  26
ATOM      7  N   UNL     1       1.892  -0.452  21.204  0.00  0.00    -0.197 NA
ATOM     26  C   UNL     1       1.341  -0.209  22.196  0.00  0.00    +0.064 C 
ENDBRANCH  22  26
ENDBRANCH  18  22
ENDBRANCH   6  18
ENDBRANCH  14  16
ENDBRANCH   8  14
TORSDOF 8
ENDMDL
MODEL 4
REMARK VINA RESULT:      -2.7      1.266      2.079
REMARK  Name = 11912069
REMARK  10 active torsions:
REMARK  status: ('A' for Active; 'I' for Inactive)
REMARK    1  A    between atoms: S_1  and  N_5
REMARK    2  A    between atoms: S_1  and  C_17
REMARK    3  A    between atoms: N_6  and  C_18
REMARK    4  A    between atoms: N_6  and  C_21
REMARK    5  A    between atoms: C_8  and  C_14
REMARK    6  A    between atoms: C_9  and  C_13
REMARK    7  A    between atoms: C_13  and  C_15
REMARK    8  A    between atoms: C_14  and  C_16
REMARK    9  A    between atoms: C_18  and  C_22
REMARK   10  A    between atoms: C_22  and  C_26
REMARK                            x       y       z     vdW  Elec       q    Type
REMARK                         _______ _______ _______ _____ _____    ______ ____
ROOT
ATOM      5  N   UNL     1      -3.224   2.213  25.554  0.00  0.00    -0.176 NA
ATOM      8  C   UNL     1      -0.489   3.282  25.497  0.00  0.00    +0.003 C 
ATOM      9  C   UNL     1      -1.735   4.191  25.614  0.00  0.00    +0.008 C 
ATOM     10  C   UNL     1      -0.829   1.881  26.036  0.00  0.00    +0.021 C 
ATOM     11  C   UNL     1      -2.970   3.558  24.958  0.00  0.00    +0.113 C 
ATOM     12  C   UNL     1      -2.071   1.286  25.378  0.00  0.00    +0.110 C 
ENDROOT
BRANCH   5   1
ATOM      1  S   UNL     1      -4.763   1.540  25.212  0.00  0.00    +0.061 S 
ATOM      2  O   UNL     1      -5.225   2.044  23.937  0.00  0.00    -0.153 OA
ATOM      3  O   UNL     1      -5.589   1.636  26.396  0.00  0.00    -0.153 OA
BRANCH   1  17
ATOM     17  C   UNL     1      -4.316  -0.153  24.994  0.00  0.00    +0.105 A 
ATOM     19  C   UNL     1      -4.523  -0.756  23.764  0.00  0.00    +0.028 A 
ATOM     20  C   UNL     1      -3.766  -0.851  26.057  0.00  0.00    +0.028 A 
ATOM     23  C   UNL     1      -4.169  -2.094  23.592  0.00  0.00    +0.002 A 
ATOM     24  C   UNL     1      -3.412  -2.190  25.885  0.00  0.00    +0.002 A 
ATOM     25  C   UNL     1      -3.615  -2.812  24.652  0.00  0.00    +0.000 A 
ENDBRANCH   1  17
ENDBRANCH   5   1
BRANCH   9  13
ATOM     13  C   UNL     1      -1.500   5.600  25.067  0.00  0.00    +0.002 C 
ATOM     15  C   UNL     1      -2.574   5.986  24.073  0.00  0.00    +0.004 C 
ENDBRANCH   9  13
BRANCH   8  14
ATOM     14  C   UNL     1       0.094   3.199  24.081  0.00  0.00    +0.100 C 
BRANCH  14  16
ATOM      4  O   UNL     1      -1.417   1.731  22.937  0.00  0.00    -0.276 OA
ATOM      6  N   UNL     1       0.744   0.955  23.267  0.00  0.00    -0.304 N 
ATOM     16  C   UNL     1      -0.277   1.906  23.377  0.00  0.00    +0.216 C 
ATOM     21  C   UNL     1       2.083   1.183  23.795  0.00  0.00    +0.132 C 
BRANCH   6  18
ATOM     18  C   UNL     1       0.544  -0.337  22.617  0.00  0.00    +0.122 C 
BRANCH  18  22
ATOM     22  C   UNL     1      -0.592  -1.136  23.246  0.00  0.00    +0.137 C 
BRANCH  22  26
ATOM      7  N   UNL     1      -0.020  -1.890  25.700  0.00  0.00    -0.197 NA
ATOM     26  C   UNL     1      -0.272  -1.557  24.618  0.00  0.00    +0.064 C 
ENDBRANCH  22  26
ENDBRANCH  18  22
ENDBRANCH   6  18
ENDBRANCH  14  16
ENDBRANCH   8  14
TORSDOF 8
ENDMDL
MODEL 5
REMARK VINA RESULT:      -2.7      1.593      4.877
REMARK  Name = 11912069
REMARK  10 active torsions:
REMARK  status: ('A' for Active; 'I' for Inactive)
REMARK    1  A    between atoms: S_1  and  N_5
REMARK    2  A    between atoms: S_1  and  C_17
REMARK    3  A    between atoms: N_6  and  C_18
REMARK    4  A    between atoms: N_6  and  C_21
REMARK    5  A    between atoms: C_8  and  C_14
REMARK    6  A    between atoms: C_9  and  C_13
REMARK    7  A    between atoms: C_13  and  C_15
REMARK    8  A    between atoms: C_14  and  C_16
REMARK    9  A    between atoms: C_18  and  C_22
REMARK   10  A    between atoms: C_22  and  C_26
REMARK                            x       y       z     vdW  Elec       q    Type
REMARK                         _______ _______ _______ _____ _____    ______ ____
ROOT
ATOM      5  N   UNL     1      -4.029   1.683  24.508  0.00  0.00    -0.176 NA
ATOM      8  C   UNL     1      -2.545  -0.732  23.739  0.00  0.00    +0.003 C 
ATOM      9  C   UNL     1      -3.714  -0.761  24.751  0.00  0.00    +0.008 C 
ATOM     10  C   UNL     1      -2.710   0.481  22.807  0.00  0.00    +0.021 C 
ATOM     11  C   UNL     1      -3.862   0.574  25.494  0.00  0.00    +0.113 C 
ATOM     12  C   UNL     1      -2.874   1.791  23.573  0.00  0.00    +0.110 C 
ENDROOT
BRANCH   5   1
ATOM      1  S   UNL     1      -4.582   3.167  25.163  0.00  0.00    +0.061 S 
ATOM      2  O   UNL     1      -4.955   2.962  26.546  0.00  0.00    -0.153 OA
ATOM      3  O   UNL     1      -5.497   3.780  24.225  0.00  0.00    -0.153 OA
BRANCH   1  17
ATOM     17  C   UNL     1      -3.078   4.091  25.140  0.00  0.00    +0.105 A 
ATOM     19  C   UNL     1      -1.905   3.488  25.563  0.00  0.00    +0.028 A 
ATOM     20  C   UNL     1      -3.096   5.405  24.700  0.00  0.00    +0.028 A 
ATOM     23  C   UNL     1      -0.717   4.219  25.545  0.00  0.00    +0.002 A 
ATOM     24  C   UNL     1      -1.907   6.135  24.681  0.00  0.00    +0.002 A 
ATOM     25  C   UNL     1      -0.718   5.542  25.105  0.00  0.00    +0.000 A 
ENDBRANCH   1  17
ENDBRANCH   5   1
BRANCH   9  13
ATOM     13  C   UNL     1      -3.613  -1.919  25.746  0.00  0.00    +0.002 C 
ATOM     15  C   UNL     1      -3.467  -3.244  25.029  0.00  0.00    +0.004 C 
ENDBRANCH   9  13
BRANCH   8  14
ATOM     14  C   UNL     1      -1.155  -0.741  24.386  0.00  0.00    +0.100 C 
BRANCH  14  16
ATOM      4  O   UNL     1      -0.003  -1.904  22.636  0.00  0.00    -0.276 OA
ATOM      6  N   UNL     1       0.905   0.117  23.321  0.00  0.00    -0.304 N 
ATOM     16  C   UNL     1      -0.043  -0.911  23.367  0.00  0.00    +0.216 C 
ATOM     21  C   UNL     1       0.838   1.282  24.195  0.00  0.00    +0.132 C 
BRANCH   6  18
ATOM     18  C   UNL     1       2.035   0.101  22.395  0.00  0.00    +0.122 C 
BRANCH  18  22
ATOM     22  C   UNL     1       3.123   1.094  22.785  0.00  0.00    +0.137 C 
BRANCH  22  26
ATOM      7  N   UNL     1       5.392  -0.108  23.350  0.00  0.00    -0.197 NA
ATOM     26  C   UNL     1       4.391   0.422  23.101  0.00  0.00    +0.064 C 
ENDBRANCH  22  26
ENDBRANCH  18  22
ENDBRANCH   6  18
ENDBRANCH  14  16
ENDBRANCH   8  14
TORSDOF 8
ENDMDL
MODEL 6
REMARK VINA RESULT:      -2.7      1.500      4.230
REMARK  Name = 11912069
REMARK  10 active torsions:
REMARK  status: ('A' for Active; 'I' for Inactive)
REMARK    1  A    between atoms: S_1  and  N_5
REMARK    2  A    between atoms: S_1  and  C_17
REMARK    3  A    between atoms: N_6  and  C_18
REMARK    4  A    between atoms: N_6  and  C_21
REMARK    5  A    between atoms: C_8  and  C_14
REMARK    6  A    between atoms: C_9  and  C_13
REMARK    7  A    between atoms: C_13  and  C_15
REMARK    8  A    between atoms: C_14  and  C_16
REMARK    9  A    between atoms: C_18  and  C_22
REMARK   10  A    between atoms: C_22  and  C_26
REMARK                            x       y       z     vdW  Elec       q    Type
REMARK                         _______ _______ _______ _____ _____    ______ ____
ROOT
ATOM      5  N   UNL     1      -4.477   0.295  25.394  0.00  0.00    -0.176 NA
ATOM      8  C   UNL     1      -2.418  -1.745  24.922  0.00  0.00    +0.003 C 
ATOM      9  C   UNL     1      -2.277  -0.658  26.015  0.00  0.00    +0.008 C 
ATOM     10  C   UNL     1      -3.910  -1.977  24.626  0.00  0.00    +0.021 C 
ATOM     11  C   UNL     1      -3.042   0.621  25.651  0.00  0.00    +0.113 C 
ATOM     12  C   UNL     1      -4.648  -0.685  24.286  0.00  0.00    +0.110 C 
ENDROOT
BRANCH   5   1
ATOM      1  S   UNL     1      -5.536   1.642  25.351  0.00  0.00    +0.061 S 
ATOM      2  O   UNL     1      -6.175   1.782  26.642  0.00  0.00    -0.153 OA
ATOM      3  O   UNL     1      -6.317   1.584  24.134  0.00  0.00    -0.153 OA
BRANCH   1  17
ATOM     17  C   UNL     1      -4.363   2.950  25.184  0.00  0.00    +0.105 A 
ATOM     19  C   UNL     1      -3.915   3.302  23.921  0.00  0.00    +0.028 A 
ATOM     20  C   UNL     1      -3.910   3.603  26.319  0.00  0.00    +0.028 A 
ATOM     23  C   UNL     1      -2.988   4.336  23.790  0.00  0.00    +0.002 A 
ATOM     24  C   UNL     1      -2.982   4.637  26.187  0.00  0.00    +0.002 A 
ATOM     25  C   UNL     1      -2.521   5.003  24.922  0.00  0.00    +0.000 A 
ENDBRANCH   1  17
ENDBRANCH   5   1
BRANCH   9  13
ATOM     13  C   UNL     1      -0.821  -0.335  26.350  0.00  0.00    +0.002 C 
ATOM     15  C   UNL     1      -0.592   1.160  26.408  0.00  0.00    +0.004 C 
ENDBRANCH   9  13
BRANCH   8  14
ATOM     14  C   UNL     1      -1.643  -1.442  23.634  0.00  0.00    +0.100 C 
BRANCH  14  16
ATOM      4  O   UNL     1       0.560  -1.815  24.501  0.00  0.00    -0.276 OA
ATOM      6  N   UNL     1       0.185   0.212  23.439  0.00  0.00    -0.304 N 
ATOM     16  C   UNL     1      -0.202  -1.049  23.905  0.00  0.00    +0.216 C 
ATOM     21  C   UNL     1      -0.732   1.101  22.737  0.00  0.00    +0.132 C 
BRANCH   6  18
ATOM     18  C   UNL     1       1.537   0.734  23.622  0.00  0.00    +0.122 C 
BRANCH  18  22
ATOM     22  C   UNL     1       2.496   0.258  22.537  0.00  0.00    +0.137 C 
BRANCH  22  26
ATOM      7  N   UNL     1       5.010   0.555  23.252  0.00  0.00    -0.197 NA
ATOM     26  C   UNL     1       3.901   0.424  22.937  0.00  0.00    +0.064 C 
ENDBRANCH  22  26
ENDBRANCH  18  22
ENDBRANCH   6  18
ENDBRANCH  14  16
ENDBRANCH   8  14
TORSDOF 8
ENDMDL
MODEL 7
REMARK VINA RESULT:      -2.4      2.630      6.888
REMARK  Name = 11912069
REMARK  10 active torsions:
REMARK  status: ('A' for Active; 'I' for Inactive)
REMARK    1  A    between atoms: S_1  and  N_5
REMARK    2  A    between atoms: S_1  and  C_17
REMARK    3  A    between atoms: N_6  and  C_18
REMARK    4  A    between atoms: N_6  and  C_21
REMARK    5  A    between atoms: C_8  and  C_14
REMARK    6  A    between atoms: C_9  and  C_13
REMARK    7  A    between atoms: C_13  and  C_15
REMARK    8  A    between atoms: C_14  and  C_16
REMARK    9  A    between atoms: C_18  and  C_22
REMARK   10  A    between atoms: C_22  and  C_26
REMARK                            x       y       z     vdW  Elec       q    Type
REMARK                         _______ _______ _______ _____ _____    ______ ____
ROOT
ATOM      5  N   UNL     1       0.904   0.184  23.646  0.00  0.00    -0.176 NA
ATOM      8  C   UNL     1      -1.561  -0.360  25.146  0.00  0.00    +0.003 C 
ATOM      9  C   UNL     1      -0.694  -1.486  24.535  0.00  0.00    +0.008 C 
ATOM     10  C   UNL     1      -0.682   0.877  25.401  0.00  0.00    +0.021 C 
ATOM     11  C   UNL     1       0.075  -1.007  23.295  0.00  0.00    +0.113 C 
ATOM     12  C   UNL     1       0.084   1.318  24.157  0.00  0.00    +0.110 C 
ENDROOT
BRANCH   5   1
ATOM      1  S   UNL     1       2.101   0.606  22.493  0.00  0.00    +0.061 S 
ATOM      2  O   UNL     1       2.282   2.042  22.506  0.00  0.00    -0.153 OA
ATOM      3  O   UNL     1       1.833  -0.102  21.261  0.00  0.00    -0.153 OA
BRANCH   1  17
ATOM     17  C   UNL     1       3.521  -0.124  23.245  0.00  0.00    +0.105 A 
ATOM     19  C   UNL     1       3.496  -1.469  23.577  0.00  0.00    +0.028 A 
ATOM     20  C   UNL     1       4.638   0.659  23.489  0.00  0.00    +0.028 A 
ATOM     23  C   UNL     1       4.619  -2.046  24.171  0.00  0.00    +0.002 A 
ATOM     24  C   UNL     1       5.760   0.082  24.082  0.00  0.00    +0.002 A 
ATOM     25  C   UNL     1       5.750  -1.271  24.424  0.00  0.00    +0.000 A 
ENDBRANCH   1  17
ENDBRANCH   5   1
BRANCH   9  13
ATOM     13  C   UNL     1      -1.496  -2.748  24.214  0.00  0.00    +0.002 C 
ATOM     15  C   UNL     1      -2.835  -2.740  24.921  0.00  0.00    +0.004 C 
ENDBRANCH   9  13
BRANCH   8  14
ATOM     14  C   UNL     1      -2.794   0.006  24.311  0.00  0.00    +0.100 C 
BRANCH  14  16
ATOM      4  O   UNL     1      -4.084   1.244  25.907  0.00  0.00    -0.276 OA
ATOM      6  N   UNL     1      -3.414   2.380  23.999  0.00  0.00    -0.304 N 
ATOM     16  C   UNL     1      -3.492   1.252  24.824  0.00  0.00    +0.216 C 
ATOM     21  C   UNL     1      -2.710   2.367  22.723  0.00  0.00    +0.132 C 
BRANCH   6  18
ATOM     18  C   UNL     1      -4.034   3.654  24.353  0.00  0.00    +0.122 C 
BRANCH  18  22
ATOM     22  C   UNL     1      -3.338   4.334  25.527  0.00  0.00    +0.137 C 
BRANCH  22  26
ATOM      7  N   UNL     1      -0.800   4.802  25.022  0.00  0.00    -0.197 NA
ATOM     26  C   UNL     1      -1.919   4.596  25.245  0.00  0.00    +0.064 C 
ENDBRANCH  22  26
ENDBRANCH  18  22
ENDBRANCH   6  18
ENDBRANCH  14  16
ENDBRANCH   8  14
TORSDOF 8
ENDMDL
MODEL 8
REMARK VINA RESULT:      -2.3      1.971      3.693
REMARK  Name = 11912069
REMARK  10 active torsions:
REMARK  status: ('A' for Active; 'I' for Inactive)
REMARK    1  A    between atoms: S_1  and  N_5
REMARK    2  A    between atoms: S_1  and  C_17
REMARK    3  A    between atoms: N_6  and  C_18
REMARK    4  A    between atoms: N_6  and  C_21
REMARK    5  A    between atoms: C_8  and  C_14
REMARK    6  A    between atoms: C_9  and  C_13
REMARK    7  A    between atoms: C_13  and  C_15
REMARK    8  A    between atoms: C_14  and  C_16
REMARK    9  A    between atoms: C_18  and  C_22
REMARK   10  A    between atoms: C_22  and  C_26
REMARK                            x       y       z     vdW  Elec       q    Type
REMARK                         _______ _______ _______ _____ _____    ______ ____
ROOT
ATOM      5  N   UNL     1      -2.663  -0.231  25.194  0.00  0.00    -0.176 NA
ATOM      8  C   UNL     1       0.219   0.054  24.709  0.00  0.00    +0.003 C 
ATOM      9  C   UNL     1      -0.552   0.964  25.693  0.00  0.00    +0.008 C 
ATOM     10  C   UNL     1      -0.526  -1.285  24.564  0.00  0.00    +0.021 C 
ATOM     11  C   UNL     1      -2.027   1.116  25.296  0.00  0.00    +0.113 C 
ATOM     12  C   UNL     1      -1.993  -1.102  24.188  0.00  0.00    +0.110 C 
ENDROOT
BRANCH   5   1
ATOM      1  S   UNL     1      -4.376  -0.229  25.135  0.00  0.00    +0.061 S 
ATOM      2  O   UNL     1      -4.893  -0.644  26.422  0.00  0.00    -0.153 OA
ATOM      3  O   UNL     1      -4.804  -0.876  23.914  0.00  0.00    -0.153 OA
BRANCH   1  17
ATOM     17  C   UNL     1      -4.675   1.503  24.967  0.00  0.00    +0.105 A 
ATOM     19  C   UNL     1      -5.532   2.132  25.854  0.00  0.00    +0.028 A 
ATOM     20  C   UNL     1      -4.046   2.204  23.951  0.00  0.00    +0.028 A 
ATOM     23  C   UNL     1      -5.768   3.501  25.721  0.00  0.00    +0.002 A 
ATOM     24  C   UNL     1      -4.281   3.573  23.818  0.00  0.00    +0.002 A 
ATOM     25  C   UNL     1      -5.143   4.221  24.703  0.00  0.00    +0.000 A 
ENDBRANCH   1  17
ENDBRANCH   5   1
BRANCH   9  13
ATOM     13  C   UNL     1       0.099   2.336  25.872  0.00  0.00    +0.002 C 
ATOM     15  C   UNL     1      -0.852   3.448  25.481  0.00  0.00    +0.004 C 
ENDBRANCH   9  13
BRANCH   8  14
ATOM     14  C   UNL     1       0.476   0.690  23.337  0.00  0.00    +0.100 C 
BRANCH  14  16
ATOM      4  O   UNL     1       2.283   2.198  23.792  0.00  0.00    -0.276 OA
ATOM      6  N   UNL     1       2.727   0.442  22.343  0.00  0.00    -0.304 N 
ATOM     16  C   UNL     1       1.902   1.191  23.189  0.00  0.00    +0.216 C 
ATOM     21  C   UNL     1       2.256  -0.745  21.641  0.00  0.00    +0.132 C 
BRANCH   6  18
ATOM     18  C   UNL     1       4.123   0.795  22.098  0.00  0.00    +0.122 C 
BRANCH  18  22
ATOM     22  C   UNL     1       5.000   0.589  23.328  0.00  0.00    +0.137 C 
BRANCH  22  26
ATOM      7  N   UNL     1       4.979  -1.912  24.139  0.00  0.00    -0.197 NA
ATOM     26  C   UNL     1       4.989  -0.809  23.781  0.00  0.00    +0.064 C 
ENDBRANCH  22  26
ENDBRANCH  18  22
ENDBRANCH   6  18
ENDBRANCH  14  16
ENDBRANCH   8  14
TORSDOF 8
ENDMDL
MODEL 9
REMARK VINA RESULT:      -2.3      2.413      5.902
REMARK  Name = 11912069
REMARK  10 active torsions:
REMARK  status: ('A' for Active; 'I' for Inactive)
REMARK    1  A    between atoms: S_1  and  N_5
REMARK    2  A    between atoms: S_1  and  C_17
REMARK    3  A    between atoms: N_6  and  C_18
REMARK    4  A    between atoms: N_6  and  C_21
REMARK    5  A    between atoms: C_8  and  C_14
REMARK    6  A    between atoms: C_9  and  C_13
REMARK    7  A    between atoms: C_13  and  C_15
REMARK    8  A    between atoms: C_14  and  C_16
REMARK    9  A    between atoms: C_18  and  C_22
REMARK   10  A    between atoms: C_22  and  C_26
REMARK                            x       y       z     vdW  Elec       q    Type
REMARK                         _______ _______ _______ _____ _____    ______ ____
ROOT
ATOM      5  N   UNL     1       0.378   1.224  23.879  0.00  0.00    -0.176 NA
ATOM      8  C   UNL     1      -0.922   3.463  25.263  0.00  0.00    +0.003 C 
ATOM      9  C   UNL     1       0.191   2.613  25.920  0.00  0.00    +0.008 C 
ATOM     10  C   UNL     1      -0.777   3.396  23.733  0.00  0.00    +0.021 C 
ATOM     11  C   UNL     1       0.223   1.183  25.363  0.00  0.00    +0.113 C 
ATOM     12  C   UNL     1      -0.729   1.963  23.211  0.00  0.00    +0.110 C 
ENDROOT
BRANCH   5   1
ATOM      1  S   UNL     1       0.810  -0.266  23.148  0.00  0.00    +0.061 S 
ATOM      2  O   UNL     1       0.442  -0.228  21.749  0.00  0.00    -0.153 OA
ATOM      3  O   UNL     1       0.380  -1.349  24.005  0.00  0.00    -0.153 OA
BRANCH   1  17
ATOM     17  C   UNL     1       2.568  -0.157  23.248  0.00  0.00    +0.105 A 
ATOM     19  C   UNL     1       3.289  -1.243  23.717  0.00  0.00    +0.028 A 
ATOM     20  C   UNL     1       3.199   1.012  22.854  0.00  0.00    +0.028 A 
ATOM     23  C   UNL     1       4.679  -1.157  23.795  0.00  0.00    +0.002 A 
ATOM     24  C   UNL     1       4.590   1.098  22.932  0.00  0.00    +0.002 A 
ATOM     25  C   UNL     1       5.329   0.013  23.404  0.00  0.00    +0.000 A 
ENDBRANCH   1  17
ENDBRANCH   5   1
BRANCH   9  13
ATOM     13  C   UNL     1       0.103   2.592  27.447  0.00  0.00    +0.002 C 
ATOM     15  C   UNL     1       1.479   2.667  28.075  0.00  0.00    +0.004 C 
ENDBRANCH   9  13
BRANCH   8  14
ATOM     14  C   UNL     1      -2.342   3.079  25.698  0.00  0.00    +0.100 C 
BRANCH  14  16
ATOM      4  O   UNL     1      -3.617   3.024  23.668  0.00  0.00    -0.276 OA
ATOM      6  N   UNL     1      -3.213   0.988  24.703  0.00  0.00    -0.304 N 
ATOM     16  C   UNL     1      -3.116   2.380  24.594  0.00  0.00    +0.216 C 
ATOM     21  C   UNL     1      -2.614   0.248  25.806  0.00  0.00    +0.132 C 
BRANCH   6  18
ATOM     18  C   UNL     1      -3.924   0.173  23.721  0.00  0.00    +0.122 C 
BRANCH  18  22
ATOM     22  C   UNL     1      -4.410  -1.149  24.304  0.00  0.00    +0.137 C 
BRANCH  22  26
ATOM      7  N   UNL     1      -2.548  -3.004  24.210  0.00  0.00    -0.197 NA
ATOM     26  C   UNL     1      -3.370  -2.186  24.252  0.00  0.00    +0.064 C 
ENDBRANCH  22  26
ENDBRANCH  18  22
ENDBRANCH   6  18
ENDBRANCH  14  16
ENDBRANCH   8  14
TORSDOF 8
ENDMDL
MODEL 10
REMARK VINA RESULT:      -2.2      2.403      5.217
REMARK  Name = 11912069
REMARK  10 active torsions:
REMARK  status: ('A' for Active; 'I' for Inactive)
REMARK    1  A    between atoms: S_1  and  N_5
REMARK    2  A    between atoms: S_1  and  C_17
REMARK    3  A    between atoms: N_6  and  C_18
REMARK    4  A    between atoms: N_6  and  C_21
REMARK    5  A    between atoms: C_8  and  C_14
REMARK    6  A    between atoms: C_9  and  C_13
REMARK    7  A    between atoms: C_13  and  C_15
REMARK    8  A    between atoms: C_14  and  C_16
REMARK    9  A    between atoms: C_18  and  C_22
REMARK   10  A    between atoms: C_22  and  C_26
REMARK                            x       y       z     vdW  Elec       q    Type
REMARK                         _______ _______ _______ _____ _____    ______ ____
ROOT
ATOM      5  N   UNL     1      -1.758   2.588  24.548  0.00  0.00    -0.176 NA
ATOM      8  C   UNL     1      -4.516   1.660  24.155  0.00  0.00    +0.003 C 
ATOM      9  C   UNL     1      -4.180   2.982  24.885  0.00  0.00    +0.008 C 
ATOM     10  C   UNL     1      -3.368   1.303  23.195  0.00  0.00    +0.021 C 
ATOM     11  C   UNL     1      -2.803   2.929  25.560  0.00  0.00    +0.113 C 
ATOM     12  C   UNL     1      -2.010   1.276  23.890  0.00  0.00    +0.110 C 
ENDROOT
BRANCH   5   1
ATOM      1  S   UNL     1      -0.141   2.859  25.047  0.00  0.00    +0.061 S 
ATOM      2  O   UNL     1       0.007   2.428  26.421  0.00  0.00    -0.153 OA
ATOM      3  O   UNL     1       0.260   4.186  24.634  0.00  0.00    -0.153 OA
BRANCH   1  17
ATOM     17  C   UNL     1       0.696   1.692  24.021  0.00  0.00    +0.105 A 
ATOM     19  C   UNL     1       0.009   0.584  23.555  0.00  0.00    +0.028 A 
ATOM     20  C   UNL     1       2.026   1.905  23.698  0.00  0.00    +0.028 A 
ATOM     23  C   UNL     1       0.670  -0.338  22.744  0.00  0.00    +0.002 A 
ATOM     24  C   UNL     1       2.688   0.983  22.886  0.00  0.00    +0.002 A 
ATOM     25  C   UNL     1       2.010  -0.139  22.410  0.00  0.00    +0.000 A 
ENDBRANCH   1  17
ENDBRANCH   5   1
BRANCH   9  13
ATOM     13  C   UNL     1      -5.254   3.398  25.891  0.00  0.00    +0.002 C 
ATOM     15  C   UNL     1      -5.961   4.660  25.445  0.00  0.00    +0.004 C 
ENDBRANCH   9  13
BRANCH   8  14
ATOM     14  C   UNL     1      -4.832   0.489  25.093  0.00  0.00    +0.100 C 
BRANCH  14  16
ATOM      4  O   UNL     1      -4.740  -1.165  23.361  0.00  0.00    -0.276 OA
ATOM      6  N   UNL     1      -3.656  -1.672  25.347  0.00  0.00    -0.304 N 
ATOM     16  C   UNL     1      -4.415  -0.849  24.509  0.00  0.00    +0.216 C 
ATOM     21  C   UNL     1      -3.284  -1.278  26.700  0.00  0.00    +0.132 C 
BRANCH   6  18
ATOM     18  C   UNL     1      -3.180  -2.988  24.931  0.00  0.00    +0.122 C 
BRANCH  18  22
ATOM     22  C   UNL     1      -1.871  -2.915  24.153  0.00  0.00    +0.137 C 
BRANCH  22  26
ATOM      7  N   UNL     1       0.138  -2.173  25.681  0.00  0.00    -0.197 NA
ATOM     26  C   UNL     1      -0.748  -2.500  25.008  0.00  0.00    +0.064 C 
ENDBRANCH  22  26
ENDBRANCH  18  22
ENDBRANCH   6  18
ENDBRANCH  14  16
ENDBRANCH   8  14
TORSDOF 8
ENDMDL
