MODEL 1
REMARK VINA RESULT:      -6.9      0.000      0.000
REMARK  Name = 51137956
REMARK  6 active torsions:
REMARK  status: ('A' for Active; 'I' for Inactive)
REMARK    1  A    between atoms: N_3  and  C_5
REMARK    2  A    between atoms: C_6  and  C_14
REMARK    3  A    between atoms: C_7  and  C_17
REMARK    4  A    between atoms: C_14  and  C_18
REMARK    5  A    between atoms: C_18  and  C_23
REMARK    6  A    between atoms: C_18  and  C_24
REMARK                            x       y       z     vdW  Elec       q    Type
REMARK                         _______ _______ _______ _____ _____    ______ ____
ROOT
ATOM      2  N   UNL     1      -1.248  -0.089  24.828  0.00  0.00    -0.299 NA
ATOM      4  N   UNL     1      -1.819   4.908  25.286  0.00  0.00    -0.360 N 
ATOM      6  C   UNL     1      -2.690   0.160  24.703  0.00  0.00    +0.085 C 
ATOM      7  C   UNL     1      -0.420   0.639  23.878  0.00  0.00    +0.145 C 
ATOM     12  C   UNL     1       0.147   1.918  24.493  0.00  0.00    +0.065 C 
ATOM     13  C   UNL     1      -3.149   1.593  24.990  0.00  0.00    -0.021 A 
ATOM     15  C   UNL     1      -2.298   2.735  25.028  0.00  0.00    +0.008 A 
ATOM     16  C   UNL     1      -0.889   2.940  24.826  0.00  0.00    -0.020 A 
ATOM     19  C   UNL     1      -2.847   3.996  25.290  0.00  0.00    +0.047 A 
ATOM     20  C   UNL     1      -0.639   4.285  25.002  0.00  0.00    +0.087 A 
ATOM     21  C   UNL     1      -4.536   1.841  25.159  0.00  0.00    +0.006 A 
ATOM     22  C   UNL     1      -4.210   4.212  25.500  0.00  0.00    +0.026 A 
ATOM     25  C   UNL     1      -5.051   3.110  25.416  0.00  0.00    +0.002 A 
ATOM     26  H   UNL     1      -0.934   0.065  25.785  0.00  0.00    +0.123 HD
ATOM     28  H   UNL     1      -1.925   5.898  25.451  0.00  0.00    +0.165 HD
ENDROOT
BRANCH   7  17
ATOM      1  O   UNL     1       0.738  -1.445  23.957  0.00  0.00    -0.274 OA
ATOM      3  N   UNL     1       1.678   0.323  22.770  0.00  0.00    -0.311 N 
ATOM     17  C   UNL     1       0.709  -0.288  23.548  0.00  0.00    +0.231 C 
ATOM     27  H   UNL     1       1.519   1.272  22.444  0.00  0.00    +0.149 HD
BRANCH   3   5
ATOM      5  C   UNL     1       2.879  -0.347  22.335  0.00  0.00    +0.073 C 
ATOM      8  C   UNL     1       3.653  -0.933  23.508  0.00  0.00    +0.022 C 
ATOM      9  C   UNL     1       3.880   0.623  21.720  0.00  0.00    +0.022 C 
ATOM     10  C   UNL     1       4.449   0.243  24.068  0.00  0.00    +0.002 C 
ATOM     11  C   UNL     1       4.630   1.222  22.909  0.00  0.00    +0.002 C 
ENDBRANCH   3   5
ENDBRANCH   7  17
BRANCH   6  14
ATOM     14  C   UNL     1      -3.347  -0.869  25.642  0.00  0.00    +0.026 C 
BRANCH  14  18
ATOM     18  C   UNL     1      -3.641  -2.205  24.952  0.00  0.00    -0.015 C 
ATOM     23  C   UNL     1      -4.452  -2.038  23.666  0.00  0.00    +0.007 C 
ATOM     24  C   UNL     1      -2.320  -2.914  24.642  0.00  0.00    +0.007 C 
ENDBRANCH  14  18
ENDBRANCH   6  14
TORSDOF 4
ENDMDL
