MODEL 1
REMARK VINA RESULT:      -3.5      0.000      0.000
REMARK  Name = 25338363
REMARK  9 active torsions:
REMARK  status: ('A' for Active; 'I' for Inactive)
REMARK    1  A    between atoms: S_1  and  N_6
REMARK    2  A    between atoms: S_1  and  C_15
REMARK    3  A    between atoms: N_5  and  C_14
REMARK    4  A    between atoms: N_6  and  C_9
REMARK    5  A    between atoms: C_10  and  C_13
REMARK    6  A    between atoms: C_15  and  C_16
REMARK    7  A    between atoms: C_16  and  C_18
REMARK    8  A    between atoms: C_17  and  C_19
REMARK    9  A    between atoms: C_24  and  C_25
REMARK                            x       y       z     vdW  Elec       q    Type
REMARK                         _______ _______ _______ _____ _____    ______ ____
ROOT
ATOM      5  N   UNL     1      -2.717  -0.711  24.864  0.00  0.00    -0.293 NA
ATOM      9  C   UNL     1      -4.373   0.865  24.399  0.00  0.00    +0.092 C 
ATOM     10  C   UNL     1      -2.277  -0.095  23.597  0.00  0.00    +0.147 C 
ATOM     11  C   UNL     1      -3.257   1.075  23.379  0.00  0.00    +0.050 C 
ATOM     12  C   UNL     1      -4.176  -0.556  24.898  0.00  0.00    +0.105 C 
ATOM     14  C   UNL     1      -2.317  -2.107  24.993  0.00  0.00    +0.105 C 
ENDROOT
BRANCH  10  13
ATOM      2  O   UNL     1      -0.608   1.671  23.854  0.00  0.00    -0.336 OA
ATOM      7  N   UNL     1       0.257  -0.350  23.422  0.00  0.00    -0.190 NA
ATOM      8  N   UNL     1       0.782   1.842  23.817  0.00  0.00    -0.056 NA
ATOM     13  C   UNL     1      -0.831   0.352  23.612  0.00  0.00    +0.245 A 
ATOM     17  C   UNL     1       1.221   0.606  23.558  0.00  0.00    +0.202 A 
BRANCH  17  19
ATOM     19  C   UNL     1       2.615   0.294  23.429  0.00  0.00    +0.022 A 
ATOM     20  C   UNL     1       3.080  -0.977  23.768  0.00  0.00    +0.012 A 
ATOM     21  C   UNL     1       3.507   1.262  22.966  0.00  0.00    +0.012 A 
ATOM     22  C   UNL     1       4.436  -1.280  23.643  0.00  0.00    +0.004 A 
ATOM     23  C   UNL     1       4.862   0.958  22.842  0.00  0.00    +0.004 A 
ATOM     24  C   UNL     1       5.327  -0.313  23.181  0.00  0.00    -0.050 A 
ATOM     25  C   UNL     1       6.776  -0.637  23.048  0.00  0.00    +0.044 C 
ENDBRANCH  17  19
ENDBRANCH  10  13
BRANCH   9   6
ATOM      6  N   UNL     1      -4.217   1.824  25.522  0.00  0.00    -0.190 NA
ATOM     26  H   UNL     1      -4.283   1.451  26.477  0.00  0.00    +0.148 HD
BRANCH   6   1
ATOM      1  S   UNL     1      -4.505   3.478  25.238  0.00  0.00    +0.030 S 
ATOM      3  O   UNL     1      -5.792   3.858  25.786  0.00  0.00    -0.158 OA
ATOM      4  O   UNL     1      -4.173   3.763  23.856  0.00  0.00    -0.158 OA
BRANCH   1  15
ATOM     15  C   UNL     1      -3.240   4.211  26.251  0.00  0.00    +0.185 C 
BRANCH  15  16
ATOM     16  C   UNL     1      -1.853   3.900  25.714  0.00  0.00    +0.021 C 
ATOM     18  C   UNL     1      -1.232   5.113  25.043  0.00  0.00    +0.005 C 
ENDBRANCH  15  16
ENDBRANCH   1  15
ENDBRANCH   6   1
ENDBRANCH   9   6
TORSDOF 6
ENDMDL
MODEL 2
REMARK VINA RESULT:      -1.1      1.511      2.080
REMARK  Name = 25338363
REMARK  9 active torsions:
REMARK  status: ('A' for Active; 'I' for Inactive)
REMARK    1  A    between atoms: S_1  and  N_6
REMARK    2  A    between atoms: S_1  and  C_15
REMARK    3  A    between atoms: N_5  and  C_14
REMARK    4  A    between atoms: N_6  and  C_9
REMARK    5  A    between atoms: C_10  and  C_13
REMARK    6  A    between atoms: C_15  and  C_16
REMARK    7  A    between atoms: C_16  and  C_18
REMARK    8  A    between atoms: C_17  and  C_19
REMARK    9  A    between atoms: C_24  and  C_25
REMARK                            x       y       z     vdW  Elec       q    Type
REMARK                         _______ _______ _______ _____ _____    ______ ____
ROOT
ATOM      5  N   UNL     1      -3.803   0.163  24.504  0.00  0.00    -0.293 NA
ATOM      9  C   UNL     1      -4.091   2.452  24.165  0.00  0.00    +0.092 C 
ATOM     10  C   UNL     1      -2.879   0.478  23.398  0.00  0.00    +0.147 C 
ATOM     11  C   UNL     1      -2.918   2.015  23.292  0.00  0.00    +0.050 C 
ATOM     12  C   UNL     1      -4.864   1.173  24.439  0.00  0.00    +0.105 C 
ATOM     14  C   UNL     1      -4.339  -1.192  24.436  0.00  0.00    +0.105 C 
ENDROOT
BRANCH  10  13
ATOM      2  O   UNL     1      -1.372  -1.229  24.286  0.00  0.00    -0.336 OA
ATOM      7  N   UNL     1      -0.331   0.453  23.234  0.00  0.00    -0.190 NA
ATOM      8  N   UNL     1      -0.003  -1.514  24.356  0.00  0.00    -0.056 NA
ATOM     13  C   UNL     1      -1.477  -0.055  23.609  0.00  0.00    +0.245 A 
ATOM     17  C   UNL     1       0.544  -0.477  23.714  0.00  0.00    +0.202 A 
BRANCH  17  19
ATOM     19  C   UNL     1       1.961  -0.342  23.535  0.00  0.00    +0.022 A 
ATOM     20  C   UNL     1       2.490   0.845  23.025  0.00  0.00    +0.012 A 
ATOM     21  C   UNL     1       2.811  -1.397  23.868  0.00  0.00    +0.012 A 
ATOM     22  C   UNL     1       3.868   0.977  22.851  0.00  0.00    +0.004 A 
ATOM     23  C   UNL     1       4.188  -1.265  23.693  0.00  0.00    +0.004 A 
ATOM     24  C   UNL     1       4.717  -0.078  23.184  0.00  0.00    -0.050 A 
ATOM     25  C   UNL     1       6.189   0.062  22.996  0.00  0.00    +0.044 C 
ENDBRANCH  17  19
ENDBRANCH  10  13
BRANCH   9   6
ATOM      6  N   UNL     1      -3.586   3.024  25.440  0.00  0.00    -0.190 NA
ATOM     26  H   UNL     1      -4.042   2.720  26.309  0.00  0.00    +0.148 HD
BRANCH   6   1
ATOM      1  S   UNL     1      -2.737   4.498  25.400  0.00  0.00    +0.030 S 
ATOM      3  O   UNL     1      -2.896   5.196  26.661  0.00  0.00    -0.158 OA
ATOM      4  O   UNL     1      -3.034   5.158  24.144  0.00  0.00    -0.158 OA
BRANCH   1  15
ATOM     15  C   UNL     1      -1.061   3.911  25.308  0.00  0.00    +0.185 C 
BRANCH  15  16
ATOM     16  C   UNL     1      -0.902   2.580  26.024  0.00  0.00    +0.021 C 
ATOM     18  C   UNL     1       0.408   2.514  26.791  0.00  0.00    +0.005 C 
ENDBRANCH  15  16
ENDBRANCH   1  15
ENDBRANCH   6   1
ENDBRANCH   9   6
TORSDOF 6
ENDMDL
MODEL 3
REMARK VINA RESULT:      -0.9      1.449      3.060
REMARK  Name = 25338363
REMARK  9 active torsions:
REMARK  status: ('A' for Active; 'I' for Inactive)
REMARK    1  A    between atoms: S_1  and  N_6
REMARK    2  A    between atoms: S_1  and  C_15
REMARK    3  A    between atoms: N_5  and  C_14
REMARK    4  A    between atoms: N_6  and  C_9
REMARK    5  A    between atoms: C_10  and  C_13
REMARK    6  A    between atoms: C_15  and  C_16
REMARK    7  A    between atoms: C_16  and  C_18
REMARK    8  A    between atoms: C_17  and  C_19
REMARK    9  A    between atoms: C_24  and  C_25
REMARK                            x       y       z     vdW  Elec       q    Type
REMARK                         _______ _______ _______ _____ _____    ______ ____
ROOT
ATOM      5  N   UNL     1      -2.812   2.302  23.042  0.00  0.00    -0.293 NA
ATOM      9  C   UNL     1      -3.401   3.231  25.099  0.00  0.00    +0.092 C 
ATOM     10  C   UNL     1      -1.528   2.758  23.609  0.00  0.00    +0.147 C 
ATOM     11  C   UNL     1      -1.877   3.199  25.044  0.00  0.00    +0.050 C 
ATOM     12  C   UNL     1      -3.841   3.156  23.647  0.00  0.00    +0.105 C 
ATOM     14  C   UNL     1      -2.849   2.356  21.586  0.00  0.00    +0.105 C 
ENDROOT
BRANCH  10  13
ATOM      2  O   UNL     1      -0.852   0.410  23.619  0.00  0.00    -0.336 OA
ATOM      7  N   UNL     1       0.857   1.854  23.501  0.00  0.00    -0.190 NA
ATOM      8  N   UNL     1       0.312  -0.368  23.573  0.00  0.00    -0.056 NA
ATOM     13  C   UNL     1      -0.441   1.705  23.572  0.00  0.00    +0.245 A 
ATOM     17  C   UNL     1       1.276   0.555  23.505  0.00  0.00    +0.202 A 
BRANCH  17  19
ATOM     19  C   UNL     1       2.668   0.213  23.438  0.00  0.00    +0.022 A 
ATOM     20  C   UNL     1       3.090  -1.067  23.796  0.00  0.00    +0.012 A 
ATOM     21  C   UNL     1       3.600   1.162  23.016  0.00  0.00    +0.012 A 
ATOM     22  C   UNL     1       4.444  -1.399  23.730  0.00  0.00    +0.004 A 
ATOM     23  C   UNL     1       4.953   0.830  22.951  0.00  0.00    +0.004 A 
ATOM     24  C   UNL     1       5.375  -0.451  23.309  0.00  0.00    -0.050 A 
ATOM     25  C   UNL     1       6.822  -0.805  23.241  0.00  0.00    +0.044 C 
ENDBRANCH  17  19
ENDBRANCH  10  13
BRANCH   9   6
ATOM      6  N   UNL     1      -3.904   2.049  25.844  0.00  0.00    -0.190 NA
ATOM     26  H   UNL     1      -3.212   1.462  26.326  0.00  0.00    +0.148 HD
BRANCH   6   1
ATOM      1  S   UNL     1      -5.422   1.399  25.428  0.00  0.00    +0.030 S 
ATOM      3  O   UNL     1      -6.051   2.220  24.412  0.00  0.00    -0.158 OA
ATOM      4  O   UNL     1      -6.122   1.067  26.654  0.00  0.00    -0.158 OA
BRANCH   1  15
ATOM     15  C   UNL     1      -4.928  -0.131  24.668  0.00  0.00    +0.185 C 
BRANCH  15  16
ATOM     16  C   UNL     1      -3.658  -0.678  25.301  0.00  0.00    +0.021 C 
ATOM     18  C   UNL     1      -3.456  -2.145  24.963  0.00  0.00    +0.005 C 
ENDBRANCH  15  16
ENDBRANCH   1  15
ENDBRANCH   6   1
ENDBRANCH   9   6
TORSDOF 6
ENDMDL
MODEL 4
REMARK VINA RESULT:      -0.6      2.278      3.653
REMARK  Name = 25338363
REMARK  9 active torsions:
REMARK  status: ('A' for Active; 'I' for Inactive)
REMARK    1  A    between atoms: S_1  and  N_6
REMARK    2  A    between atoms: S_1  and  C_15
REMARK    3  A    between atoms: N_5  and  C_14
REMARK    4  A    between atoms: N_6  and  C_9
REMARK    5  A    between atoms: C_10  and  C_13
REMARK    6  A    between atoms: C_15  and  C_16
REMARK    7  A    between atoms: C_16  and  C_18
REMARK    8  A    between atoms: C_17  and  C_19
REMARK    9  A    between atoms: C_24  and  C_25
REMARK                            x       y       z     vdW  Elec       q    Type
REMARK                         _______ _______ _______ _____ _____    ______ ____
ROOT
ATOM      5  N   UNL     1      -2.757   1.787  22.955  0.00  0.00    -0.293 NA
ATOM      9  C   UNL     1      -3.545   1.737  25.150  0.00  0.00    +0.092 C 
ATOM     10  C   UNL     1      -1.567   2.103  23.768  0.00  0.00    +0.147 C 
ATOM     11  C   UNL     1      -2.028   1.885  25.223  0.00  0.00    +0.050 C 
ATOM     12  C   UNL     1      -3.911   2.213  23.754  0.00  0.00    +0.105 C 
ATOM     14  C   UNL     1      -2.741   2.424  21.643  0.00  0.00    +0.105 C 
ENDROOT
BRANCH  10  13
ATOM      2  O   UNL     1      -0.569   0.197  22.609  0.00  0.00    -0.336 OA
ATOM      7  N   UNL     1       0.897   1.432  23.769  0.00  0.00    -0.190 NA
ATOM      8  N   UNL     1       0.682  -0.406  22.424  0.00  0.00    -0.056 NA
ATOM     13  C   UNL     1      -0.352   1.271  23.413  0.00  0.00    +0.245 A 
ATOM     17  C   UNL     1       1.493   0.379  23.138  0.00  0.00    +0.202 A 
BRANCH  17  19
ATOM     19  C   UNL     1       2.904   0.141  23.241  0.00  0.00    +0.022 A 
ATOM     20  C   UNL     1       3.373  -1.106  23.655  0.00  0.00    +0.012 A 
ATOM     21  C   UNL     1       3.808   1.157  22.928  0.00  0.00    +0.012 A 
ATOM     22  C   UNL     1       4.745  -1.338  23.755  0.00  0.00    +0.004 A 
ATOM     23  C   UNL     1       5.179   0.925  23.029  0.00  0.00    +0.004 A 
ATOM     24  C   UNL     1       5.648  -0.322  23.443  0.00  0.00    -0.050 A 
ATOM     25  C   UNL     1       7.115  -0.569  23.551  0.00  0.00    +0.044 C 
ENDBRANCH  17  19
ENDBRANCH  10  13
BRANCH   9   6
ATOM      6  N   UNL     1      -3.921   0.309  25.314  0.00  0.00    -0.190 NA
ATOM     26  H   UNL     1      -4.920   0.090  25.404  0.00  0.00    +0.148 HD
BRANCH   6   1
ATOM      1  S   UNL     1      -2.758  -0.785  25.904  0.00  0.00    +0.030 S 
ATOM      3  O   UNL     1      -3.348  -1.638  26.917  0.00  0.00    -0.158 OA
ATOM      4  O   UNL     1      -1.539  -0.047  26.172  0.00  0.00    -0.158 OA
BRANCH   1  15
ATOM     15  C   UNL     1      -2.472  -1.775  24.454  0.00  0.00    +0.185 C 
BRANCH  15  16
ATOM     16  C   UNL     1      -3.436  -2.947  24.387  0.00  0.00    +0.021 C 
ATOM     18  C   UNL     1      -4.674  -2.604  23.577  0.00  0.00    +0.005 C 
ENDBRANCH  15  16
ENDBRANCH   1  15
ENDBRANCH   6   1
ENDBRANCH   9   6
TORSDOF 6
ENDMDL
MODEL 5
REMARK VINA RESULT:       0.3     15.312     17.347
REMARK  Name = 25338363
REMARK  9 active torsions:
REMARK  status: ('A' for Active; 'I' for Inactive)
REMARK    1  A    between atoms: S_1  and  N_6
REMARK    2  A    between atoms: S_1  and  C_15
REMARK    3  A    between atoms: N_5  and  C_14
REMARK    4  A    between atoms: N_6  and  C_9
REMARK    5  A    between atoms: C_10  and  C_13
REMARK    6  A    between atoms: C_15  and  C_16
REMARK    7  A    between atoms: C_16  and  C_18
REMARK    8  A    between atoms: C_17  and  C_19
REMARK    9  A    between atoms: C_24  and  C_25
REMARK                            x       y       z     vdW  Elec       q    Type
REMARK                         _______ _______ _______ _____ _____    ______ ____
ROOT
ATOM      5  N   UNL     1      -1.174  -8.715  13.506  0.00  0.00    -0.293 NA
ATOM      9  C   UNL     1      -1.720  -9.971  15.394  0.00  0.00    +0.092 C 
ATOM     10  C   UNL     1      -1.614 -10.012  12.957  0.00  0.00    +0.147 C 
ATOM     11  C   UNL     1      -2.157 -10.781  14.177  0.00  0.00    +0.050 C 
ATOM     12  C   UNL     1      -0.680  -9.001  14.858  0.00  0.00    +0.105 C 
ATOM     14  C   UNL     1      -0.162  -8.059  12.687  0.00  0.00    +0.105 C 
ENDROOT
BRANCH  10  13
ATOM      2  O   UNL     1      -2.149  -9.711  10.592  0.00  0.00    -0.336 OA
ATOM      7  N   UNL     1      -3.944  -9.914  11.918  0.00  0.00    -0.190 NA
ATOM      8  N   UNL     1      -3.267  -9.618   9.752  0.00  0.00    -0.056 NA
ATOM     13  C   UNL     1      -2.638  -9.884  11.848  0.00  0.00    +0.245 A 
ATOM     17  C   UNL     1      -4.286  -9.747  10.607  0.00  0.00    +0.202 A 
BRANCH  17  19
ATOM     19  C   UNL     1      -5.656  -9.714  10.184  0.00  0.00    +0.022 A 
ATOM     20  C   UNL     1      -6.536 -10.718  10.590  0.00  0.00    +0.012 A 
ATOM     21  C   UNL     1      -6.109  -8.679   9.365  0.00  0.00    +0.012 A 
ATOM     22  C   UNL     1      -7.869 -10.686  10.179  0.00  0.00    +0.004 A 
ATOM     23  C   UNL     1      -7.441  -8.648   8.954  0.00  0.00    +0.004 A 
ATOM     24  C   UNL     1      -8.321  -9.652   9.360  0.00  0.00    -0.050 A 
ATOM     25  C   UNL     1      -9.745  -9.619   8.920  0.00  0.00    +0.044 C 
ENDBRANCH  17  19
ENDBRANCH  10  13
BRANCH   9   6
ATOM      6  N   UNL     1      -2.878  -9.222  15.945  0.00  0.00    -0.190 NA
ATOM     26  H   UNL     1      -2.691  -8.306  16.370  0.00  0.00    +0.148 HD
BRANCH   6   1
ATOM      1  S   UNL     1      -4.287 -10.079  16.365  0.00  0.00    +0.030 S 
ATOM      3  O   UNL     1      -4.085 -10.781  17.617  0.00  0.00    -0.158 OA
ATOM      4  O   UNL     1      -4.757 -10.781  15.187  0.00  0.00    -0.158 OA
BRANCH   1  15
ATOM     15  C   UNL     1      -5.412  -8.735  16.667  0.00  0.00    +0.185 C 
BRANCH  15  16
ATOM     16  C   UNL     1      -6.856  -9.167  16.468  0.00  0.00    +0.021 C 
ATOM     18  C   UNL     1      -7.474  -9.652  17.768  0.00  0.00    +0.005 C 
ENDBRANCH  15  16
ENDBRANCH   1  15
ENDBRANCH   6   1
ENDBRANCH   9   6
TORSDOF 6
ENDMDL
