MODEL 1
REMARK VINA RESULT:      -0.1      0.000      0.000
REMARK  Name = 45361559
REMARK  9 active torsions:
REMARK  status: ('A' for Active; 'I' for Inactive)
REMARK    1  A    between atoms: O_1  and  C_10
REMARK    2  A    between atoms: N_4  and  C_14
REMARK    3  A    between atoms: N_5  and  C_23
REMARK    4  A    between atoms: C_7  and  C_17
REMARK    5  A    between atoms: C_9  and  C_19
REMARK    6  A    between atoms: C_12  and  C_18
REMARK    7  A    between atoms: C_18  and  C_20
REMARK    8  A    between atoms: C_18  and  C_21
REMARK    9  A    between atoms: C_22  and  C_26
REMARK                            x       y       z     vdW  Elec       q    Type
REMARK                         _______ _______ _______ _____ _____    ______ ____
ROOT
ATOM      7  C   UNL     1      -2.858  -1.175  24.908  0.00  0.00    -0.027 C 
ATOM      8  C   UNL     1      -2.436   0.050  24.030  0.00  0.00    +0.028 C 
ATOM      9  C   UNL     1      -0.886   0.291  24.114  0.00  0.00    +0.012 C 
ATOM     10  C   UNL     1      -3.322   1.292  24.332  0.00  0.00    +0.122 C 
ATOM     11  C   UNL     1      -4.367  -1.453  24.715  0.00  0.00    +0.007 C 
ATOM     12  C   UNL     1      -4.834   0.981  24.238  0.00  0.00    +0.029 C 
ATOM     13  C   UNL     1      -2.083  -2.426  24.434  0.00  0.00    +0.009 C 
ATOM     14  C   UNL     1      -0.118  -0.999  23.707  0.00  0.00    +0.076 C 
ATOM     15  C   UNL     1      -5.240  -0.251  25.048  0.00  0.00    +0.007 C 
ATOM     16  C   UNL     1      -0.573  -2.242  24.468  0.00  0.00    +0.023 C 
ATOM     17  C   UNL     1      -2.582  -0.946  26.417  0.00  0.00    +0.011 C 
ATOM     19  C   UNL     1      -0.397   1.465  23.249  0.00  0.00    +0.010 C 
ENDROOT
BRANCH  14   4
ATOM      3  O   UNL     1       1.783  -0.210  21.705  0.00  0.00    -0.270 OA
ATOM      4  N   UNL     1       1.312  -0.849  23.883  0.00  0.00    -0.308 N 
ATOM     22  C   UNL     1       2.148  -0.463  22.850  0.00  0.00    +0.244 C 
ATOM     34  H   UNL     1       1.698  -1.149  24.772  0.00  0.00    +0.149 HD
BRANCH  22  26
ATOM      6  N   UNL     1       6.311  -0.227  23.819  0.00  0.00    -0.263 NA
ATOM     26  C   UNL     1       3.593  -0.382  23.185  0.00  0.00    +0.040 A 
ATOM     30  C   UNL     1       4.234  -1.462  23.781  0.00  0.00    +0.033 A 
ATOM     31  C   UNL     1       4.311   0.776  22.905  0.00  0.00    +0.033 A 
ATOM     32  C   UNL     1       5.581  -1.336  24.076  0.00  0.00    +0.111 A 
ATOM     33  C   UNL     1       5.655   0.802  23.239  0.00  0.00    +0.111 A 
ENDBRANCH  22  26
ENDBRANCH  14   4
BRANCH  10   1
ATOM      1  O   UNL     1      -3.056   2.314  23.370  0.00  0.00    -0.391 OA
ATOM     35  H   UNL     1      -2.184   2.695  23.568  0.00  0.00    +0.210 HD
ENDBRANCH  10   1
BRANCH  12  18
ATOM     18  C   UNL     1      -5.691   2.179  24.666  0.00  0.00    +0.077 C 
ATOM     20  C   UNL     1      -5.973   3.077  23.466  0.00  0.00    +0.017 C 
BRANCH  18  21
ATOM      2  O   UNL     1      -5.395   2.948  26.943  0.00  0.00    -0.276 OA
ATOM      5  N   UNL     1      -3.869   3.632  25.335  0.00  0.00    -0.312 N 
ATOM     21  C   UNL     1      -4.991   2.947  25.782  0.00  0.00    +0.216 C 
ATOM     36  H   UNL     1      -3.597   3.560  24.361  0.00  0.00    +0.149 HD
BRANCH   5  23
ATOM     23  C   UNL     1      -3.043   4.433  26.209  0.00  0.00    +0.073 C 
ATOM     24  C   UNL     1      -2.100   3.551  27.036  0.00  0.00    +0.022 C 
ATOM     25  C   UNL     1      -2.264   5.488  25.417  0.00  0.00    +0.022 C 
ATOM     27  C   UNL     1      -0.978   2.945  26.195  0.00  0.00    +0.002 C 
ATOM     28  C   UNL     1      -1.140   4.879  24.578  0.00  0.00    +0.002 C 
ATOM     29  C   UNL     1      -0.210   4.016  25.425  0.00  0.00    +0.000 C 
ENDBRANCH   5  23
ENDBRANCH  18  21
ENDBRANCH  12  18
TORSDOF 6
ENDMDL
