MODEL 1
REMARK VINA RESULT:       2.5      0.000      0.000
REMARK  Name = 45783468
REMARK  9 active torsions:
REMARK  status: ('A' for Active; 'I' for Inactive)
REMARK    1  A    between atoms: O_3  and  C_29
REMARK    2  A    between atoms: O_3  and  C_30
REMARK    3  A    between atoms: N_4  and  C_10
REMARK    4  A    between atoms: N_9  and  C_27
REMARK    5  A    between atoms: N_9  and  C_28
REMARK    6  A    between atoms: C_11  and  C_19
REMARK    7  A    between atoms: C_20  and  C_21
REMARK    8  A    between atoms: C_22  and  C_23
REMARK    9  A    between atoms: C_28  and  C_29
REMARK                            x       y       z     vdW  Elec       q    Type
REMARK                         _______ _______ _______ _____ _____    ______ ____
ROOT
ATOM      1  O   UNL     1      -1.902   3.446  24.800  0.00  0.00    -0.336 OA
ATOM      6  N   UNL     1      -1.635   1.568  23.609  0.00  0.00    -0.190 NA
ATOM      7  N   UNL     1      -0.523   3.302  24.605  0.00  0.00    -0.056 NA
ATOM     19  C   UNL     1      -2.483   2.384  24.183  0.00  0.00    +0.245 A 
ATOM     22  C   UNL     1      -0.446   2.172  23.895  0.00  0.00    +0.204 A 
ENDROOT
BRANCH  22  23
ATOM      8  N   UNL     1       3.178   1.908  23.104  0.00  0.00    -0.240 NA
ATOM     23  C   UNL     1       0.803   1.620  23.457  0.00  0.00    +0.041 A 
ATOM     24  C   UNL     1       0.881   0.320  22.971  0.00  0.00    +0.016 A 
ATOM     25  C   UNL     1       1.970   2.367  23.501  0.00  0.00    +0.124 A 
ATOM     26  C   UNL     1       2.107  -0.188  22.553  0.00  0.00    +0.044 A 
ATOM     27  C   UNL     1       3.215   0.639  22.639  0.00  0.00    +0.119 A 
BRANCH  27   9
ATOM      9  N   UNL     1       4.456   0.107  22.210  0.00  0.00    -0.327 N 
ATOM     31  H   UNL     1       4.443  -0.439  21.356  0.00  0.00    +0.148 HD
BRANCH   9  28
ATOM     28  C   UNL     1       5.671   0.310  22.931  0.00  0.00    +0.131 C 
BRANCH  28  29
ATOM     29  C   UNL     1       5.449   0.040  24.409  0.00  0.00    +0.178 C 
BRANCH  29   3
ATOM      3  O   UNL     1       5.608  -1.350  24.665  0.00  0.00    -0.381 OA
ATOM     30  C   UNL     1       4.632  -2.120  23.977  0.00  0.00    +0.194 C 
ENDBRANCH  29   3
ENDBRANCH  28  29
ENDBRANCH   9  28
ENDBRANCH  27   9
ENDBRANCH  22  23
BRANCH  19  11
ATOM      4  N   UNL     1      -4.477   1.710  25.510  0.00  0.00    -0.288 NA
ATOM     11  C   UNL     1      -3.994   2.307  24.250  0.00  0.00    +0.146 C 
ATOM     12  C   UNL     1      -5.788   2.305  25.775  0.00  0.00    +0.085 C 
ATOM     13  C   UNL     1      -4.663   3.694  24.192  0.00  0.00    +0.030 C 
ATOM     16  C   UNL     1      -5.547   3.760  25.429  0.00  0.00    +0.017 C 
BRANCH   4  10
ATOM      2  O   UNL     1      -1.442  -3.630  25.237  0.00  0.00    -0.276 OA
ATOM      5  N   UNL     1      -3.305  -2.297  24.852  0.00  0.00    -0.302 N 
ATOM     10  C   UNL     1      -4.534   0.250  25.471  0.00  0.00    +0.060 C 
ATOM     14  C   UNL     1      -3.425  -0.342  26.350  0.00  0.00    +0.038 C 
ATOM     15  C   UNL     1      -4.392  -0.243  24.025  0.00  0.00    +0.038 C 
ATOM     17  C   UNL     1      -3.406  -1.866  26.248  0.00  0.00    +0.109 C 
ATOM     18  C   UNL     1      -4.353  -1.770  23.969  0.00  0.00    +0.109 C 
ATOM     20  C   UNL     1      -2.291  -3.173  24.467  0.00  0.00    +0.212 C 
ATOM     21  C   UNL     1      -2.252  -3.566  23.012  0.00  0.00    +0.109 C 
ENDBRANCH   4  10
ENDBRANCH  19  11
TORSDOF 7
ENDMDL
MODEL 2
REMARK VINA RESULT:       3.8      2.283      4.785
REMARK  Name = 45783468
REMARK  9 active torsions:
REMARK  status: ('A' for Active; 'I' for Inactive)
REMARK    1  A    between atoms: O_3  and  C_29
REMARK    2  A    between atoms: O_3  and  C_30
REMARK    3  A    between atoms: N_4  and  C_10
REMARK    4  A    between atoms: N_9  and  C_27
REMARK    5  A    between atoms: N_9  and  C_28
REMARK    6  A    between atoms: C_11  and  C_19
REMARK    7  A    between atoms: C_20  and  C_21
REMARK    8  A    between atoms: C_22  and  C_23
REMARK    9  A    between atoms: C_28  and  C_29
REMARK                            x       y       z     vdW  Elec       q    Type
REMARK                         _______ _______ _______ _____ _____    ______ ____
ROOT
ATOM      1  O   UNL     1      -0.707  -0.565  22.477  0.00  0.00    -0.336 OA
ATOM      6  N   UNL     1       0.552  -0.706  24.326  0.00  0.00    -0.190 NA
ATOM      7  N   UNL     1       0.614  -0.347  22.067  0.00  0.00    -0.056 NA
ATOM     19  C   UNL     1      -0.654  -0.768  23.820  0.00  0.00    +0.245 A 
ATOM     22  C   UNL     1       1.296  -0.445  23.212  0.00  0.00    +0.204 A 
ENDROOT
BRANCH  22  23
ATOM      8  N   UNL     1       4.876  -1.218  23.857  0.00  0.00    -0.240 NA
ATOM     23  C   UNL     1       2.720  -0.288  23.278  0.00  0.00    +0.041 A 
ATOM     24  C   UNL     1       3.332   0.887  22.857  0.00  0.00    +0.016 A 
ATOM     25  C   UNL     1       3.529  -1.301  23.767  0.00  0.00    +0.124 A 
ATOM     26  C   UNL     1       4.715   1.010  22.933  0.00  0.00    +0.044 A 
ATOM     27  C   UNL     1       5.435  -0.061  23.436  0.00  0.00    +0.119 A 
BRANCH  27   9
ATOM      9  N   UNL     1       6.843   0.080  23.508  0.00  0.00    -0.327 N 
ATOM     31  H   UNL     1       7.193   0.819  24.107  0.00  0.00    +0.148 HD
BRANCH   9  28
ATOM     28  C   UNL     1       7.738  -0.759  22.779  0.00  0.00    +0.131 C 
BRANCH  28  29
ATOM     29  C   UNL     1       9.127  -0.144  22.761  0.00  0.00    +0.178 C 
BRANCH  29   3
ATOM      3  O   UNL     1       9.564   0.078  24.095  0.00  0.00    -0.381 OA
ATOM     30  C   UNL     1       9.967   1.427  24.293  0.00  0.00    +0.194 C 
ENDBRANCH  29   3
ENDBRANCH  28  29
ENDBRANCH   9  28
ENDBRANCH  27   9
ENDBRANCH  22  23
BRANCH  19  11
ATOM      4  N   UNL     1      -3.137  -0.720  23.661  0.00  0.00    -0.288 NA
ATOM     11  C   UNL     1      -1.974  -1.032  24.515  0.00  0.00    +0.146 C 
ATOM     12  C   UNL     1      -4.214  -1.614  24.086  0.00  0.00    +0.085 C 
ATOM     13  C   UNL     1      -2.158  -2.512  24.901  0.00  0.00    +0.030 C 
ATOM     16  C   UNL     1      -3.479  -2.925  24.269  0.00  0.00    +0.017 C 
BRANCH   4  10
ATOM      2  O   UNL     1      -1.759   5.033  25.339  0.00  0.00    -0.276 OA
ATOM      5  N   UNL     1      -3.266   3.327  24.874  0.00  0.00    -0.302 N 
ATOM     10  C   UNL     1      -3.534   0.686  23.720  0.00  0.00    +0.060 C 
ATOM     14  C   UNL     1      -2.334   1.585  23.399  0.00  0.00    +0.038 C 
ATOM     15  C   UNL     1      -4.095   1.016  25.109  0.00  0.00    +0.038 C 
ATOM     17  C   UNL     1      -2.702   3.059  23.548  0.00  0.00    +0.109 C 
ATOM     18  C   UNL     1      -4.429   2.503  25.225  0.00  0.00    +0.109 C 
ATOM     20  C   UNL     1      -2.716   4.329  25.672  0.00  0.00    +0.212 C 
ATOM     21  C   UNL     1      -3.349   4.541  27.024  0.00  0.00    +0.109 C 
ENDBRANCH   4  10
ENDBRANCH  19  11
TORSDOF 7
ENDMDL
MODEL 3
REMARK VINA RESULT:       4.5      2.226      3.177
REMARK  Name = 45783468
REMARK  9 active torsions:
REMARK  status: ('A' for Active; 'I' for Inactive)
REMARK    1  A    between atoms: O_3  and  C_29
REMARK    2  A    between atoms: O_3  and  C_30
REMARK    3  A    between atoms: N_4  and  C_10
REMARK    4  A    between atoms: N_9  and  C_27
REMARK    5  A    between atoms: N_9  and  C_28
REMARK    6  A    between atoms: C_11  and  C_19
REMARK    7  A    between atoms: C_20  and  C_21
REMARK    8  A    between atoms: C_22  and  C_23
REMARK    9  A    between atoms: C_28  and  C_29
REMARK                            x       y       z     vdW  Elec       q    Type
REMARK                         _______ _______ _______ _____ _____    ______ ____
ROOT
ATOM      1  O   UNL     1      -0.508   0.495  22.885  0.00  0.00    -0.336 OA
ATOM      6  N   UNL     1       1.085   1.686  23.917  0.00  0.00    -0.190 NA
ATOM      7  N   UNL     1       0.691  -0.201  22.684  0.00  0.00    -0.056 NA
ATOM     19  C   UNL     1      -0.187   1.593  23.619  0.00  0.00    +0.245 A 
ATOM     22  C   UNL     1       1.582   0.563  23.322  0.00  0.00    +0.204 A 
ENDROOT
BRANCH  22  23
ATOM      8  N   UNL     1       4.693  -1.422  23.777  0.00  0.00    -0.240 NA
ATOM     23  C   UNL     1       2.977   0.235  23.383  0.00  0.00    +0.041 A 
ATOM     24  C   UNL     1       3.951   1.193  23.126  0.00  0.00    +0.016 A 
ATOM     25  C   UNL     1       3.396  -1.046  23.702  0.00  0.00    +0.124 A 
ATOM     26  C   UNL     1       5.296   0.844  23.193  0.00  0.00    +0.044 A 
ATOM     27  C   UNL     1       5.612  -0.464  23.519  0.00  0.00    +0.119 A 
BRANCH  27   9
ATOM      9  N   UNL     1       6.986  -0.804  23.582  0.00  0.00    -0.327 N 
ATOM     31  H   UNL     1       7.357  -1.012  24.502  0.00  0.00    +0.148 HD
BRANCH   9  28
ATOM     28  C   UNL     1       7.821  -0.849  22.427  0.00  0.00    +0.131 C 
BRANCH  28  29
ATOM     29  C   UNL     1       9.273  -0.649  22.828  0.00  0.00    +0.178 C 
BRANCH  29   3
ATOM      3  O   UNL     1       9.555   0.743  22.906  0.00  0.00    -0.381 OA
ATOM     30  C   UNL     1       9.910   1.128  24.227  0.00  0.00    +0.194 C 
ENDBRANCH  29   3
ENDBRANCH  28  29
ENDBRANCH   9  28
ENDBRANCH  27   9
ENDBRANCH  22  23
BRANCH  19  11
ATOM      4  N   UNL     1      -1.725   2.417  25.393  0.00  0.00    -0.288 NA
ATOM     11  C   UNL     1      -1.328   2.524  23.976  0.00  0.00    +0.146 C 
ATOM     12  C   UNL     1      -2.247   3.729  25.777  0.00  0.00    +0.085 C 
ATOM     13  C   UNL     1      -0.967   4.008  23.781  0.00  0.00    +0.030 C 
ATOM     16  C   UNL     1      -1.251   4.665  25.124  0.00  0.00    +0.017 C 
BRANCH   4  10
ATOM      2  O   UNL     1      -3.250  -3.503  24.727  0.00  0.00    -0.276 OA
ATOM      5  N   UNL     1      -3.778  -1.256  24.994  0.00  0.00    -0.302 N 
ATOM     10  C   UNL     1      -2.690   1.347  25.642  0.00  0.00    +0.060 C 
ATOM     14  C   UNL     1      -1.956   0.054  26.016  0.00  0.00    +0.038 C 
ATOM     15  C   UNL     1      -3.563   1.128  24.399  0.00  0.00    +0.038 C 
ATOM     17  C   UNL     1      -2.940  -1.102  26.186  0.00  0.00    +0.109 C 
ATOM     18  C   UNL     1      -4.517  -0.049  24.602  0.00  0.00    +0.109 C 
ATOM     20  C   UNL     1      -3.854  -2.493  24.355  0.00  0.00    +0.212 C 
ATOM     21  C   UNL     1      -4.734  -2.570  23.133  0.00  0.00    +0.109 C 
ENDBRANCH   4  10
ENDBRANCH  19  11
TORSDOF 7
ENDMDL
MODEL 4
REMARK VINA RESULT:       5.4      1.610      4.334
REMARK  Name = 45783468
REMARK  9 active torsions:
REMARK  status: ('A' for Active; 'I' for Inactive)
REMARK    1  A    between atoms: O_3  and  C_29
REMARK    2  A    between atoms: O_3  and  C_30
REMARK    3  A    between atoms: N_4  and  C_10
REMARK    4  A    between atoms: N_9  and  C_27
REMARK    5  A    between atoms: N_9  and  C_28
REMARK    6  A    between atoms: C_11  and  C_19
REMARK    7  A    between atoms: C_20  and  C_21
REMARK    8  A    between atoms: C_22  and  C_23
REMARK    9  A    between atoms: C_28  and  C_29
REMARK                            x       y       z     vdW  Elec       q    Type
REMARK                         _______ _______ _______ _____ _____    ______ ____
ROOT
ATOM      1  O   UNL     1      -1.489  -1.552  26.063  0.00  0.00    -0.336 OA
ATOM      6  N   UNL     1      -1.330  -0.779  23.965  0.00  0.00    -0.190 NA
ATOM      7  N   UNL     1      -0.135  -1.261  25.856  0.00  0.00    -0.056 NA
ATOM     19  C   UNL     1      -2.122  -1.240  24.900  0.00  0.00    +0.245 A 
ATOM     22  C   UNL     1      -0.121  -0.810  24.598  0.00  0.00    +0.204 A 
ENDROOT
BRANCH  22  23
ATOM      8  N   UNL     1       3.156  -0.973  22.849  0.00  0.00    -0.240 NA
ATOM     23  C   UNL     1       1.082  -0.385  23.944  0.00  0.00    +0.041 A 
ATOM     24  C   UNL     1       1.361   0.965  23.763  0.00  0.00    +0.016 A 
ATOM     25  C   UNL     1       2.004  -1.306  23.473  0.00  0.00    +0.124 A 
ATOM     26  C   UNL     1       2.536   1.347  23.125  0.00  0.00    +0.044 A 
ATOM     27  C   UNL     1       3.392   0.349  22.690  0.00  0.00    +0.119 A 
BRANCH  27   9
ATOM      9  N   UNL     1       4.585   0.754  22.041  0.00  0.00    -0.327 N 
ATOM     31  H   UNL     1       4.474   1.317  21.205  0.00  0.00    +0.148 HD
BRANCH   9  28
ATOM     28  C   UNL     1       5.881   0.394  22.516  0.00  0.00    +0.131 C 
BRANCH  28  29
ATOM     29  C   UNL     1       6.006   0.735  23.992  0.00  0.00    +0.178 C 
BRANCH  29   3
ATOM      3  O   UNL     1       5.607  -0.385  24.772  0.00  0.00    -0.381 OA
ATOM     30  C   UNL     1       5.843  -1.607  24.085  0.00  0.00    +0.194 C 
ENDBRANCH  29   3
ENDBRANCH  28  29
ENDBRANCH   9  28
ENDBRANCH  27   9
ENDBRANCH  22  23
BRANCH  19  11
ATOM      4  N   UNL     1      -4.258  -0.858  23.683  0.00  0.00    -0.288 NA
ATOM     11  C   UNL     1      -3.619  -1.468  24.865  0.00  0.00    +0.146 C 
ATOM     12  C   UNL     1      -5.431  -1.678  23.377  0.00  0.00    +0.085 C 
ATOM     13  C   UNL     1      -3.992  -2.960  24.787  0.00  0.00    +0.030 C 
ATOM     16  C   UNL     1      -4.890  -3.080  23.563  0.00  0.00    +0.017 C 
BRANCH   4  10
ATOM      2  O   UNL     1      -2.397   4.847  25.022  0.00  0.00    -0.276 OA
ATOM      5  N   UNL     1      -3.994   3.162  24.962  0.00  0.00    -0.302 N 
ATOM     10  C   UNL     1      -4.606   0.548  23.877  0.00  0.00    +0.060 C 
ATOM     14  C   UNL     1      -3.530   1.446  23.252  0.00  0.00    +0.038 C 
ATOM     15  C   UNL     1      -4.754   0.851  25.373  0.00  0.00    +0.038 C 
ATOM     17  C   UNL     1      -3.825   2.920  23.527  0.00  0.00    +0.109 C 
ATOM     18  C   UNL     1      -5.025   2.338  25.606  0.00  0.00    +0.109 C 
ATOM     20  C   UNL     1      -3.232   4.143  25.594  0.00  0.00    +0.212 C 
ATOM     21  C   UNL     1      -3.463   4.328  27.073  0.00  0.00    +0.109 C 
ENDBRANCH   4  10
ENDBRANCH  19  11
TORSDOF 7
ENDMDL
MODEL 5
REMARK VINA RESULT:       5.8      2.156      7.124
REMARK  Name = 45783468
REMARK  9 active torsions:
REMARK  status: ('A' for Active; 'I' for Inactive)
REMARK    1  A    between atoms: O_3  and  C_29
REMARK    2  A    between atoms: O_3  and  C_30
REMARK    3  A    between atoms: N_4  and  C_10
REMARK    4  A    between atoms: N_9  and  C_27
REMARK    5  A    between atoms: N_9  and  C_28
REMARK    6  A    between atoms: C_11  and  C_19
REMARK    7  A    between atoms: C_20  and  C_21
REMARK    8  A    between atoms: C_22  and  C_23
REMARK    9  A    between atoms: C_28  and  C_29
REMARK                            x       y       z     vdW  Elec       q    Type
REMARK                         _______ _______ _______ _____ _____    ______ ____
ROOT
ATOM      1  O   UNL     1       1.195   3.228  23.708  0.00  0.00    -0.336 OA
ATOM      6  N   UNL     1      -0.429   1.813  24.325  0.00  0.00    -0.190 NA
ATOM      7  N   UNL     1       0.066   4.016  23.960  0.00  0.00    -0.056 NA
ATOM     19  C   UNL     1       0.817   1.944  23.946  0.00  0.00    +0.245 A 
ATOM     22  C   UNL     1      -0.849   3.111  24.319  0.00  0.00    +0.204 A 
ENDROOT
BRANCH  22  23
ATOM      8  N   UNL     1      -3.776   4.087  26.394  0.00  0.00    -0.240 NA
ATOM     23  C   UNL     1      -2.191   3.469  24.675  0.00  0.00    +0.041 A 
ATOM     24  C   UNL     1      -3.192   3.549  23.714  0.00  0.00    +0.016 A 
ATOM     25  C   UNL     1      -2.532   3.745  25.990  0.00  0.00    +0.124 A 
ATOM     26  C   UNL     1      -4.484   3.899  24.090  0.00  0.00    +0.044 A 
ATOM     27  C   UNL     1      -4.723   4.156  25.430  0.00  0.00    +0.119 A 
BRANCH  27   9
ATOM      9  N   UNL     1      -6.044   4.512  25.798  0.00  0.00    -0.327 N 
ATOM     31  H   UNL     1      -6.253   5.504  25.826  0.00  0.00    +0.148 HD
BRANCH   9  28
ATOM     28  C   UNL     1      -7.040   3.544  26.122  0.00  0.00    +0.131 C 
BRANCH  28  29
ATOM     29  C   UNL     1      -6.402   2.174  26.277  0.00  0.00    +0.178 C 
BRANCH  29   3
ATOM      3  O   UNL     1      -6.464   1.479  25.038  0.00  0.00    -0.381 OA
ATOM     30  C   UNL     1      -5.286   0.717  24.810  0.00  0.00    +0.194 C 
ENDBRANCH  29   3
ENDBRANCH  28  29
ENDBRANCH   9  28
ENDBRANCH  27   9
ENDBRANCH  22  23
BRANCH  19  11
ATOM      4  N   UNL     1       1.422  -0.212  22.860  0.00  0.00    -0.288 NA
ATOM     11  C   UNL     1       1.876   0.880  23.743  0.00  0.00    +0.146 C 
ATOM     12  C   UNL     1       2.617  -0.731  22.194  0.00  0.00    +0.085 C 
ATOM     13  C   UNL     1       3.147   1.428  23.066  0.00  0.00    +0.030 C 
ATOM     16  C   UNL     1       3.359   0.543  21.846  0.00  0.00    +0.017 C 
BRANCH   4  10
ATOM      2  O   UNL     1      -4.001  -2.680  24.382  0.00  0.00    -0.276 OA
ATOM      5  N   UNL     1      -1.753  -2.243  24.774  0.00  0.00    -0.302 N 
ATOM     10  C   UNL     1       0.689  -1.259  23.569  0.00  0.00    +0.060 C 
ATOM     14  C   UNL     1      -0.488  -1.747  22.715  0.00  0.00    +0.038 C 
ATOM     15  C   UNL     1       0.189  -0.729  24.919  0.00  0.00    +0.038 C 
ATOM     17  C   UNL     1      -1.324  -2.774  23.477  0.00  0.00    +0.109 C 
ATOM     18  C   UNL     1      -0.661  -1.776  25.637  0.00  0.00    +0.109 C 
ATOM     20  C   UNL     1      -3.105  -2.248  25.113  0.00  0.00    +0.212 C 
ATOM     21  C   UNL     1      -3.465  -1.682  26.463  0.00  0.00    +0.109 C 
ENDBRANCH   4  10
ENDBRANCH  19  11
TORSDOF 7
ENDMDL
MODEL 6
REMARK VINA RESULT:       6.0      1.760      4.466
REMARK  Name = 45783468
REMARK  9 active torsions:
REMARK  status: ('A' for Active; 'I' for Inactive)
REMARK    1  A    between atoms: O_3  and  C_29
REMARK    2  A    between atoms: O_3  and  C_30
REMARK    3  A    between atoms: N_4  and  C_10
REMARK    4  A    between atoms: N_9  and  C_27
REMARK    5  A    between atoms: N_9  and  C_28
REMARK    6  A    between atoms: C_11  and  C_19
REMARK    7  A    between atoms: C_20  and  C_21
REMARK    8  A    between atoms: C_22  and  C_23
REMARK    9  A    between atoms: C_28  and  C_29
REMARK                            x       y       z     vdW  Elec       q    Type
REMARK                         _______ _______ _______ _____ _____    ______ ____
ROOT
ATOM      1  O   UNL     1      -2.296  -1.791  24.577  0.00  0.00    -0.336 OA
ATOM      6  N   UNL     1      -1.619   0.319  24.246  0.00  0.00    -0.190 NA
ATOM      7  N   UNL     1      -0.999  -1.875  24.056  0.00  0.00    -0.056 NA
ATOM     19  C   UNL     1      -2.584  -0.465  24.657  0.00  0.00    +0.245 A 
ATOM     22  C   UNL     1      -0.668  -0.591  23.888  0.00  0.00    +0.204 A 
ENDROOT
BRANCH  22  23
ATOM      8  N   UNL     1       2.527   1.274  23.509  0.00  0.00    -0.240 NA
ATOM     23  C   UNL     1       0.602  -0.184  23.363  0.00  0.00    +0.041 A 
ATOM     24  C   UNL     1       1.148  -0.803  22.244  0.00  0.00    +0.016 A 
ATOM     25  C   UNL     1       1.325   0.841  23.953  0.00  0.00    +0.124 A 
ATOM     26  C   UNL     1       2.383  -0.386  21.758  0.00  0.00    +0.044 A 
ATOM     27  C   UNL     1       3.026   0.647  22.420  0.00  0.00    +0.119 A 
BRANCH  27   9
ATOM      9  N   UNL     1       4.283   1.059  21.914  0.00  0.00    -0.327 N 
ATOM     31  H   UNL     1       4.265   1.728  21.152  0.00  0.00    +0.148 HD
BRANCH   9  28
ATOM     28  C   UNL     1       5.519   0.569  22.429  0.00  0.00    +0.131 C 
BRANCH  28  29
ATOM     29  C   UNL     1       5.400   0.329  23.924  0.00  0.00    +0.178 C 
BRANCH  29   3
ATOM      3  O   UNL     1       5.679  -1.035  24.209  0.00  0.00    -0.381 OA
ATOM     30  C   UNL     1       4.537  -1.855  23.998  0.00  0.00    +0.194 C 
ENDBRANCH  29   3
ENDBRANCH  28  29
ENDBRANCH   9  28
ENDBRANCH  27   9
ENDBRANCH  22  23
BRANCH  19  11
ATOM      4  N   UNL     1      -4.477   1.150  24.623  0.00  0.00    -0.288 NA
ATOM     11  C   UNL     1      -3.951  -0.103  25.199  0.00  0.00    +0.146 C 
ATOM     12  C   UNL     1      -5.935   1.030  24.630  0.00  0.00    +0.085 C 
ATOM     13  C   UNL     1      -5.020  -1.162  24.873  0.00  0.00    +0.030 C 
ATOM     16  C   UNL     1      -6.133  -0.399  24.168  0.00  0.00    +0.017 C 
BRANCH   4  10
ATOM      2  O   UNL     1      -2.108   6.817  24.323  0.00  0.00    -0.276 OA
ATOM      5  N   UNL     1      -2.471   4.790  25.397  0.00  0.00    -0.302 N 
ATOM     10  C   UNL     1      -4.021   2.345  25.331  0.00  0.00    +0.060 C 
ATOM     14  C   UNL     1      -4.474   3.605  24.582  0.00  0.00    +0.038 C 
ATOM     15  C   UNL     1      -2.493   2.324  25.469  0.00  0.00    +0.038 C 
ATOM     17  C   UNL     1      -3.927   4.864  25.253  0.00  0.00    +0.109 C 
ATOM     18  C   UNL     1      -1.985   3.609  26.122  0.00  0.00    +0.109 C 
ATOM     20  C   UNL     1      -1.671   5.816  24.898  0.00  0.00    +0.212 C 
ATOM     21  C   UNL     1      -0.182   5.664  25.083  0.00  0.00    +0.109 C 
ENDBRANCH   4  10
ENDBRANCH  19  11
TORSDOF 7
ENDMDL
