MODEL 1
REMARK VINA RESULT:       0.2      0.000      0.000
REMARK  Name = 51137737
REMARK  3 active torsions:
REMARK  status: ('A' for Active; 'I' for Inactive)
REMARK    1  A    between atoms: C_7  and  C_11
REMARK    2  A    between atoms: C_12  and  C_13
REMARK    3  A    between atoms: C_14  and  C_15
REMARK                            x       y       z     vdW  Elec       q    Type
REMARK                         _______ _______ _______ _____ _____    ______ ____
ROOT
ATOM      2  O   UNL     1      -4.177   4.541  23.402  0.00  0.00    -0.268 OA
ATOM      3  N   UNL     1      -2.446   3.724  24.718  0.00  0.00    -0.296 N 
ATOM      7  C   UNL     1      -0.367   2.856  25.483  0.00  0.00    +0.095 C 
ATOM      8  C   UNL     1      -0.171   4.293  24.975  0.00  0.00    +0.033 C 
ATOM      9  C   UNL     1      -1.885   2.802  25.707  0.00  0.00    +0.121 C 
ATOM     10  C   UNL     1      -1.407   4.552  24.125  0.00  0.00    +0.109 C 
ATOM     12  C   UNL     1      -3.763   3.798  24.290  0.00  0.00    +0.265 C 
ENDROOT
BRANCH  12  13
ATOM      6  N   UNL     1      -5.460   3.463  25.941  0.00  0.00    -0.250 NA
ATOM     13  C   UNL     1      -4.739   2.911  24.939  0.00  0.00    +0.126 A 
ATOM     16  C   UNL     1      -4.876   1.598  24.517  0.00  0.00    +0.033 A 
ATOM     19  C   UNL     1      -5.814   0.801  25.166  0.00  0.00    +0.004 A 
ATOM     20  C   UNL     1      -6.361   2.658  26.547  0.00  0.00    +0.111 A 
ATOM     21  C   UNL     1      -6.574   1.334  26.200  0.00  0.00    +0.020 A 
ENDBRANCH  12  13
BRANCH   7  11
ATOM      1  O   UNL     1       1.553   1.607  24.598  0.00  0.00    -0.420 OA
ATOM      4  N   UNL     1      -0.386   1.123  23.594  0.00  0.00    -0.112 NA
ATOM      5  N   UNL     1       0.603   0.358  23.005  0.00  0.00    -0.107 NA
ATOM     11  C   UNL     1       0.214   1.836  24.518  0.00  0.00    +0.222 A 
ATOM     14  C   UNL     1       1.717   0.673  23.623  0.00  0.00    +0.248 A 
BRANCH  14  15
ATOM     15  C   UNL     1       3.054   0.193  23.432  0.00  0.00    +0.038 A 
ATOM     17  C   UNL     1       3.390  -1.109  23.806  0.00  0.00    +0.013 A 
ATOM     18  C   UNL     1       4.022   1.028  22.872  0.00  0.00    +0.013 A 
ATOM     22  C   UNL     1       4.691  -1.576  23.619  0.00  0.00    +0.001 A 
ATOM     23  C   UNL     1       5.324   0.561  22.686  0.00  0.00    +0.001 A 
ATOM     24  C   UNL     1       5.657  -0.740  23.059  0.00  0.00    +0.000 A 
ENDBRANCH  14  15
ENDBRANCH   7  11
TORSDOF 3
ENDMDL
MODEL 2
REMARK VINA RESULT:       0.3      2.599      6.908
REMARK  Name = 51137737
REMARK  3 active torsions:
REMARK  status: ('A' for Active; 'I' for Inactive)
REMARK    1  A    between atoms: C_7  and  C_11
REMARK    2  A    between atoms: C_12  and  C_13
REMARK    3  A    between atoms: C_14  and  C_15
REMARK                            x       y       z     vdW  Elec       q    Type
REMARK                         _______ _______ _______ _____ _____    ______ ____
ROOT
ATOM      2  O   UNL     1       1.184   2.291  26.095  0.00  0.00    -0.268 OA
ATOM      3  N   UNL     1      -0.538   2.864  24.646  0.00  0.00    -0.296 N 
ATOM      7  C   UNL     1      -2.672   3.254  23.670  0.00  0.00    +0.095 C 
ATOM      8  C   UNL     1      -2.447   4.238  24.828  0.00  0.00    +0.033 C 
ATOM      9  C   UNL     1      -1.241   2.789  23.365  0.00  0.00    +0.121 C 
ATOM     10  C   UNL     1      -1.313   3.610  25.626  0.00  0.00    +0.109 C 
ATOM     12  C   UNL     1       0.665   2.262  24.981  0.00  0.00    +0.265 C 
ENDROOT
BRANCH  12  13
ATOM      6  N   UNL     1       2.634   1.917  23.669  0.00  0.00    -0.250 NA
ATOM     13  C   UNL     1       1.369   1.516  23.927  0.00  0.00    +0.126 A 
ATOM     16  C   UNL     1       0.734   0.477  23.266  0.00  0.00    +0.033 A 
ATOM     19  C   UNL     1       1.445  -0.195  22.276  0.00  0.00    +0.004 A 
ATOM     20  C   UNL     1       3.293   1.241  22.702  0.00  0.00    +0.111 A 
ATOM     21  C   UNL     1       2.748   0.188  21.984  0.00  0.00    +0.020 A 
ENDBRANCH  12  13
BRANCH   7  11
ATOM      1  O   UNL     1      -3.229   0.886  24.005  0.00  0.00    -0.420 OA
ATOM      4  N   UNL     1      -4.932   2.284  24.395  0.00  0.00    -0.112 NA
ATOM      5  N   UNL     1      -5.377   0.995  24.619  0.00  0.00    -0.107 NA
ATOM     11  C   UNL     1      -3.673   2.172  24.039  0.00  0.00    +0.222 A 
ATOM     14  C   UNL     1      -4.351   0.213  24.379  0.00  0.00    +0.248 A 
BRANCH  14  15
ATOM     15  C   UNL     1      -4.232  -1.214  24.450  0.00  0.00    +0.038 A 
ATOM     17  C   UNL     1      -3.513  -1.804  25.491  0.00  0.00    +0.013 A 
ATOM     18  C   UNL     1      -4.834  -2.014  23.479  0.00  0.00    +0.013 A 
ATOM     22  C   UNL     1      -3.398  -3.193  25.560  0.00  0.00    +0.001 A 
ATOM     23  C   UNL     1      -4.718  -3.402  23.547  0.00  0.00    +0.001 A 
ATOM     24  C   UNL     1      -4.000  -3.991  24.588  0.00  0.00    +0.000 A 
ENDBRANCH  14  15
ENDBRANCH   7  11
TORSDOF 3
ENDMDL
MODEL 3
REMARK VINA RESULT:       2.0      2.327      3.263
REMARK  Name = 51137737
REMARK  3 active torsions:
REMARK  status: ('A' for Active; 'I' for Inactive)
REMARK    1  A    between atoms: C_7  and  C_11
REMARK    2  A    between atoms: C_12  and  C_13
REMARK    3  A    between atoms: C_14  and  C_15
REMARK                            x       y       z     vdW  Elec       q    Type
REMARK                         _______ _______ _______ _____ _____    ______ ____
ROOT
ATOM      2  O   UNL     1      -3.583  -0.861  26.718  0.00  0.00    -0.268 OA
ATOM      3  N   UNL     1      -2.625  -0.581  24.620  0.00  0.00    -0.296 N 
ATOM      7  C   UNL     1      -1.089  -0.411  22.811  0.00  0.00    +0.095 C 
ATOM      8  C   UNL     1      -1.140  -1.863  23.310  0.00  0.00    +0.033 C 
ATOM      9  C   UNL     1      -2.391   0.168  23.385  0.00  0.00    +0.121 C 
ATOM     10  C   UNL     1      -1.765  -1.753  24.694  0.00  0.00    +0.109 C 
ATOM     12  C   UNL     1      -3.472  -0.239  25.663  0.00  0.00    +0.265 C 
ENDROOT
BRANCH  12  13
ATOM      6  N   UNL     1      -3.631   2.146  25.612  0.00  0.00    -0.250 NA
ATOM     13  C   UNL     1      -4.291   0.972  25.503  0.00  0.00    +0.126 A 
ATOM     16  C   UNL     1      -5.651   0.866  25.258  0.00  0.00    +0.033 A 
ATOM     19  C   UNL     1      -6.380   2.043  25.115  0.00  0.00    +0.004 A 
ATOM     20  C   UNL     1      -4.372   3.268  25.468  0.00  0.00    +0.111 A 
ATOM     21  C   UNL     1      -5.735   3.269  25.221  0.00  0.00    +0.020 A 
ENDBRANCH  12  13
BRANCH   7  11
ATOM      1  O   UNL     1       1.351  -0.436  23.081  0.00  0.00    -0.420 OA
ATOM      4  N   UNL     1       0.387   1.485  23.704  0.00  0.00    -0.112 NA
ATOM      5  N   UNL     1       1.749   1.605  23.906  0.00  0.00    -0.107 NA
ATOM     11  C   UNL     1       0.200   0.278  23.221  0.00  0.00    +0.222 A 
ATOM     14  C   UNL     1       2.271   0.461  23.529  0.00  0.00    +0.248 A 
BRANCH  14  15
ATOM     15  C   UNL     1       3.635   0.020  23.517  0.00  0.00    +0.038 A 
ATOM     17  C   UNL     1       4.653   0.910  23.174  0.00  0.00    +0.013 A 
ATOM     18  C   UNL     1       3.945  -1.299  23.847  0.00  0.00    +0.013 A 
ATOM     22  C   UNL     1       5.981   0.481  23.162  0.00  0.00    +0.001 A 
ATOM     23  C   UNL     1       5.272  -1.729  23.835  0.00  0.00    +0.001 A 
ATOM     24  C   UNL     1       6.289  -0.838  23.493  0.00  0.00    +0.000 A 
ENDBRANCH  14  15
ENDBRANCH   7  11
TORSDOF 3
ENDMDL
MODEL 4
REMARK VINA RESULT:       2.2      2.047      3.540
REMARK  Name = 51137737
REMARK  3 active torsions:
REMARK  status: ('A' for Active; 'I' for Inactive)
REMARK    1  A    between atoms: C_7  and  C_11
REMARK    2  A    between atoms: C_12  and  C_13
REMARK    3  A    between atoms: C_14  and  C_15
REMARK                            x       y       z     vdW  Elec       q    Type
REMARK                         _______ _______ _______ _____ _____    ______ ____
ROOT
ATOM      2  O   UNL     1      -4.399   2.680  26.586  0.00  0.00    -0.268 OA
ATOM      3  N   UNL     1      -3.667   1.563  24.686  0.00  0.00    -0.296 N 
ATOM      7  C   UNL     1      -2.688  -0.007  23.190  0.00  0.00    +0.095 C 
ATOM      8  C   UNL     1      -3.899  -0.645  23.888  0.00  0.00    +0.033 C 
ATOM      9  C   UNL     1      -2.944   1.490  23.415  0.00  0.00    +0.121 C 
ATOM     10  C   UNL     1      -4.136   0.249  25.098  0.00  0.00    +0.109 C 
ATOM     12  C   UNL     1      -3.847   2.680  25.488  0.00  0.00    +0.265 C 
ENDROOT
BRANCH  12  13
ATOM      6  N   UNL     1      -4.079   4.582  24.058  0.00  0.00    -0.250 NA
ATOM     13  C   UNL     1      -3.325   3.962  24.993  0.00  0.00    +0.126 A 
ATOM     16  C   UNL     1      -2.130   4.464  25.484  0.00  0.00    +0.033 A 
ATOM     19  C   UNL     1      -1.681   5.681  24.982  0.00  0.00    +0.004 A 
ATOM     20  C   UNL     1      -3.610   5.762  23.594  0.00  0.00    +0.111 A 
ATOM     21  C   UNL     1      -2.429   6.348  24.019  0.00  0.00    +0.020 A 
ENDBRANCH  12  13
BRANCH   7  11
ATOM      1  O   UNL     1      -0.233  -0.034  23.205  0.00  0.00    -0.420 OA
ATOM      4  N   UNL     1      -1.167  -1.491  24.623  0.00  0.00    -0.112 NA
ATOM      5  N   UNL     1       0.206  -1.609  24.732  0.00  0.00    -0.107 NA
ATOM     11  C   UNL     1      -1.377  -0.560  23.722  0.00  0.00    +0.222 A 
ATOM     14  C   UNL     1       0.709  -0.740  23.887  0.00  0.00    +0.248 A 
BRANCH  14  15
ATOM     15  C   UNL     1       2.074  -0.427  23.577  0.00  0.00    +0.038 A 
ATOM     17  C   UNL     1       3.083  -1.348  23.860  0.00  0.00    +0.013 A 
ATOM     18  C   UNL     1       2.393   0.800  22.994  0.00  0.00    +0.013 A 
ATOM     22  C   UNL     1       4.410  -1.043  23.558  0.00  0.00    +0.001 A 
ATOM     23  C   UNL     1       3.721   1.105  22.693  0.00  0.00    +0.001 A 
ATOM     24  C   UNL     1       4.728   0.183  22.975  0.00  0.00    +0.000 A 
ENDBRANCH  14  15
ENDBRANCH   7  11
TORSDOF 3
ENDMDL
MODEL 5
REMARK VINA RESULT:       2.7      3.401      5.501
REMARK  Name = 51137737
REMARK  3 active torsions:
REMARK  status: ('A' for Active; 'I' for Inactive)
REMARK    1  A    between atoms: C_7  and  C_11
REMARK    2  A    between atoms: C_12  and  C_13
REMARK    3  A    between atoms: C_14  and  C_15
REMARK                            x       y       z     vdW  Elec       q    Type
REMARK                         _______ _______ _______ _____ _____    ______ ____
ROOT
ATOM      2  O   UNL     1      -3.351   4.055  27.608  0.00  0.00    -0.268 OA
ATOM      3  N   UNL     1      -4.297   3.192  25.671  0.00  0.00    -0.296 N 
ATOM      7  C   UNL     1      -5.336   1.775  24.067  0.00  0.00    +0.095 C 
ATOM      8  C   UNL     1      -6.338   2.116  25.180  0.00  0.00    +0.033 C 
ATOM      9  C   UNL     1      -4.280   2.876  24.242  0.00  0.00    +0.121 C 
ATOM     10  C   UNL     1      -5.462   2.612  26.322  0.00  0.00    +0.109 C 
ATOM     12  C   UNL     1      -3.330   3.875  26.392  0.00  0.00    +0.265 C 
ENDROOT
BRANCH  12  13
ATOM      6  N   UNL     1      -1.188   3.534  25.386  0.00  0.00    -0.250 NA
ATOM     13  C   UNL     1      -2.181   4.413  25.649  0.00  0.00    +0.126 A 
ATOM     16  C   UNL     1      -2.161   5.744  25.263  0.00  0.00    +0.033 A 
ATOM     19  C   UNL     1      -1.050   6.201  24.562  0.00  0.00    +0.004 A 
ATOM     20  C   UNL     1      -0.125   4.015  24.703  0.00  0.00    +0.111 A 
ATOM     21  C   UNL     1      -0.009   5.327  24.273  0.00  0.00    +0.020 A 
ENDBRANCH  12  13
BRANCH   7  11
ATOM      1  O   UNL     1      -3.538   0.160  24.504  0.00  0.00    -0.420 OA
ATOM      4  N   UNL     1      -5.501  -0.782  23.990  0.00  0.00    -0.112 NA
ATOM      5  N   UNL     1      -4.585  -1.794  24.210  0.00  0.00    -0.107 NA
ATOM     11  C   UNL     1      -4.846   0.340  24.173  0.00  0.00    +0.222 A 
ATOM     14  C   UNL     1      -3.454  -1.197  24.507  0.00  0.00    +0.248 A 
BRANCH  14  15
ATOM     15  C   UNL     1      -2.169  -1.746  24.829  0.00  0.00    +0.038 A 
ATOM     17  C   UNL     1      -1.238  -0.980  25.531  0.00  0.00    +0.013 A 
ATOM     18  C   UNL     1      -1.849  -3.047  24.439  0.00  0.00    +0.013 A 
ATOM     22  C   UNL     1       0.012  -1.514  25.844  0.00  0.00    +0.001 A 
ATOM     23  C   UNL     1      -0.598  -3.581  24.750  0.00  0.00    +0.001 A 
ATOM     24  C   UNL     1       0.331  -2.814  25.453  0.00  0.00    +0.000 A 
ENDBRANCH  14  15
ENDBRANCH   7  11
TORSDOF 3
ENDMDL
MODEL 6
REMARK VINA RESULT:       3.6      2.862      7.213
REMARK  Name = 51137737
REMARK  3 active torsions:
REMARK  status: ('A' for Active; 'I' for Inactive)
REMARK    1  A    between atoms: C_7  and  C_11
REMARK    2  A    between atoms: C_12  and  C_13
REMARK    3  A    between atoms: C_14  and  C_15
REMARK                            x       y       z     vdW  Elec       q    Type
REMARK                         _______ _______ _______ _____ _____    ______ ____
ROOT
ATOM      2  O   UNL     1      -0.240  -1.788  26.160  0.00  0.00    -0.268 OA
ATOM      3  N   UNL     1      -0.286  -0.219  24.448  0.00  0.00    -0.296 N 
ATOM      7  C   UNL     1      -0.280   1.807  23.201  0.00  0.00    +0.095 C 
ATOM      8  C   UNL     1       1.098   1.595  23.847  0.00  0.00    +0.033 C 
ATOM      9  C   UNL     1      -0.879   0.395  23.259  0.00  0.00    +0.121 C 
ATOM     10  C   UNL     1       0.835   0.568  24.940  0.00  0.00    +0.109 C 
ATOM     12  C   UNL     1      -0.727  -1.349  25.120  0.00  0.00    +0.265 C 
ENDROOT
BRANCH  12  13
ATOM      6  N   UNL     1      -1.582  -3.193  23.862  0.00  0.00    -0.250 NA
ATOM     13  C   UNL     1      -1.877  -2.070  24.554  0.00  0.00    +0.126 A 
ATOM     16  C   UNL     1      -3.163  -1.591  24.744  0.00  0.00    +0.033 A 
ATOM     19  C   UNL     1      -4.215  -2.312  24.187  0.00  0.00    +0.004 A 
ATOM     20  C   UNL     1      -2.629  -3.867  23.335  0.00  0.00    +0.111 A 
ATOM     21  C   UNL     1      -3.951  -3.471  23.468  0.00  0.00    +0.020 A 
ENDBRANCH  12  13
BRANCH   7  11
ATOM      1  O   UNL     1      -2.372   2.651  24.171  0.00  0.00    -0.420 OA
ATOM      4  N   UNL     1      -0.668   4.096  24.288  0.00  0.00    -0.112 NA
ATOM      5  N   UNL     1      -1.774   4.692  24.864  0.00  0.00    -0.107 NA
ATOM     11  C   UNL     1      -1.063   2.907  23.898  0.00  0.00    +0.222 A 
ATOM     14  C   UNL     1      -2.744   3.813  24.774  0.00  0.00    +0.248 A 
BRANCH  14  15
ATOM     15  C   UNL     1      -4.110   3.887  25.204  0.00  0.00    +0.038 A 
ATOM     17  C   UNL     1      -4.780   5.110  25.192  0.00  0.00    +0.013 A 
ATOM     18  C   UNL     1      -4.768   2.735  25.636  0.00  0.00    +0.013 A 
ATOM     22  C   UNL     1      -6.109   5.182  25.610  0.00  0.00    +0.001 A 
ATOM     23  C   UNL     1      -6.097   2.807  26.056  0.00  0.00    +0.001 A 
ATOM     24  C   UNL     1      -6.767   4.030  26.042  0.00  0.00    +0.000 A 
ENDBRANCH  14  15
ENDBRANCH   7  11
TORSDOF 3
ENDMDL
MODEL 7
REMARK VINA RESULT:       3.6      2.431      3.119
REMARK  Name = 51137737
REMARK  3 active torsions:
REMARK  status: ('A' for Active; 'I' for Inactive)
REMARK    1  A    between atoms: C_7  and  C_11
REMARK    2  A    between atoms: C_12  and  C_13
REMARK    3  A    between atoms: C_14  and  C_15
REMARK                            x       y       z     vdW  Elec       q    Type
REMARK                         _______ _______ _______ _____ _____    ______ ____
ROOT
ATOM      2  O   UNL     1      -5.338   1.092  23.795  0.00  0.00    -0.268 OA
ATOM      3  N   UNL     1      -3.568   1.683  25.178  0.00  0.00    -0.296 N 
ATOM      7  C   UNL     1      -1.619   2.696  26.094  0.00  0.00    +0.095 C 
ATOM      8  C   UNL     1      -2.749   3.734  26.009  0.00  0.00    +0.033 C 
ATOM      9  C   UNL     1      -2.395   1.374  25.996  0.00  0.00    +0.121 C 
ATOM     10  C   UNL     1      -3.736   3.121  25.025  0.00  0.00    +0.109 C 
ATOM     12  C   UNL     1      -4.404   0.784  24.533  0.00  0.00    +0.265 C 
ENDROOT
BRANCH  12  13
ATOM      6  N   UNL     1      -3.616  -0.986  25.934  0.00  0.00    -0.250 NA
ATOM     13  C   UNL     1      -4.146  -0.649  24.737  0.00  0.00    +0.126 A 
ATOM     16  C   UNL     1      -4.443  -1.560  23.735  0.00  0.00    +0.033 A 
ATOM     19  C   UNL     1      -4.178  -2.904  23.979  0.00  0.00    +0.004 A 
ATOM     20  C   UNL     1      -3.373  -2.301  26.135  0.00  0.00    +0.111 A 
ATOM     21  C   UNL     1      -3.634  -3.289  25.199  0.00  0.00    +0.020 A 
ENDBRANCH  12  13
BRANCH   7  11
ATOM      1  O   UNL     1       0.204   1.869  24.672  0.00  0.00    -0.420 OA
ATOM      4  N   UNL     1      -0.240   4.046  24.406  0.00  0.00    -0.112 NA
ATOM      5  N   UNL     1       0.797   3.714  23.555  0.00  0.00    -0.107 NA
ATOM     11  C   UNL     1      -0.554   2.939  25.038  0.00  0.00    +0.222 A 
ATOM     14  C   UNL     1       1.022   2.435  23.744  0.00  0.00    +0.248 A 
BRANCH  14  15
ATOM     15  C   UNL     1       1.979   1.559  23.134  0.00  0.00    +0.038 A 
ATOM     17  C   UNL     1       1.564   0.347  22.580  0.00  0.00    +0.013 A 
ATOM     18  C   UNL     1       3.327   1.916  23.095  0.00  0.00    +0.013 A 
ATOM     22  C   UNL     1       2.495  -0.505  21.987  0.00  0.00    +0.001 A 
ATOM     23  C   UNL     1       4.259   1.064  22.503  0.00  0.00    +0.001 A 
ATOM     24  C   UNL     1       3.842  -0.146  21.948  0.00  0.00    +0.000 A 
ENDBRANCH  14  15
ENDBRANCH   7  11
TORSDOF 3
ENDMDL
MODEL 8
REMARK VINA RESULT:       4.1      2.891      4.091
REMARK  Name = 51137737
REMARK  3 active torsions:
REMARK  status: ('A' for Active; 'I' for Inactive)
REMARK    1  A    between atoms: C_7  and  C_11
REMARK    2  A    between atoms: C_12  and  C_13
REMARK    3  A    between atoms: C_14  and  C_15
REMARK                            x       y       z     vdW  Elec       q    Type
REMARK                         _______ _______ _______ _____ _____    ______ ____
ROOT
ATOM      2  O   UNL     1      -3.689   4.742  23.050  0.00  0.00    -0.268 OA
ATOM      3  N   UNL     1      -2.237   3.823  24.613  0.00  0.00    -0.296 N 
ATOM      7  C   UNL     1      -0.490   2.607  25.675  0.00  0.00    +0.095 C 
ATOM      8  C   UNL     1       0.112   3.729  24.815  0.00  0.00    +0.033 C 
ATOM      9  C   UNL     1      -1.943   3.074  25.835  0.00  0.00    +0.121 C 
ATOM     10  C   UNL     1      -1.020   4.112  23.871  0.00  0.00    +0.109 C 
ATOM     12  C   UNL     1      -3.485   4.174  24.121  0.00  0.00    +0.265 C 
ENDROOT
BRANCH  12  13
ATOM      6  N   UNL     1      -5.423   4.866  25.339  0.00  0.00    -0.250 NA
ATOM     13  C   UNL     1      -4.659   3.826  24.937  0.00  0.00    +0.126 A 
ATOM     16  C   UNL     1      -4.924   2.502  25.248  0.00  0.00    +0.033 A 
ATOM     19  C   UNL     1      -6.047   2.229  26.023  0.00  0.00    +0.004 A 
ATOM     20  C   UNL     1      -6.505   4.562  26.090  0.00  0.00    +0.111 A 
ATOM     21  C   UNL     1      -6.857   3.273  26.455  0.00  0.00    +0.020 A 
ENDBRANCH  12  13
BRANCH   7  11
ATOM      1  O   UNL     1      -1.356   0.409  25.007  0.00  0.00    -0.420 OA
ATOM      4  N   UNL     1       0.802   0.724  24.510  0.00  0.00    -0.112 NA
ATOM      5  N   UNL     1       0.446  -0.542  24.084  0.00  0.00    -0.107 NA
ATOM     11  C   UNL     1      -0.280   1.242  25.042  0.00  0.00    +0.222 A 
ATOM     14  C   UNL     1      -0.821  -0.682  24.394  0.00  0.00    +0.248 A 
BRANCH  14  15
ATOM     15  C   UNL     1      -1.712  -1.787  24.190  0.00  0.00    +0.038 A 
ATOM     17  C   UNL     1      -3.057  -1.675  24.547  0.00  0.00    +0.013 A 
ATOM     18  C   UNL     1      -1.235  -2.975  23.636  0.00  0.00    +0.013 A 
ATOM     22  C   UNL     1      -3.923  -2.749  24.348  0.00  0.00    +0.001 A 
ATOM     23  C   UNL     1      -2.101  -4.050  23.438  0.00  0.00    +0.001 A 
ATOM     24  C   UNL     1      -3.445  -3.937  23.794  0.00  0.00    +0.000 A 
ENDBRANCH  14  15
ENDBRANCH   7  11
TORSDOF 3
ENDMDL
