MODEL 1
REMARK VINA RESULT:       0.3      0.000      0.000
REMARK  Name = 45784152
REMARK  10 active torsions:
REMARK  status: ('A' for Active; 'I' for Inactive)
REMARK    1  A    between atoms: N_3  and  C_15
REMARK    2  A    between atoms: N_5  and  C_24
REMARK    3  A    between atoms: C_8  and  C_12
REMARK    4  A    between atoms: C_9  and  C_15
REMARK    5  A    between atoms: C_11  and  C_16
REMARK    6  A    between atoms: C_12  and  C_17
REMARK    7  A    between atoms: C_12  and  C_18
REMARK    8  A    between atoms: C_13  and  C_19
REMARK    9  A    between atoms: C_16  and  C_20
REMARK   10  A    between atoms: C_22  and  C_23
REMARK                            x       y       z     vdW  Elec       q    Type
REMARK                         _______ _______ _______ _____ _____    ______ ____
ROOT
ATOM      8  C   UNL     1      -3.585   2.395  24.303  0.00  0.00    +0.000 C 
ATOM      9  C   UNL     1      -2.698   2.816  23.105  0.00  0.00    +0.032 C 
ATOM     10  C   UNL     1      -4.094   3.635  25.054  0.00  0.00    +0.012 C 
ATOM     11  C   UNL     1      -2.941   4.510  25.584  0.00  0.00    +0.024 C 
ATOM     13  C   UNL     1      -1.882   4.746  24.525  0.00  0.00    -0.073 C 
ATOM     14  C   UNL     1      -1.798   3.988  23.418  0.00  0.00    -0.022 C 
ATOM     19  C   UNL     1      -0.950   5.905  24.747  0.00  0.00    +0.039 C 
ENDROOT
BRANCH   8  12
ATOM     12  C   UNL     1      -4.773   1.537  23.858  0.00  0.00    -0.013 C 
ATOM     17  C   UNL     1      -5.944   1.707  24.819  0.00  0.00    +0.007 C 
ATOM     18  C   UNL     1      -4.363   0.070  23.761  0.00  0.00    +0.007 C 
ENDBRANCH   8  12
BRANCH   9  15
ATOM     15  C   UNL     1      -1.851   1.640  22.605  0.00  0.00    +0.113 C 
BRANCH  15   3
ATOM      2  O   UNL     1       0.262  -0.251  22.200  0.00  0.00    -0.253 OA
ATOM      3  N   UNL     1      -0.507   1.746  23.080  0.00  0.00    -0.299 N 
ATOM      5  N   UNL     1       1.696   1.147  23.423  0.00  0.00    -0.269 N 
ATOM     21  C   UNL     1       0.481   0.774  22.840  0.00  0.00    +0.304 C 
ATOM     34  H   UNL     1      -0.228   2.597  23.558  0.00  0.00    +0.150 HD
ATOM     35  H   UNL     1       1.709   2.032  23.925  0.00  0.00    +0.156 HD
BRANCH   5  24
ATOM     24  C   UNL     1       2.921   0.440  23.405  0.00  0.00    +0.035 A 
ATOM     27  C   UNL     1       4.094   1.086  23.015  0.00  0.00    +0.023 A 
ATOM     28  C   UNL     1       2.957  -0.904  23.778  0.00  0.00    +0.023 A 
ATOM     31  C   UNL     1       5.302   0.389  22.997  0.00  0.00    +0.002 A 
ATOM     32  C   UNL     1       4.165  -1.601  23.761  0.00  0.00    +0.002 A 
ATOM     33  C   UNL     1       5.337  -0.954  23.370  0.00  0.00    +0.000 A 
ENDBRANCH   5  24
ENDBRANCH  15   3
ENDBRANCH   9  15
BRANCH  11  16
ATOM     16  C   UNL     1      -2.325   3.904  26.849  0.00  0.00    +0.105 C 
BRANCH  16  20
ATOM      1  O   UNL     1      -2.265   1.552  26.200  0.00  0.00    -0.420 OA
ATOM      4  N   UNL     1      -0.250   2.458  26.546  0.00  0.00    -0.112 NA
ATOM      6  N   UNL     1      -0.068   1.136  26.187  0.00  0.00    -0.107 NA
ATOM     20  C   UNL     1      -1.547   2.657  26.539  0.00  0.00    +0.218 A 
ATOM     22  C   UNL     1      -1.271   0.647  25.996  0.00  0.00    +0.248 A 
BRANCH  22  23
ATOM      7  N   UNL     1      -2.511  -3.233  24.858  0.00  0.00    -0.263 NA
ATOM     23  C   UNL     1      -1.691  -0.669  25.610  0.00  0.00    +0.041 A 
ATOM     25  C   UNL     1      -2.922  -1.161  26.032  0.00  0.00    +0.033 A 
ATOM     26  C   UNL     1      -0.870  -1.459  24.813  0.00  0.00    +0.033 A 
ATOM     29  C   UNL     1      -3.282  -2.437  25.633  0.00  0.00    +0.111 A 
ATOM     30  C   UNL     1      -1.322  -2.722  24.467  0.00  0.00    +0.111 A 
ENDBRANCH  22  23
ENDBRANCH  16  20
ENDBRANCH  11  16
TORSDOF 7
ENDMDL
MODEL 2
REMARK VINA RESULT:       0.4      1.937      2.890
REMARK  Name = 45784152
REMARK  10 active torsions:
REMARK  status: ('A' for Active; 'I' for Inactive)
REMARK    1  A    between atoms: N_3  and  C_15
REMARK    2  A    between atoms: N_5  and  C_24
REMARK    3  A    between atoms: C_8  and  C_12
REMARK    4  A    between atoms: C_9  and  C_15
REMARK    5  A    between atoms: C_11  and  C_16
REMARK    6  A    between atoms: C_12  and  C_17
REMARK    7  A    between atoms: C_12  and  C_18
REMARK    8  A    between atoms: C_13  and  C_19
REMARK    9  A    between atoms: C_16  and  C_20
REMARK   10  A    between atoms: C_22  and  C_23
REMARK                            x       y       z     vdW  Elec       q    Type
REMARK                         _______ _______ _______ _____ _____    ______ ____
ROOT
ATOM      8  C   UNL     1      -3.608   2.807  23.181  0.00  0.00    +0.000 C 
ATOM      9  C   UNL     1      -2.177   2.424  23.634  0.00  0.00    +0.032 C 
ATOM     10  C   UNL     1      -3.960   4.224  23.659  0.00  0.00    +0.012 C 
ATOM     11  C   UNL     1      -3.881   4.358  25.192  0.00  0.00    +0.024 C 
ATOM     13  C   UNL     1      -2.605   3.755  25.744  0.00  0.00    -0.073 C 
ATOM     14  C   UNL     1      -1.850   2.904  25.028  0.00  0.00    -0.022 C 
ATOM     19  C   UNL     1      -2.193   4.190  27.123  0.00  0.00    +0.039 C 
ENDROOT
BRANCH   8  12
ATOM     12  C   UNL     1      -3.766   2.719  21.660  0.00  0.00    -0.013 C 
ATOM     17  C   UNL     1      -2.438   2.353  21.006  0.00  0.00    +0.007 C 
ATOM     18  C   UNL     1      -4.297   4.036  21.103  0.00  0.00    +0.007 C 
ENDBRANCH   8  12
BRANCH   9  15
ATOM     15  C   UNL     1      -1.957   0.910  23.549  0.00  0.00    +0.113 C 
BRANCH  15   3
ATOM      2  O   UNL     1       0.583   0.649  24.846  0.00  0.00    -0.253 OA
ATOM      3  N   UNL     1      -0.705   0.614  22.924  0.00  0.00    -0.299 N 
ATOM      5  N   UNL     1       1.561   0.205  22.758  0.00  0.00    -0.269 N 
ATOM     21  C   UNL     1       0.507   0.500  23.629  0.00  0.00    +0.304 C 
ATOM     34  H   UNL     1      -0.697   0.409  21.930  0.00  0.00    +0.150 HD
ATOM     35  H   UNL     1       1.327   0.117  21.772  0.00  0.00    +0.156 HD
BRANCH   5  24
ATOM     24  C   UNL     1       2.925   0.015  23.080  0.00  0.00    +0.035 A 
ATOM     27  C   UNL     1       3.365  -1.221  23.552  0.00  0.00    +0.023 A 
ATOM     28  C   UNL     1       3.832   1.064  22.923  0.00  0.00    +0.023 A 
ATOM     31  C   UNL     1       4.710  -1.410  23.870  0.00  0.00    +0.002 A 
ATOM     32  C   UNL     1       5.178   0.876  23.240  0.00  0.00    +0.002 A 
ATOM     33  C   UNL     1       5.616  -0.361  23.714  0.00  0.00    +0.000 A 
ENDBRANCH   5  24
ENDBRANCH  15   3
ENDBRANCH   9  15
BRANCH  11  16
ATOM     16  C   UNL     1      -5.114   3.745  25.864  0.00  0.00    +0.105 C 
BRANCH  16  20
ATOM      1  O   UNL     1      -4.448   1.428  25.485  0.00  0.00    -0.420 OA
ATOM      4  N   UNL     1      -6.479   1.937  24.699  0.00  0.00    -0.112 NA
ATOM      6  N   UNL     1      -6.234   0.606  24.418  0.00  0.00    -0.107 NA
ATOM     20  C   UNL     1      -5.411   2.376  25.322  0.00  0.00    +0.218 A 
ATOM     22  C   UNL     1      -5.037   0.353  24.894  0.00  0.00    +0.248 A 
BRANCH  22  23
ATOM      7  N   UNL     1      -2.774  -3.220  24.877  0.00  0.00    -0.263 NA
ATOM     23  C   UNL     1      -4.270  -0.859  24.889  0.00  0.00    +0.041 A 
ATOM     25  C   UNL     1      -4.456  -1.799  23.880  0.00  0.00    +0.033 A 
ATOM     26  C   UNL     1      -3.337  -1.099  25.891  0.00  0.00    +0.033 A 
ATOM     29  C   UNL     1      -3.690  -2.952  23.919  0.00  0.00    +0.111 A 
ATOM     30  C   UNL     1      -2.620  -2.283  25.840  0.00  0.00    +0.111 A 
ENDBRANCH  22  23
ENDBRANCH  16  20
ENDBRANCH  11  16
TORSDOF 7
ENDMDL
MODEL 3
REMARK VINA RESULT:       1.4      2.120      5.036
REMARK  Name = 45784152
REMARK  10 active torsions:
REMARK  status: ('A' for Active; 'I' for Inactive)
REMARK    1  A    between atoms: N_3  and  C_15
REMARK    2  A    between atoms: N_5  and  C_24
REMARK    3  A    between atoms: C_8  and  C_12
REMARK    4  A    between atoms: C_9  and  C_15
REMARK    5  A    between atoms: C_11  and  C_16
REMARK    6  A    between atoms: C_12  and  C_17
REMARK    7  A    between atoms: C_12  and  C_18
REMARK    8  A    between atoms: C_13  and  C_19
REMARK    9  A    between atoms: C_16  and  C_20
REMARK   10  A    between atoms: C_22  and  C_23
REMARK                            x       y       z     vdW  Elec       q    Type
REMARK                         _______ _______ _______ _____ _____    ______ ____
ROOT
ATOM      8  C   UNL     1      -3.216   1.852  23.600  0.00  0.00    +0.000 C 
ATOM      9  C   UNL     1      -4.045   3.082  24.046  0.00  0.00    +0.032 C 
ATOM     10  C   UNL     1      -4.107   0.603  23.530  0.00  0.00    +0.012 C 
ATOM     11  C   UNL     1      -4.767   0.281  24.885  0.00  0.00    +0.024 C 
ATOM     13  C   UNL     1      -5.379   1.515  25.520  0.00  0.00    -0.073 C 
ATOM     14  C   UNL     1      -5.054   2.757  25.122  0.00  0.00    -0.022 C 
ATOM     19  C   UNL     1      -6.407   1.284  26.591  0.00  0.00    +0.039 C 
ENDROOT
BRANCH   8  12
ATOM     12  C   UNL     1      -2.541   2.082  22.245  0.00  0.00    -0.013 C 
ATOM     17  C   UNL     1      -3.373   3.031  21.389  0.00  0.00    +0.007 C 
ATOM     18  C   UNL     1      -2.325   0.755  21.525  0.00  0.00    +0.007 C 
ENDBRANCH   8  12
BRANCH   9  15
ATOM     15  C   UNL     1      -3.133   4.218  24.526  0.00  0.00    +0.113 C 
BRANCH  15   3
ATOM      2  O   UNL     1      -2.134   4.001  27.201  0.00  0.00    -0.253 OA
ATOM      3  N   UNL     1      -1.857   3.710  24.922  0.00  0.00    -0.299 N 
ATOM      5  N   UNL     1      -0.145   3.096  26.344  0.00  0.00    -0.269 N 
ATOM     21  C   UNL     1      -1.433   3.633  26.261  0.00  0.00    +0.304 C 
ATOM     34  H   UNL     1      -1.248   3.322  24.209  0.00  0.00    +0.150 HD
ATOM     35  H   UNL     1       0.301   2.843  25.466  0.00  0.00    +0.156 HD
BRANCH   5  24
ATOM     24  C   UNL     1       0.624   2.860  27.507  0.00  0.00    +0.035 A 
ATOM     27  C   UNL     1       0.003   2.422  28.677  0.00  0.00    +0.023 A 
ATOM     28  C   UNL     1       2.004   3.063  27.485  0.00  0.00    +0.023 A 
ATOM     31  C   UNL     1       0.761   2.189  29.824  0.00  0.00    +0.002 A 
ATOM     32  C   UNL     1       2.762   2.830  28.632  0.00  0.00    +0.002 A 
ATOM     33  C   UNL     1       2.140   2.393  29.802  0.00  0.00    +0.000 A 
ENDBRANCH   5  24
ENDBRANCH  15   3
ENDBRANCH   9  15
BRANCH  11  16
ATOM     16  C   UNL     1      -3.773  -0.390  25.838  0.00  0.00    +0.105 C 
BRANCH  16  20
ATOM      1  O   UNL     1      -1.588   0.016  24.829  0.00  0.00    -0.420 OA
ATOM      4  N   UNL     1      -2.289  -2.102  24.671  0.00  0.00    -0.112 NA
ATOM      6  N   UNL     1      -1.051  -2.016  24.064  0.00  0.00    -0.107 NA
ATOM     20  C   UNL     1      -2.563  -0.893  25.103  0.00  0.00    +0.218 A 
ATOM     22  C   UNL     1      -0.680  -0.763  24.180  0.00  0.00    +0.248 A 
BRANCH  22  23
ATOM      7  N   UNL     1       2.834   1.193  22.871  0.00  0.00    -0.263 NA
ATOM     23  C   UNL     1       0.512  -0.099  23.737  0.00  0.00    +0.041 A 
ATOM     25  C   UNL     1       1.441  -0.781  22.958  0.00  0.00    +0.033 A 
ATOM     26  C   UNL     1       0.743   1.227  24.083  0.00  0.00    +0.033 A 
ATOM     29  C   UNL     1       2.576  -0.096  22.554  0.00  0.00    +0.111 A 
ATOM     30  C   UNL     1       1.908   1.823  23.629  0.00  0.00    +0.111 A 
ENDBRANCH  22  23
ENDBRANCH  16  20
ENDBRANCH  11  16
TORSDOF 7
ENDMDL
MODEL 4
REMARK VINA RESULT:       1.9      1.741      5.051
REMARK  Name = 45784152
REMARK  10 active torsions:
REMARK  status: ('A' for Active; 'I' for Inactive)
REMARK    1  A    between atoms: N_3  and  C_15
REMARK    2  A    between atoms: N_5  and  C_24
REMARK    3  A    between atoms: C_8  and  C_12
REMARK    4  A    between atoms: C_9  and  C_15
REMARK    5  A    between atoms: C_11  and  C_16
REMARK    6  A    between atoms: C_12  and  C_17
REMARK    7  A    between atoms: C_12  and  C_18
REMARK    8  A    between atoms: C_13  and  C_19
REMARK    9  A    between atoms: C_16  and  C_20
REMARK   10  A    between atoms: C_22  and  C_23
REMARK                            x       y       z     vdW  Elec       q    Type
REMARK                         _______ _______ _______ _____ _____    ______ ____
ROOT
ATOM      8  C   UNL     1      -3.953   3.739  25.687  0.00  0.00    +0.000 C 
ATOM      9  C   UNL     1      -3.801   4.438  24.313  0.00  0.00    +0.032 C 
ATOM     10  C   UNL     1      -2.953   4.319  26.698  0.00  0.00    +0.012 C 
ATOM     11  C   UNL     1      -1.493   4.160  26.229  0.00  0.00    +0.024 C 
ATOM     13  C   UNL     1      -1.317   4.582  24.784  0.00  0.00    -0.073 C 
ATOM     14  C   UNL     1      -2.361   4.714  23.947  0.00  0.00    -0.022 C 
ATOM     19  C   UNL     1       0.084   4.893  24.335  0.00  0.00    +0.039 C 
ENDROOT
BRANCH   8  12
ATOM     12  C   UNL     1      -5.377   3.869  26.236  0.00  0.00    -0.013 C 
ATOM     17  C   UNL     1      -6.091   2.522  26.190  0.00  0.00    +0.007 C 
ATOM     18  C   UNL     1      -6.157   4.920  25.452  0.00  0.00    +0.007 C 
ENDBRANCH   8  12
BRANCH   9  15
ATOM     15  C   UNL     1      -4.464   3.619  23.200  0.00  0.00    +0.113 C 
BRANCH  15   3
ATOM      2  O   UNL     1      -4.852   1.165  24.624  0.00  0.00    -0.253 OA
ATOM      3  N   UNL     1      -3.765   2.390  22.990  0.00  0.00    -0.299 N 
ATOM      5  N   UNL     1      -3.180   0.179  23.305  0.00  0.00    -0.269 N 
ATOM     21  C   UNL     1      -4.011   1.220  23.731  0.00  0.00    +0.304 C 
ATOM     34  H   UNL     1      -3.103   2.335  22.222  0.00  0.00    +0.150 HD
ATOM     35  H   UNL     1      -2.533   0.392  22.550  0.00  0.00    +0.156 HD
BRANCH   5  24
ATOM     24  C   UNL     1      -3.125  -1.145  23.799  0.00  0.00    +0.035 A 
ATOM     27  C   UNL     1      -4.239  -1.976  23.693  0.00  0.00    +0.023 A 
ATOM     28  C   UNL     1      -1.955  -1.621  24.392  0.00  0.00    +0.023 A 
ATOM     31  C   UNL     1      -4.185  -3.282  24.180  0.00  0.00    +0.002 A 
ATOM     32  C   UNL     1      -1.900  -2.927  24.879  0.00  0.00    +0.002 A 
ATOM     33  C   UNL     1      -3.016  -3.757  24.773  0.00  0.00    +0.000 A 
ENDBRANCH   5  24
ENDBRANCH  15   3
ENDBRANCH   9  15
BRANCH  11  16
ATOM     16  C   UNL     1      -0.996   2.727  26.447  0.00  0.00    +0.105 C 
BRANCH  16  20
ATOM      1  O   UNL     1       0.798   1.752  25.110  0.00  0.00    -0.420 OA
ATOM      4  N   UNL     1      -1.173   1.861  24.057  0.00  0.00    -0.112 NA
ATOM      6  N   UNL     1      -0.257   1.294  23.191  0.00  0.00    -0.107 NA
ATOM     20  C   UNL     1      -0.514   2.112  25.164  0.00  0.00    +0.218 A 
ATOM     22  C   UNL     1       0.879   1.250  23.848  0.00  0.00    +0.248 A 
BRANCH  22  23
ATOM      7  N   UNL     1       4.680  -0.184  22.671  0.00  0.00    -0.263 NA
ATOM     23  C   UNL     1       2.167   0.763  23.448  0.00  0.00    +0.041 A 
ATOM     25  C   UNL     1       3.137   1.650  22.990  0.00  0.00    +0.033 A 
ATOM     26  C   UNL     1       2.453  -0.596  23.517  0.00  0.00    +0.033 A 
ATOM     29  C   UNL     1       4.366   1.130  22.618  0.00  0.00    +0.111 A 
ATOM     30  C   UNL     1       3.712  -1.015  23.121  0.00  0.00    +0.111 A 
ENDBRANCH  22  23
ENDBRANCH  16  20
ENDBRANCH  11  16
TORSDOF 7
ENDMDL
MODEL 5
REMARK VINA RESULT:       2.2      1.870      4.553
REMARK  Name = 45784152
REMARK  10 active torsions:
REMARK  status: ('A' for Active; 'I' for Inactive)
REMARK    1  A    between atoms: N_3  and  C_15
REMARK    2  A    between atoms: N_5  and  C_24
REMARK    3  A    between atoms: C_8  and  C_12
REMARK    4  A    between atoms: C_9  and  C_15
REMARK    5  A    between atoms: C_11  and  C_16
REMARK    6  A    between atoms: C_12  and  C_17
REMARK    7  A    between atoms: C_12  and  C_18
REMARK    8  A    between atoms: C_13  and  C_19
REMARK    9  A    between atoms: C_16  and  C_20
REMARK   10  A    between atoms: C_22  and  C_23
REMARK                            x       y       z     vdW  Elec       q    Type
REMARK                         _______ _______ _______ _____ _____    ______ ____
ROOT
ATOM      8  C   UNL     1      -2.685  -0.476  24.664  0.00  0.00    +0.000 C 
ATOM      9  C   UNL     1      -2.782   0.342  23.353  0.00  0.00    +0.032 C 
ATOM     10  C   UNL     1      -4.028  -1.157  24.971  0.00  0.00    +0.012 C 
ATOM     11  C   UNL     1      -5.177  -0.141  25.113  0.00  0.00    +0.024 C 
ATOM     13  C   UNL     1      -5.174   0.873  23.986  0.00  0.00    -0.073 C 
ATOM     14  C   UNL     1      -4.099   1.065  23.202  0.00  0.00    -0.022 C 
ATOM     19  C   UNL     1      -6.452   1.630  23.754  0.00  0.00    +0.039 C 
ENDROOT
BRANCH   8  12
ATOM     12  C   UNL     1      -1.574  -1.528  24.598  0.00  0.00    -0.013 C 
ATOM     17  C   UNL     1      -2.171  -2.927  24.484  0.00  0.00    +0.007 C 
ATOM     18  C   UNL     1      -0.669  -1.425  25.822  0.00  0.00    +0.007 C 
ENDBRANCH   8  12
BRANCH   9  15
ATOM     15  C   UNL     1      -1.630   1.348  23.243  0.00  0.00    +0.113 C 
BRANCH  15   3
ATOM      2  O   UNL     1       0.948   1.422  24.486  0.00  0.00    -0.253 OA
ATOM      3  N   UNL     1      -0.439   0.707  22.779  0.00  0.00    -0.299 N 
ATOM      5  N   UNL     1       1.777   0.063  22.762  0.00  0.00    -0.269 N 
ATOM     21  C   UNL     1       0.797   0.788  23.446  0.00  0.00    +0.304 C 
ATOM     34  H   UNL     1      -0.500   0.106  21.963  0.00  0.00    +0.150 HD
ATOM     35  H   UNL     1       1.485  -0.407  21.908  0.00  0.00    +0.156 HD
BRANCH   5  24
ATOM     24  C   UNL     1       3.138  -0.099  23.110  0.00  0.00    +0.035 A 
ATOM     27  C   UNL     1       4.030   0.961  22.950  0.00  0.00    +0.023 A 
ATOM     28  C   UNL     1       3.589  -1.320  23.616  0.00  0.00    +0.023 A 
ATOM     31  C   UNL     1       5.373   0.802  23.294  0.00  0.00    +0.002 A 
ATOM     32  C   UNL     1       4.931  -1.479  23.960  0.00  0.00    +0.002 A 
ATOM     33  C   UNL     1       5.823  -0.418  23.799  0.00  0.00    +0.000 A 
ENDBRANCH   5  24
ENDBRANCH  15   3
ENDBRANCH   9  15
BRANCH  11  16
ATOM     16  C   UNL     1      -5.134   0.555  26.478  0.00  0.00    +0.105 C 
BRANCH  16  20
ATOM      1  O   UNL     1      -3.562   2.329  25.895  0.00  0.00    -0.420 OA
ATOM      4  N   UNL     1      -5.557   3.065  26.588  0.00  0.00    -0.112 NA
ATOM      6  N   UNL     1      -4.774   4.166  26.294  0.00  0.00    -0.107 NA
ATOM     20  C   UNL     1      -4.809   2.015  26.340  0.00  0.00    +0.218 A 
ATOM     22  C   UNL     1      -3.619   3.688  25.894  0.00  0.00    +0.248 A 
BRANCH  22  23
ATOM      7  N   UNL     1      -0.114   5.683  24.623  0.00  0.00    -0.263 NA
ATOM     23  C   UNL     1      -2.431   4.365  25.464  0.00  0.00    +0.041 A 
ATOM     25  C   UNL     1      -1.221   3.681  25.402  0.00  0.00    +0.033 A 
ATOM     26  C   UNL     1      -2.482   5.708  25.106  0.00  0.00    +0.033 A 
ATOM     29  C   UNL     1      -0.102   4.379  24.978  0.00  0.00    +0.111 A 
ATOM     30  C   UNL     1      -1.307   6.316  24.695  0.00  0.00    +0.111 A 
ENDBRANCH  22  23
ENDBRANCH  16  20
ENDBRANCH  11  16
TORSDOF 7
ENDMDL
MODEL 6
REMARK VINA RESULT:       2.3      1.639      3.056
REMARK  Name = 45784152
REMARK  10 active torsions:
REMARK  status: ('A' for Active; 'I' for Inactive)
REMARK    1  A    between atoms: N_3  and  C_15
REMARK    2  A    between atoms: N_5  and  C_24
REMARK    3  A    between atoms: C_8  and  C_12
REMARK    4  A    between atoms: C_9  and  C_15
REMARK    5  A    between atoms: C_11  and  C_16
REMARK    6  A    between atoms: C_12  and  C_17
REMARK    7  A    between atoms: C_12  and  C_18
REMARK    8  A    between atoms: C_13  and  C_19
REMARK    9  A    between atoms: C_16  and  C_20
REMARK   10  A    between atoms: C_22  and  C_23
REMARK                            x       y       z     vdW  Elec       q    Type
REMARK                         _______ _______ _______ _____ _____    ______ ____
ROOT
ATOM      8  C   UNL     1      -3.007   2.573  23.808  0.00  0.00    +0.000 C 
ATOM      9  C   UNL     1      -2.597   3.992  24.275  0.00  0.00    +0.032 C 
ATOM     10  C   UNL     1      -4.494   2.544  23.424  0.00  0.00    +0.012 C 
ATOM     11  C   UNL     1      -5.407   2.956  24.596  0.00  0.00    +0.024 C 
ATOM     13  C   UNL     1      -4.909   4.212  25.283  0.00  0.00    -0.073 C 
ATOM     14  C   UNL     1      -3.655   4.666  25.116  0.00  0.00    -0.022 C 
ATOM     19  C   UNL     1      -5.901   4.959  26.129  0.00  0.00    +0.039 C 
ENDROOT
BRANCH   8  12
ATOM     12  C   UNL     1      -2.158   2.095  22.627  0.00  0.00    -0.013 C 
ATOM     17  C   UNL     1      -2.884   2.352  21.310  0.00  0.00    +0.007 C 
ATOM     18  C   UNL     1      -1.820   0.615  22.778  0.00  0.00    +0.007 C 
ENDBRANCH   8  12
BRANCH   9  15
ATOM     15  C   UNL     1      -1.273   3.959  25.047  0.00  0.00    +0.113 C 
BRANCH  15   3
ATOM      2  O   UNL     1       0.331   1.619  25.441  0.00  0.00    -0.253 OA
ATOM      3  N   UNL     1      -0.209   3.501  24.209  0.00  0.00    -0.299 N 
ATOM      5  N   UNL     1       1.508   2.141  23.479  0.00  0.00    -0.269 N 
ATOM     21  C   UNL     1       0.538   2.337  24.467  0.00  0.00    +0.304 C 
ATOM     34  H   UNL     1      -0.023   4.002  23.347  0.00  0.00    +0.150 HD
ATOM     35  H   UNL     1       1.549   2.835  22.736  0.00  0.00    +0.156 HD
BRANCH   5  24
ATOM     24  C   UNL     1       2.450   1.091  23.384  0.00  0.00    +0.035 A 
ATOM     27  C   UNL     1       2.027  -0.235  23.465  0.00  0.00    +0.023 A 
ATOM     28  C   UNL     1       3.804   1.381  23.208  0.00  0.00    +0.023 A 
ATOM     31  C   UNL     1       2.955  -1.272  23.371  0.00  0.00    +0.002 A 
ATOM     32  C   UNL     1       4.733   0.345  23.114  0.00  0.00    +0.002 A 
ATOM     33  C   UNL     1       4.308  -0.982  23.196  0.00  0.00    +0.000 A 
ENDBRANCH   5  24
ENDBRANCH  15   3
ENDBRANCH   9  15
BRANCH  11  16
ATOM     16  C   UNL     1      -5.567   1.809  25.599  0.00  0.00    +0.105 C 
BRANCH  16  20
ATOM      1  O   UNL     1      -3.705   0.235  25.491  0.00  0.00    -0.420 OA
ATOM      4  N   UNL     1      -5.478  -0.359  24.264  0.00  0.00    -0.112 NA
ATOM      6  N   UNL     1      -4.507  -1.331  24.111  0.00  0.00    -0.107 NA
ATOM     20  C   UNL     1      -4.967   0.535  25.078  0.00  0.00    +0.218 A 
ATOM     22  C   UNL     1      -3.491  -0.943  24.844  0.00  0.00    +0.248 A 
BRANCH  22  23
ATOM      7  N   UNL     1       0.275  -2.753  25.500  0.00  0.00    -0.263 NA
ATOM     23  C   UNL     1      -2.214  -1.556  25.066  0.00  0.00    +0.041 A 
ATOM     25  C   UNL     1      -1.334  -1.019  26.000  0.00  0.00    +0.033 A 
ATOM     26  C   UNL     1      -1.850  -2.691  24.349  0.00  0.00    +0.033 A 
ATOM     29  C   UNL     1      -0.113  -1.649  26.178  0.00  0.00    +0.111 A 
ATOM     30  C   UNL     1      -0.606  -3.247  24.601  0.00  0.00    +0.111 A 
ENDBRANCH  22  23
ENDBRANCH  16  20
ENDBRANCH  11  16
TORSDOF 7
ENDMDL
MODEL 7
REMARK VINA RESULT:       2.4      2.010      3.669
REMARK  Name = 45784152
REMARK  10 active torsions:
REMARK  status: ('A' for Active; 'I' for Inactive)
REMARK    1  A    between atoms: N_3  and  C_15
REMARK    2  A    between atoms: N_5  and  C_24
REMARK    3  A    between atoms: C_8  and  C_12
REMARK    4  A    between atoms: C_9  and  C_15
REMARK    5  A    between atoms: C_11  and  C_16
REMARK    6  A    between atoms: C_12  and  C_17
REMARK    7  A    between atoms: C_12  and  C_18
REMARK    8  A    between atoms: C_13  and  C_19
REMARK    9  A    between atoms: C_16  and  C_20
REMARK   10  A    between atoms: C_22  and  C_23
REMARK                            x       y       z     vdW  Elec       q    Type
REMARK                         _______ _______ _______ _____ _____    ______ ____
ROOT
ATOM      8  C   UNL     1      -3.621   1.167  25.070  0.00  0.00    +0.000 C 
ATOM      9  C   UNL     1      -3.179   0.287  23.874  0.00  0.00    +0.032 C 
ATOM     10  C   UNL     1      -4.489   2.337  24.582  0.00  0.00    +0.012 C 
ATOM     11  C   UNL     1      -3.747   3.229  23.567  0.00  0.00    +0.024 C 
ATOM     13  C   UNL     1      -3.054   2.408  22.497  0.00  0.00    -0.073 C 
ATOM     14  C   UNL     1      -2.822   1.093  22.647  0.00  0.00    -0.022 C 
ATOM     19  C   UNL     1      -2.676   3.127  21.232  0.00  0.00    +0.039 C 
ENDROOT
BRANCH   8  12
ATOM     12  C   UNL     1      -4.386   0.357  26.119  0.00  0.00    -0.013 C 
ATOM     17  C   UNL     1      -4.236  -1.137  25.854  0.00  0.00    +0.007 C 
ATOM     18  C   UNL     1      -5.859   0.758  26.132  0.00  0.00    +0.007 C 
ENDBRANCH   8  12
BRANCH   9  15
ATOM     15  C   UNL     1      -1.999  -0.613  24.256  0.00  0.00    +0.113 C 
BRANCH  15   3
ATOM      2  O   UNL     1       0.687  -1.295  24.980  0.00  0.00    -0.253 OA
ATOM      3  N   UNL     1      -0.802  -0.186  23.600  0.00  0.00    -0.299 N 
ATOM      5  N   UNL     1       1.460   0.004  23.185  0.00  0.00    -0.269 N 
ATOM     21  C   UNL     1       0.488  -0.563  24.014  0.00  0.00    +0.304 C 
ATOM     34  H   UNL     1      -0.886   0.364  22.752  0.00  0.00    +0.150 HD
ATOM     35  H   UNL     1       1.126   0.592  22.425  0.00  0.00    +0.156 HD
BRANCH   5  24
ATOM     24  C   UNL     1       2.865  -0.136  23.272  0.00  0.00    +0.035 A 
ATOM     27  C   UNL     1       3.695   0.940  22.956  0.00  0.00    +0.023 A 
ATOM     28  C   UNL     1       3.422  -1.350  23.676  0.00  0.00    +0.023 A 
ATOM     31  C   UNL     1       5.080   0.802  23.043  0.00  0.00    +0.002 A 
ATOM     32  C   UNL     1       4.807  -1.488  23.763  0.00  0.00    +0.002 A 
ATOM     33  C   UNL     1       5.636  -0.411  23.446  0.00  0.00    +0.000 A 
ENDBRANCH   5  24
ENDBRANCH  15   3
ENDBRANCH   9  15
BRANCH  11  16
ATOM     16  C   UNL     1      -2.756   4.161  24.272  0.00  0.00    +0.105 C 
BRANCH  16  20
ATOM      1  O   UNL     1      -1.151   3.558  26.008  0.00  0.00    -0.420 OA
ATOM      4  N   UNL     1      -0.722   2.649  24.010  0.00  0.00    -0.112 NA
ATOM      6  N   UNL     1       0.257   2.227  24.890  0.00  0.00    -0.107 NA
ATOM     20  C   UNL     1      -1.522   3.423  24.706  0.00  0.00    +0.218 A 
ATOM     22  C   UNL     1      -0.034   2.782  26.043  0.00  0.00    +0.248 A 
BRANCH  22  23
ATOM      7  N   UNL     1       1.930   2.537  29.782  0.00  0.00    -0.263 NA
ATOM     23  C   UNL     1       0.632   2.698  27.311  0.00  0.00    +0.041 A 
ATOM     25  C   UNL     1       2.000   2.933  27.398  0.00  0.00    +0.033 A 
ATOM     26  C   UNL     1      -0.087   2.383  28.458  0.00  0.00    +0.033 A 
ATOM     29  C   UNL     1       2.596   2.841  28.645  0.00  0.00    +0.111 A 
ATOM     30  C   UNL     1       0.601   2.316  29.658  0.00  0.00    +0.111 A 
ENDBRANCH  22  23
ENDBRANCH  16  20
ENDBRANCH  11  16
TORSDOF 7
ENDMDL
