MODEL 1
REMARK VINA RESULT:      -1.8      0.000      0.000
REMARK  Name = 40779167
REMARK  8 active torsions:
REMARK  status: ('A' for Active; 'I' for Inactive)
REMARK    1  A    between atoms: O_2  and  C_21
REMARK    2  A    between atoms: O_2  and  C_27
REMARK    3  A    between atoms: N_4  and  C_18
REMARK    4  A    between atoms: N_5  and  C_15
REMARK    5  A    between atoms: C_8  and  C_14
REMARK    6  A    between atoms: C_9  and  C_15
REMARK    7  A    between atoms: C_17  and  C_20
REMARK    8  A    between atoms: C_19  and  C_21
REMARK                            x       y       z     vdW  Elec       q    Type
REMARK                         _______ _______ _______ _____ _____    ______ ____
ROOT
ATOM      3  N   UNL     1      -4.056   3.113  24.145  0.00  0.00    -0.297 NA
ATOM      7  C   UNL     1      -1.927   3.122  25.644  0.00  0.00    +0.002 C 
ATOM      8  C   UNL     1      -1.536   3.022  24.144  0.00  0.00    +0.055 C 
ATOM      9  C   UNL     1      -4.197   2.110  25.233  0.00  0.00    +0.074 C 
ATOM     10  C   UNL     1      -2.868   1.954  26.004  0.00  0.00    +0.024 C 
ATOM     11  C   UNL     1      -2.738   4.425  25.806  0.00  0.00    +0.019 C 
ATOM     12  C   UNL     1      -2.848   2.818  23.335  0.00  0.00    +0.094 C 
ATOM     13  C   UNL     1      -3.878   4.443  24.774  0.00  0.00    +0.085 C 
ENDROOT
BRANCH   8  14
ATOM      4  N   UNL     1      -0.701   0.923  22.986  0.00  0.00    -0.270 N 
ATOM      6  N   UNL     1       0.388   0.171  22.749  0.00  0.00    -0.171 NA
ATOM     14  C   UNL     1      -0.454   2.027  23.748  0.00  0.00    +0.044 A 
ATOM     16  C   UNL     1       0.890   1.995  24.030  0.00  0.00    +0.053 A 
ATOM     17  C   UNL     1       1.357   0.831  23.389  0.00  0.00    +0.093 A 
ATOM     18  C   UNL     1      -1.974   0.512  22.440  0.00  0.00    +0.172 C 
BRANCH  17  20
ATOM     20  C   UNL     1       2.709   0.337  23.378  0.00  0.00    +0.002 A 
ATOM     22  C   UNL     1       2.970  -0.987  23.729  0.00  0.00    +0.010 A 
ATOM     23  C   UNL     1       3.758   1.182  23.017  0.00  0.00    +0.010 A 
ATOM     24  C   UNL     1       4.280  -1.467  23.720  0.00  0.00    +0.001 A 
ATOM     25  C   UNL     1       5.068   0.704  23.007  0.00  0.00    +0.001 A 
ATOM     26  C   UNL     1       5.329  -0.622  23.359  0.00  0.00    +0.000 A 
ENDBRANCH  17  20
ENDBRANCH   8  14
BRANCH   9  15
ATOM     15  C   UNL     1      -4.721   0.766  24.724  0.00  0.00    +0.123 C 
BRANCH  15   5
ATOM      1  O   UNL     1      -4.425  -1.857  23.540  0.00  0.00    -0.273 OA
ATOM      5  N   UNL     1      -3.913  -0.313  25.204  0.00  0.00    -0.312 N 
ATOM     19  C   UNL     1      -3.829  -1.550  24.568  0.00  0.00    +0.239 C 
ATOM     28  H   UNL     1      -3.379  -0.162  26.055  0.00  0.00    +0.149 HD
BRANCH  19  21
ATOM     21  C   UNL     1      -2.901  -2.502  25.292  0.00  0.00    +0.255 C 
BRANCH  21   2
ATOM      2  O   UNL     1      -1.630  -2.524  24.677  0.00  0.00    -0.374 OA
ATOM     27  C   UNL     1      -0.680  -1.739  25.392  0.00  0.00    +0.194 C 
ENDBRANCH  21   2
ENDBRANCH  19  21
ENDBRANCH  15   5
ENDBRANCH   9  15
TORSDOF 6
ENDMDL
MODEL 2
REMARK VINA RESULT:      -1.7      2.525      4.033
REMARK  Name = 40779167
REMARK  8 active torsions:
REMARK  status: ('A' for Active; 'I' for Inactive)
REMARK    1  A    between atoms: O_2  and  C_21
REMARK    2  A    between atoms: O_2  and  C_27
REMARK    3  A    between atoms: N_4  and  C_18
REMARK    4  A    between atoms: N_5  and  C_15
REMARK    5  A    between atoms: C_8  and  C_14
REMARK    6  A    between atoms: C_9  and  C_15
REMARK    7  A    between atoms: C_17  and  C_20
REMARK    8  A    between atoms: C_19  and  C_21
REMARK                            x       y       z     vdW  Elec       q    Type
REMARK                         _______ _______ _______ _____ _____    ______ ____
ROOT
ATOM      3  N   UNL     1      -5.252   2.487  26.287  0.00  0.00    -0.297 NA
ATOM      7  C   UNL     1      -4.922   1.717  23.821  0.00  0.00    +0.002 C 
ATOM      8  C   UNL     1      -4.209   0.739  24.797  0.00  0.00    +0.055 C 
ATOM      9  C   UNL     1      -4.780   3.627  25.458  0.00  0.00    +0.074 C 
ATOM     10  C   UNL     1      -4.382   3.145  24.046  0.00  0.00    +0.024 C 
ATOM     11  C   UNL     1      -6.414   1.729  24.215  0.00  0.00    +0.019 C 
ATOM     12  C   UNL     1      -4.277   1.370  26.217  0.00  0.00    +0.094 C 
ATOM     13  C   UNL     1      -6.538   2.015  25.722  0.00  0.00    +0.085 C 
ENDROOT
BRANCH   8  14
ATOM      4  N   UNL     1      -2.359  -0.995  24.707  0.00  0.00    -0.270 N 
ATOM      6  N   UNL     1      -1.091  -1.214  24.315  0.00  0.00    -0.171 NA
ATOM     14  C   UNL     1      -2.807   0.265  24.441  0.00  0.00    +0.044 A 
ATOM     16  C   UNL     1      -1.760   0.916  23.836  0.00  0.00    +0.053 A 
ATOM     17  C   UNL     1      -0.731  -0.044  23.784  0.00  0.00    +0.093 A 
ATOM     18  C   UNL     1      -3.095  -2.063  25.344  0.00  0.00    +0.172 C 
BRANCH  17  20
ATOM     20  C   UNL     1       0.588   0.138  23.239  0.00  0.00    +0.002 A 
ATOM     22  C   UNL     1       1.470   1.040  23.834  0.00  0.00    +0.010 A 
ATOM     23  C   UNL     1       0.987  -0.588  22.116  0.00  0.00    +0.010 A 
ATOM     24  C   UNL     1       2.749   1.217  23.306  0.00  0.00    +0.001 A 
ATOM     25  C   UNL     1       2.265  -0.412  21.588  0.00  0.00    +0.001 A 
ATOM     26  C   UNL     1       3.147   0.491  22.184  0.00  0.00    +0.000 A 
ENDBRANCH  17  20
ENDBRANCH   8  14
BRANCH   9  15
ATOM     15  C   UNL     1      -3.651   4.411  26.131  0.00  0.00    +0.123 C 
BRANCH  15   5
ATOM      1  O   UNL     1      -1.202   5.478  25.024  0.00  0.00    -0.273 OA
ATOM      5  N   UNL     1      -2.401   3.732  25.987  0.00  0.00    -0.312 N 
ATOM     19  C   UNL     1      -1.265   4.324  25.439  0.00  0.00    +0.239 C 
ATOM     28  H   UNL     1      -2.347   2.766  26.298  0.00  0.00    +0.149 HD
BRANCH  19  21
ATOM     21  C   UNL     1      -0.084   3.378  25.410  0.00  0.00    +0.255 C 
BRANCH  21   2
ATOM      2  O   UNL     1      -0.217   2.384  26.403  0.00  0.00    -0.374 OA
ATOM     27  C   UNL     1       0.722   2.560  27.461  0.00  0.00    +0.194 C 
ENDBRANCH  21   2
ENDBRANCH  19  21
ENDBRANCH  15   5
ENDBRANCH   9  15
TORSDOF 6
ENDMDL
MODEL 3
REMARK VINA RESULT:      -1.0      1.546      2.308
REMARK  Name = 40779167
REMARK  8 active torsions:
REMARK  status: ('A' for Active; 'I' for Inactive)
REMARK    1  A    between atoms: O_2  and  C_21
REMARK    2  A    between atoms: O_2  and  C_27
REMARK    3  A    between atoms: N_4  and  C_18
REMARK    4  A    between atoms: N_5  and  C_15
REMARK    5  A    between atoms: C_8  and  C_14
REMARK    6  A    between atoms: C_9  and  C_15
REMARK    7  A    between atoms: C_17  and  C_20
REMARK    8  A    between atoms: C_19  and  C_21
REMARK                            x       y       z     vdW  Elec       q    Type
REMARK                         _______ _______ _______ _____ _____    ______ ____
ROOT
ATOM      3  N   UNL     1      -5.408   1.977  24.085  0.00  0.00    -0.297 NA
ATOM      7  C   UNL     1      -3.750   2.610  25.991  0.00  0.00    +0.002 C 
ATOM      8  C   UNL     1      -3.199   3.073  24.614  0.00  0.00    +0.055 C 
ATOM      9  C   UNL     1      -5.145   0.793  24.945  0.00  0.00    +0.074 C 
ATOM     10  C   UNL     1      -4.012   1.090  25.950  0.00  0.00    +0.024 C 
ATOM     11  C   UNL     1      -5.118   3.302  26.178  0.00  0.00    +0.019 C 
ATOM     12  C   UNL     1      -4.134   2.486  23.519  0.00  0.00    +0.094 C 
ATOM     13  C   UNL     1      -5.992   3.038  24.939  0.00  0.00    +0.085 C 
ENDROOT
BRANCH   8  14
ATOM      4  N   UNL     1      -0.761   3.770  24.503  0.00  0.00    -0.270 N 
ATOM      6  N   UNL     1       0.475   3.356  24.173  0.00  0.00    -0.171 NA
ATOM     14  C   UNL     1      -1.728   2.827  24.310  0.00  0.00    +0.044 A 
ATOM     16  C   UNL     1      -1.080   1.720  23.819  0.00  0.00    +0.053 A 
ATOM     17  C   UNL     1       0.274   2.103  23.756  0.00  0.00    +0.093 A 
ATOM     18  C   UNL     1      -0.944   5.112  25.005  0.00  0.00    +0.172 C 
BRANCH  17  20
ATOM     20  C   UNL     1       1.376   1.297  23.304  0.00  0.00    +0.002 A 
ATOM     22  C   UNL     1       2.673   1.811  23.328  0.00  0.00    +0.010 A 
ATOM     23  C   UNL     1       1.151   0.000  22.841  0.00  0.00    +0.010 A 
ATOM     24  C   UNL     1       3.742   1.031  22.889  0.00  0.00    +0.001 A 
ATOM     25  C   UNL     1       2.219  -0.781  22.402  0.00  0.00    +0.001 A 
ATOM     26  C   UNL     1       3.516  -0.265  22.427  0.00  0.00    +0.000 A 
ENDBRANCH  17  20
ENDBRANCH   8  14
BRANCH   9  15
ATOM     15  C   UNL     1      -4.865  -0.471  24.128  0.00  0.00    +0.123 C 
BRANCH  15   5
ATOM      1  O   UNL     1      -3.961  -3.218  24.179  0.00  0.00    -0.273 OA
ATOM      5  N   UNL     1      -3.531  -0.937  24.351  0.00  0.00    -0.312 N 
ATOM     19  C   UNL     1      -3.182  -2.286  24.359  0.00  0.00    +0.239 C 
ATOM     28  H   UNL     1      -2.807  -0.243  24.515  0.00  0.00    +0.149 HD
BRANCH  19  21
ATOM     21  C   UNL     1      -1.705  -2.492  24.618  0.00  0.00    +0.255 C 
BRANCH  21   2
ATOM      2  O   UNL     1      -1.055  -1.254  24.811  0.00  0.00    -0.374 OA
ATOM     27  C   UNL     1      -0.935  -0.926  26.193  0.00  0.00    +0.194 C 
ENDBRANCH  21   2
ENDBRANCH  19  21
ENDBRANCH  15   5
ENDBRANCH   9  15
TORSDOF 6
ENDMDL
MODEL 4
REMARK VINA RESULT:       0.1      2.126      3.855
REMARK  Name = 40779167
REMARK  8 active torsions:
REMARK  status: ('A' for Active; 'I' for Inactive)
REMARK    1  A    between atoms: O_2  and  C_21
REMARK    2  A    between atoms: O_2  and  C_27
REMARK    3  A    between atoms: N_4  and  C_18
REMARK    4  A    between atoms: N_5  and  C_15
REMARK    5  A    between atoms: C_8  and  C_14
REMARK    6  A    between atoms: C_9  and  C_15
REMARK    7  A    between atoms: C_17  and  C_20
REMARK    8  A    between atoms: C_19  and  C_21
REMARK                            x       y       z     vdW  Elec       q    Type
REMARK                         _______ _______ _______ _____ _____    ______ ____
ROOT
ATOM      3  N   UNL     1      -3.892  -0.264  25.834  0.00  0.00    -0.297 NA
ATOM      7  C   UNL     1      -3.217  -0.885  23.396  0.00  0.00    +0.002 C 
ATOM      8  C   UNL     1      -2.008  -1.059  24.358  0.00  0.00    +0.055 C 
ATOM      9  C   UNL     1      -4.307   0.817  24.901  0.00  0.00    +0.074 C 
ATOM     10  C   UNL     1      -3.736   0.565  23.489  0.00  0.00    +0.024 C 
ATOM     11  C   UNL     1      -4.340  -1.803  23.923  0.00  0.00    +0.019 C 
ATOM     12  C   UNL     1      -2.427  -0.482  25.739  0.00  0.00    +0.094 C 
ATOM     13  C   UNL     1      -4.574  -1.512  25.416  0.00  0.00    +0.085 C 
ENDROOT
BRANCH   8  14
ATOM      4  N   UNL     1      -0.500   0.534  23.082  0.00  0.00    -0.270 N 
ATOM      6  N   UNL     1       0.781   0.828  22.799  0.00  0.00    -0.171 NA
ATOM     14  C   UNL     1      -0.650  -0.544  23.904  0.00  0.00    +0.044 A 
ATOM     16  C   UNL     1       0.621  -0.987  24.177  0.00  0.00    +0.053 A 
ATOM     17  C   UNL     1       1.461  -0.105  23.471  0.00  0.00    +0.093 A 
ATOM     18  C   UNL     1      -1.552   1.347  22.516  0.00  0.00    +0.172 C 
BRANCH  17  20
ATOM     20  C   UNL     1       2.899  -0.137  23.424  0.00  0.00    +0.002 A 
ATOM     22  C   UNL     1       3.609   0.985  22.995  0.00  0.00    +0.010 A 
ATOM     23  C   UNL     1       3.585  -1.290  23.806  0.00  0.00    +0.010 A 
ATOM     24  C   UNL     1       5.002   0.954  22.948  0.00  0.00    +0.001 A 
ATOM     25  C   UNL     1       4.978  -1.322  23.760  0.00  0.00    +0.001 A 
ATOM     26  C   UNL     1       5.687  -0.199  23.331  0.00  0.00    +0.000 A 
ENDBRANCH  17  20
ENDBRANCH   8  14
BRANCH   9  15
ATOM     15  C   UNL     1      -3.946   2.209  25.422  0.00  0.00    +0.123 C 
BRANCH  15   5
ATOM      1  O   UNL     1      -2.518   4.625  26.121  0.00  0.00    -0.273 OA
ATOM      5  N   UNL     1      -2.627   2.582  25.013  0.00  0.00    -0.312 N 
ATOM     19  C   UNL     1      -2.012   3.771  25.398  0.00  0.00    +0.239 C 
ATOM     28  H   UNL     1      -2.121   1.942  24.407  0.00  0.00    +0.149 HD
BRANCH  19  21
ATOM     21  C   UNL     1      -0.620   3.907  24.821  0.00  0.00    +0.255 C 
BRANCH  21   2
ATOM      2  O   UNL     1       0.192   2.822  25.217  0.00  0.00    -0.374 OA
ATOM     27  C   UNL     1      -0.004   2.482  26.587  0.00  0.00    +0.194 C 
ENDBRANCH  21   2
ENDBRANCH  19  21
ENDBRANCH  15   5
ENDBRANCH   9  15
TORSDOF 6
ENDMDL
MODEL 5
REMARK VINA RESULT:       0.2      2.178      5.595
REMARK  Name = 40779167
REMARK  8 active torsions:
REMARK  status: ('A' for Active; 'I' for Inactive)
REMARK    1  A    between atoms: O_2  and  C_21
REMARK    2  A    between atoms: O_2  and  C_27
REMARK    3  A    between atoms: N_4  and  C_18
REMARK    4  A    between atoms: N_5  and  C_15
REMARK    5  A    between atoms: C_8  and  C_14
REMARK    6  A    between atoms: C_9  and  C_15
REMARK    7  A    between atoms: C_17  and  C_20
REMARK    8  A    between atoms: C_19  and  C_21
REMARK                            x       y       z     vdW  Elec       q    Type
REMARK                         _______ _______ _______ _____ _____    ______ ____
ROOT
ATOM      3  N   UNL     1      -1.457   4.991  25.714  0.00  0.00    -0.297 NA
ATOM      7  C   UNL     1      -2.902   4.303  23.660  0.00  0.00    +0.002 C 
ATOM      8  C   UNL     1      -3.501   3.716  24.968  0.00  0.00    +0.055 C 
ATOM      9  C   UNL     1      -0.588   4.430  24.646  0.00  0.00    +0.074 C 
ATOM     10  C   UNL     1      -1.442   3.828  23.510  0.00  0.00    +0.024 C 
ATOM     11  C   UNL     1      -2.865   5.836  23.837  0.00  0.00    +0.019 C 
ATOM     12  C   UNL     1      -2.483   3.995  26.110  0.00  0.00    +0.094 C 
ATOM     13  C   UNL     1      -2.152   6.176  25.157  0.00  0.00    +0.085 C 
ENDROOT
BRANCH   8  14
ATOM      4  N   UNL     1      -5.235   1.896  25.314  0.00  0.00    -0.270 N 
ATOM      6  N   UNL     1      -5.452   0.571  25.235  0.00  0.00    -0.171 NA
ATOM     14  C   UNL     1      -3.973   2.269  24.956  0.00  0.00    +0.044 A 
ATOM     16  C   UNL     1      -3.319   1.109  24.621  0.00  0.00    +0.053 A 
ATOM     17  C   UNL     1      -4.278   0.096  24.811  0.00  0.00    +0.093 A 
ATOM     18  C   UNL     1      -6.306   2.761  25.750  0.00  0.00    +0.172 C 
BRANCH  17  20
ATOM     20  C   UNL     1      -4.094  -1.315  24.598  0.00  0.00    +0.002 A 
ATOM     22  C   UNL     1      -3.324  -2.060  25.491  0.00  0.00    +0.010 A 
ATOM     23  C   UNL     1      -4.685  -1.939  23.500  0.00  0.00    +0.010 A 
ATOM     24  C   UNL     1      -3.144  -3.428  25.286  0.00  0.00    +0.001 A 
ATOM     25  C   UNL     1      -4.506  -3.307  23.294  0.00  0.00    +0.001 A 
ATOM     26  C   UNL     1      -3.735  -4.051  24.187  0.00  0.00    +0.000 A 
ENDBRANCH  17  20
ENDBRANCH   8  14
BRANCH   9  15
ATOM     15  C   UNL     1       0.428   3.423  25.190  0.00  0.00    +0.123 C 
BRANCH  15   5
ATOM      1  O   UNL     1      -0.551   0.824  26.000  0.00  0.00    -0.273 OA
ATOM      5  N   UNL     1       0.422   2.221  24.413  0.00  0.00    -0.312 N 
ATOM     19  C   UNL     1      -0.071   1.006  24.884  0.00  0.00    +0.239 C 
ATOM     28  H   UNL     1       0.802   2.264  23.471  0.00  0.00    +0.149 HD
BRANCH  19  21
ATOM     21  C   UNL     1       0.045  -0.096  23.853  0.00  0.00    +0.255 C 
BRANCH  21   2
ATOM      2  O   UNL     1       0.727   0.364  22.706  0.00  0.00    -0.374 OA
ATOM     27  C   UNL     1       2.064  -0.127  22.649  0.00  0.00    +0.194 C 
ENDBRANCH  21   2
ENDBRANCH  19  21
ENDBRANCH  15   5
ENDBRANCH   9  15
TORSDOF 6
ENDMDL
MODEL 6
REMARK VINA RESULT:       0.6      2.167      6.112
REMARK  Name = 40779167
REMARK  8 active torsions:
REMARK  status: ('A' for Active; 'I' for Inactive)
REMARK    1  A    between atoms: O_2  and  C_21
REMARK    2  A    between atoms: O_2  and  C_27
REMARK    3  A    between atoms: N_4  and  C_18
REMARK    4  A    between atoms: N_5  and  C_15
REMARK    5  A    between atoms: C_8  and  C_14
REMARK    6  A    between atoms: C_9  and  C_15
REMARK    7  A    between atoms: C_17  and  C_20
REMARK    8  A    between atoms: C_19  and  C_21
REMARK                            x       y       z     vdW  Elec       q    Type
REMARK                         _______ _______ _______ _____ _____    ______ ____
ROOT
ATOM      3  N   UNL     1      -2.866  -2.671  23.761  0.00  0.00    -0.297 NA
ATOM      7  C   UNL     1      -2.864  -1.542  26.108  0.00  0.00    +0.002 C 
ATOM      8  C   UNL     1      -3.731  -0.724  25.111  0.00  0.00    +0.055 C 
ATOM      9  C   UNL     1      -1.471  -2.529  24.255  0.00  0.00    +0.074 C 
ATOM     10  C   UNL     1      -1.434  -1.680  25.544  0.00  0.00    +0.024 C 
ATOM     11  C   UNL     1      -3.469  -2.961  26.163  0.00  0.00    +0.019 C 
ATOM     12  C   UNL     1      -3.520  -1.340  23.699  0.00  0.00    +0.094 C 
ATOM     13  C   UNL     1      -3.610  -3.507  24.732  0.00  0.00    +0.085 C 
ENDROOT
BRANCH   8  14
ATOM      4  N   UNL     1      -4.642   1.640  25.264  0.00  0.00    -0.270 N 
ATOM      6  N   UNL     1      -4.302   2.941  25.230  0.00  0.00    -0.171 NA
ATOM     14  C   UNL     1      -3.585   0.791  25.108  0.00  0.00    +0.044 A 
ATOM     16  C   UNL     1      -2.479   1.592  24.961  0.00  0.00    +0.053 A 
ATOM     17  C   UNL     1      -2.980   2.905  25.045  0.00  0.00    +0.093 A 
ATOM     18  C   UNL     1      -6.027   1.277  25.451  0.00  0.00    +0.172 C 
BRANCH  17  20
ATOM     20  C   UNL     1      -2.222   4.124  24.950  0.00  0.00    +0.002 A 
ATOM     22  C   UNL     1      -0.861   4.076  24.644  0.00  0.00    +0.010 A 
ATOM     23  C   UNL     1      -2.844   5.353  25.164  0.00  0.00    +0.010 A 
ATOM     24  C   UNL     1      -0.124   5.257  24.553  0.00  0.00    +0.001 A 
ATOM     25  C   UNL     1      -2.109   6.534  25.072  0.00  0.00    +0.001 A 
ATOM     26  C   UNL     1      -0.748   6.486  24.766  0.00  0.00    +0.000 A 
ENDBRANCH  17  20
ENDBRANCH   8  14
BRANCH   9  15
ATOM     15  C   UNL     1      -0.525  -1.982  23.184  0.00  0.00    +0.123 C 
BRANCH  15   5
ATOM      1  O   UNL     1       1.333  -0.325  21.711  0.00  0.00    -0.273 OA
ATOM      5  N   UNL     1       0.209  -0.857  23.678  0.00  0.00    -0.312 N 
ATOM     19  C   UNL     1       1.088  -0.112  22.896  0.00  0.00    +0.239 C 
ATOM     28  H   UNL     1       0.079  -0.598  24.652  0.00  0.00    +0.149 HD
BRANCH  19  21
ATOM     21  C   UNL     1       1.726   1.020  23.673  0.00  0.00    +0.255 C 
BRANCH  21   2
ATOM      2  O   UNL     1       2.895   1.473  23.024  0.00  0.00    -0.374 OA
ATOM     27  C   UNL     1       3.947   0.514  23.090  0.00  0.00    +0.194 C 
ENDBRANCH  21   2
ENDBRANCH  19  21
ENDBRANCH  15   5
ENDBRANCH   9  15
TORSDOF 6
ENDMDL
MODEL 7
REMARK VINA RESULT:       0.7      2.316      3.463
REMARK  Name = 40779167
REMARK  8 active torsions:
REMARK  status: ('A' for Active; 'I' for Inactive)
REMARK    1  A    between atoms: O_2  and  C_21
REMARK    2  A    between atoms: O_2  and  C_27
REMARK    3  A    between atoms: N_4  and  C_18
REMARK    4  A    between atoms: N_5  and  C_15
REMARK    5  A    between atoms: C_8  and  C_14
REMARK    6  A    between atoms: C_9  and  C_15
REMARK    7  A    between atoms: C_17  and  C_20
REMARK    8  A    between atoms: C_19  and  C_21
REMARK                            x       y       z     vdW  Elec       q    Type
REMARK                         _______ _______ _______ _____ _____    ______ ____
ROOT
ATOM      3  N   UNL     1      -4.142   2.255  25.116  0.00  0.00    -0.297 NA
ATOM      7  C   UNL     1      -2.655   2.571  23.001  0.00  0.00    +0.002 C 
ATOM      8  C   UNL     1      -2.544   1.115  23.531  0.00  0.00    +0.055 C 
ATOM      9  C   UNL     1      -3.291   3.465  25.268  0.00  0.00    +0.074 C 
ATOM     10  C   UNL     1      -2.260   3.553  24.123  0.00  0.00    +0.024 C 
ATOM     11  C   UNL     1      -4.146   2.818  22.686  0.00  0.00    +0.019 C 
ATOM     12  C   UNL     1      -3.289   1.060  24.895  0.00  0.00    +0.094 C 
ATOM     13  C   UNL     1      -4.991   2.445  23.916  0.00  0.00    +0.085 C 
ENDROOT
BRANCH   8  14
ATOM      4  N   UNL     1      -0.953  -0.796  24.039  0.00  0.00    -0.270 N 
ATOM      6  N   UNL     1       0.339  -1.168  24.026  0.00  0.00    -0.171 NA
ATOM     14  C   UNL     1      -1.163   0.479  23.602  0.00  0.00    +0.044 A 
ATOM     16  C   UNL     1       0.077   0.975  23.281  0.00  0.00    +0.053 A 
ATOM     17  C   UNL     1       0.963  -0.083  23.561  0.00  0.00    +0.093 A 
ATOM     18  C   UNL     1      -1.953  -1.734  24.495  0.00  0.00    +0.172 C 
BRANCH  17  20
ATOM     20  C   UNL     1       2.392  -0.075  23.397  0.00  0.00    +0.002 A 
ATOM     22  C   UNL     1       3.026   1.044  22.857  0.00  0.00    +0.010 A 
ATOM     23  C   UNL     1       3.146  -1.185  23.777  0.00  0.00    +0.010 A 
ATOM     24  C   UNL     1       4.412   1.053  22.696  0.00  0.00    +0.001 A 
ATOM     25  C   UNL     1       4.531  -1.178  23.617  0.00  0.00    +0.001 A 
ATOM     26  C   UNL     1       5.164  -0.058  23.076  0.00  0.00    +0.000 A 
ENDBRANCH  17  20
ENDBRANCH   8  14
BRANCH   9  15
ATOM     15  C   UNL     1      -2.624   3.540  26.643  0.00  0.00    +0.123 C 
BRANCH  15   5
ATOM      1  O   UNL     1      -0.909   1.212  26.729  0.00  0.00    -0.273 OA
ATOM      5  N   UNL     1      -1.199   3.512  26.521  0.00  0.00    -0.312 N 
ATOM     19  C   UNL     1      -0.447   2.340  26.575  0.00  0.00    +0.239 C 
ATOM     28  H   UNL     1      -0.717   4.397  26.393  0.00  0.00    +0.149 HD
BRANCH  19  21
ATOM     21  C   UNL     1       1.035   2.603  26.417  0.00  0.00    +0.255 C 
BRANCH  21   2
ATOM      2  O   UNL     1       1.574   3.146  27.604  0.00  0.00    -0.374 OA
ATOM     27  C   UNL     1       1.343   2.301  28.728  0.00  0.00    +0.194 C 
ENDBRANCH  21   2
ENDBRANCH  19  21
ENDBRANCH  15   5
ENDBRANCH   9  15
TORSDOF 6
ENDMDL
