MODEL 1
REMARK VINA RESULT:       6.4      0.000      0.000
REMARK  Name = 11884043
REMARK  8 active torsions:
REMARK  status: ('A' for Active; 'I' for Inactive)
REMARK    1  A    between atoms: S_1  and  N_9
REMARK    2  A    between atoms: S_1  and  C_17
REMARK    3  A    between atoms: O_4  and  C_14
REMARK    4  A    between atoms: O_4  and  C_18
REMARK    5  A    between atoms: O_8  and  C_33
REMARK    6  A    between atoms: O_8  and  C_34
REMARK    7  A    between atoms: N_9  and  C_13
REMARK    8  A    between atoms: N_10  and  C_24
REMARK                            x       y       z     vdW  Elec       q    Type
REMARK                         _______ _______ _______ _____ _____    ______ ____
ROOT
ATOM      2  O   UNL     1      -3.875   3.174  26.792  0.00  0.00    -0.369 OA
ATOM      3  O   UNL     1      -6.245   4.805  25.703  0.00  0.00    -0.368 OA
ATOM     11  C   UNL     1      -5.788   3.466  25.418  0.00  0.00    +0.171 C 
ATOM     12  C   UNL     1      -4.273   3.503  25.450  0.00  0.00    +0.191 C 
ATOM     13  C   UNL     1      -6.155   2.545  26.555  0.00  0.00    +0.133 C 
ATOM     14  C   UNL     1      -3.971   4.944  25.114  0.00  0.00    +0.235 C 
ATOM     15  C   UNL     1      -5.027   2.767  27.544  0.00  0.00    +0.183 C 
ATOM     16  C   UNL     1      -5.106   5.673  25.797  0.00  0.00    +0.207 C 
ENDROOT
BRANCH  13   9
ATOM      9  N   UNL     1      -6.143   1.137  26.090  0.00  0.00    -0.182 NA
ATOM     40  H   UNL     1      -5.896   0.427  26.790  0.00  0.00    +0.148 HD
BRANCH   9   1
ATOM      1  S   UNL     1      -5.899   0.794  24.446  0.00  0.00    +0.059 S 
ATOM      5  O   UNL     1      -5.448   1.992  23.763  0.00  0.00    -0.153 OA
ATOM      6  O   UNL     1      -7.046   0.059  23.948  0.00  0.00    -0.153 OA
BRANCH   1  17
ATOM     17  C   UNL     1      -4.548  -0.342  24.507  0.00  0.00    +0.106 A 
ATOM     19  C   UNL     1      -3.408  -0.031  25.250  0.00  0.00    +0.037 A 
ATOM     20  C   UNL     1      -4.618  -1.546  23.812  0.00  0.00    +0.029 A 
ATOM     21  C   UNL     1      -2.325  -0.922  25.309  0.00  0.00    -0.016 A 
ATOM     22  C   UNL     1      -3.551  -2.444  23.860  0.00  0.00    +0.010 A 
ATOM     23  C   UNL     1      -2.397  -2.147  24.603  0.00  0.00    -0.018 A 
ATOM     25  C   UNL     1      -1.171  -0.626  26.053  0.00  0.00    +0.008 A 
ATOM     26  C   UNL     1      -1.313  -3.038  24.661  0.00  0.00    +0.008 A 
ATOM     27  C   UNL     1      -0.103  -1.523  26.099  0.00  0.00    +0.001 A 
ATOM     30  C   UNL     1      -0.174  -2.727  25.405  0.00  0.00    +0.001 A 
ENDBRANCH   1  17
ENDBRANCH   9   1
ENDBRANCH  13   9
BRANCH  14   4
ATOM      4  O   UNL     1      -2.711   5.377  25.573  0.00  0.00    -0.442 OA
BRANCH   4  18
ATOM      7  O   UNL     1      -0.596   5.436  24.704  0.00  0.00    -0.226 OA
ATOM     10  N   UNL     1      -1.830   3.449  24.800  0.00  0.00    -0.251 N 
ATOM     18  C   UNL     1      -1.602   4.798  24.989  0.00  0.00    +0.405 C 
ATOM     41  H   UNL     1      -2.735   3.099  25.104  0.00  0.00    +0.158 HD
BRANCH  10  24
ATOM     24  C   UNL     1      -0.959   2.490  24.235  0.00  0.00    +0.037 A 
ATOM     28  C   UNL     1      -1.384   1.711  23.159  0.00  0.00    +0.027 A 
ATOM     29  C   UNL     1       0.326   2.325  24.752  0.00  0.00    +0.027 A 
ATOM     31  C   UNL     1      -0.523   0.765  22.601  0.00  0.00    +0.048 A 
ATOM     32  C   UNL     1       1.187   1.380  24.194  0.00  0.00    +0.048 A 
ATOM     33  C   UNL     1       0.761   0.600  23.119  0.00  0.00    +0.129 A 
BRANCH  33   8
ATOM      8  O   UNL     1       1.602  -0.321  22.572  0.00  0.00    -0.456 OA
BRANCH   8  34
ATOM     34  C   UNL     1       2.930  -0.293  22.963  0.00  0.00    +0.128 A 
ATOM     35  C   UNL     1       3.709   0.834  22.703  0.00  0.00    +0.046 A 
ATOM     36  C   UNL     1       3.488  -1.390  23.619  0.00  0.00    +0.046 A 
ATOM     37  C   UNL     1       5.048   0.864  23.097  0.00  0.00    +0.004 A 
ATOM     38  C   UNL     1       4.825  -1.361  24.013  0.00  0.00    +0.004 A 
ATOM     39  C   UNL     1       5.605  -0.234  23.753  0.00  0.00    +0.000 A 
ENDBRANCH   8  34
ENDBRANCH  33   8
ENDBRANCH  10  24
ENDBRANCH   4  18
ENDBRANCH  14   4
TORSDOF 8
ENDMDL
MODEL 2
REMARK VINA RESULT:       8.2      1.984      3.476
REMARK  Name = 11884043
REMARK  8 active torsions:
REMARK  status: ('A' for Active; 'I' for Inactive)
REMARK    1  A    between atoms: S_1  and  N_9
REMARK    2  A    between atoms: S_1  and  C_17
REMARK    3  A    between atoms: O_4  and  C_14
REMARK    4  A    between atoms: O_4  and  C_18
REMARK    5  A    between atoms: O_8  and  C_33
REMARK    6  A    between atoms: O_8  and  C_34
REMARK    7  A    between atoms: N_9  and  C_13
REMARK    8  A    between atoms: N_10  and  C_24
REMARK                            x       y       z     vdW  Elec       q    Type
REMARK                         _______ _______ _______ _____ _____    ______ ____
ROOT
ATOM      2  O   UNL     1      -2.063   3.912  24.391  0.00  0.00    -0.369 OA
ATOM      3  O   UNL     1      -4.892   4.396  25.498  0.00  0.00    -0.368 OA
ATOM     11  C   UNL     1      -3.868   3.444  25.858  0.00  0.00    +0.171 C 
ATOM     12  C   UNL     1      -3.183   3.029  24.572  0.00  0.00    +0.191 C 
ATOM     13  C   UNL     1      -2.781   4.133  26.645  0.00  0.00    +0.133 C 
ATOM     14  C   UNL     1      -4.255   3.265  23.535  0.00  0.00    +0.235 C 
ATOM     15  C   UNL     1      -1.907   4.729  25.560  0.00  0.00    +0.183 C 
ATOM     16  C   UNL     1      -4.944   4.501  24.067  0.00  0.00    +0.207 C 
ENDROOT
BRANCH  13   9
ATOM      9  N   UNL     1      -2.007   3.133  27.420  0.00  0.00    -0.182 NA
ATOM     40  H   UNL     1      -2.128   3.153  28.440  0.00  0.00    +0.148 HD
BRANCH   9   1
ATOM      1  S   UNL     1      -0.579   2.485  26.772  0.00  0.00    +0.059 S 
ATOM      5  O   UNL     1       0.363   2.221  27.843  0.00  0.00    -0.153 OA
ATOM      6  O   UNL     1      -0.179   3.285  25.631  0.00  0.00    -0.153 OA
BRANCH   1  17
ATOM     17  C   UNL     1      -1.136   0.931  26.141  0.00  0.00    +0.106 A 
ATOM     19  C   UNL     1      -2.420   0.817  25.604  0.00  0.00    +0.037 A 
ATOM     20  C   UNL     1      -0.297  -0.178  26.180  0.00  0.00    +0.029 A 
ATOM     21  C   UNL     1      -2.879  -0.410  25.099  0.00  0.00    -0.016 A 
ATOM     22  C   UNL     1      -0.736  -1.405  25.682  0.00  0.00    +0.010 A 
ATOM     23  C   UNL     1      -2.024  -1.538  25.139  0.00  0.00    -0.018 A 
ATOM     25  C   UNL     1      -4.166  -0.544  24.554  0.00  0.00    +0.008 A 
ATOM     26  C   UNL     1      -2.483  -2.766  24.634  0.00  0.00    +0.008 A 
ATOM     27  C   UNL     1      -4.606  -1.771  24.058  0.00  0.00    +0.001 A 
ATOM     30  C   UNL     1      -3.766  -2.880  24.097  0.00  0.00    +0.001 A 
ENDBRANCH   1  17
ENDBRANCH   9   1
ENDBRANCH  13   9
BRANCH  14   4
ATOM      4  O   UNL     1      -3.748   3.459  22.234  0.00  0.00    -0.442 OA
BRANCH   4  18
ATOM      7  O   UNL     1      -2.775   2.121  20.654  0.00  0.00    -0.226 OA
ATOM     10  N   UNL     1      -1.919   2.278  22.828  0.00  0.00    -0.251 N 
ATOM     18  C   UNL     1      -2.794   2.563  21.797  0.00  0.00    +0.405 C 
ATOM     41  H   UNL     1      -2.099   2.748  23.712  0.00  0.00    +0.158 HD
BRANCH  10  24
ATOM     24  C   UNL     1      -0.802   1.413  22.808  0.00  0.00    +0.037 A 
ATOM     28  C   UNL     1       0.394   1.804  23.410  0.00  0.00    +0.027 A 
ATOM     29  C   UNL     1      -0.895   0.167  22.187  0.00  0.00    +0.027 A 
ATOM     31  C   UNL     1       1.496   0.950  23.391  0.00  0.00    +0.048 A 
ATOM     32  C   UNL     1       0.207  -0.687  22.168  0.00  0.00    +0.048 A 
ATOM     33  C   UNL     1       1.403  -0.295  22.771  0.00  0.00    +0.129 A 
BRANCH  33   8
ATOM      8  O   UNL     1       2.478  -1.130  22.755  0.00  0.00    -0.456 OA
BRANCH   8  34
ATOM     34  C   UNL     1       3.691  -0.624  23.192  0.00  0.00    +0.128 A 
ATOM     35  C   UNL     1       4.555  -1.428  23.935  0.00  0.00    +0.046 A 
ATOM     36  C   UNL     1       4.049   0.690  22.890  0.00  0.00    +0.046 A 
ATOM     37  C   UNL     1       5.777  -0.919  24.376  0.00  0.00    +0.004 A 
ATOM     38  C   UNL     1       5.270   1.199  23.330  0.00  0.00    +0.004 A 
ATOM     39  C   UNL     1       6.134   0.395  24.073  0.00  0.00    +0.000 A 
ENDBRANCH   8  34
ENDBRANCH  33   8
ENDBRANCH  10  24
ENDBRANCH   4  18
ENDBRANCH  14   4
TORSDOF 8
ENDMDL
MODEL 3
REMARK VINA RESULT:       9.0      2.554      4.652
REMARK  Name = 11884043
REMARK  8 active torsions:
REMARK  status: ('A' for Active; 'I' for Inactive)
REMARK    1  A    between atoms: S_1  and  N_9
REMARK    2  A    between atoms: S_1  and  C_17
REMARK    3  A    between atoms: O_4  and  C_14
REMARK    4  A    between atoms: O_4  and  C_18
REMARK    5  A    between atoms: O_8  and  C_33
REMARK    6  A    between atoms: O_8  and  C_34
REMARK    7  A    between atoms: N_9  and  C_13
REMARK    8  A    between atoms: N_10  and  C_24
REMARK                            x       y       z     vdW  Elec       q    Type
REMARK                         _______ _______ _______ _____ _____    ______ ____
ROOT
ATOM      2  O   UNL     1      -3.616   2.020  23.641  0.00  0.00    -0.369 OA
ATOM      3  O   UNL     1      -5.827   3.253  25.388  0.00  0.00    -0.368 OA
ATOM     11  C   UNL     1      -4.388   3.286  25.494  0.00  0.00    +0.171 C 
ATOM     12  C   UNL     1      -3.883   1.927  25.050  0.00  0.00    +0.191 C 
ATOM     13  C   UNL     1      -3.820   4.238  24.470  0.00  0.00    +0.133 C 
ATOM     14  C   UNL     1      -5.062   1.028  25.338  0.00  0.00    +0.235 C 
ATOM     15  C   UNL     1      -3.753   3.385  23.219  0.00  0.00    +0.183 C 
ATOM     16  C   UNL     1      -6.233   1.928  25.015  0.00  0.00    +0.207 C 
ENDROOT
BRANCH  13   9
ATOM      9  N   UNL     1      -2.453   4.652  24.869  0.00  0.00    -0.182 NA
ATOM     40  H   UNL     1      -2.337   5.633  25.151  0.00  0.00    +0.148 HD
BRANCH   9   1
ATOM      1  S   UNL     1      -1.108   3.799  24.282  0.00  0.00    +0.059 S 
ATOM      5  O   UNL     1      -0.140   4.735  23.742  0.00  0.00    -0.153 OA
ATOM      6  O   UNL     1      -1.575   2.688  23.476  0.00  0.00    -0.153 OA
BRANCH   1  17
ATOM     17  C   UNL     1      -0.435   3.113  25.764  0.00  0.00    +0.106 A 
ATOM     19  C   UNL     1       0.713   3.668  26.332  0.00  0.00    +0.037 A 
ATOM     20  C   UNL     1      -1.048   2.017  26.365  0.00  0.00    +0.029 A 
ATOM     21  C   UNL     1       1.261   3.134  27.509  0.00  0.00    -0.016 A 
ATOM     22  C   UNL     1      -0.518   1.475  27.536  0.00  0.00    +0.010 A 
ATOM     23  C   UNL     1       0.636   2.020  28.120  0.00  0.00    -0.018 A 
ATOM     25  C   UNL     1       2.414   3.681  28.095  0.00  0.00    +0.008 A 
ATOM     26  C   UNL     1       1.185   1.486  29.298  0.00  0.00    +0.008 A 
ATOM     27  C   UNL     1       2.945   3.137  29.265  0.00  0.00    +0.001 A 
ATOM     30  C   UNL     1       2.331   2.042  29.865  0.00  0.00    +0.001 A 
ENDBRANCH   1  17
ENDBRANCH   9   1
ENDBRANCH  13   9
BRANCH  14   4
ATOM      4  O   UNL     1      -5.072  -0.152  24.566  0.00  0.00    -0.442 OA
BRANCH   4  18
ATOM      7  O   UNL     1      -4.000  -2.133  24.960  0.00  0.00    -0.226 OA
ATOM     10  N   UNL     1      -2.833  -0.215  24.298  0.00  0.00    -0.251 N 
ATOM     18  C   UNL     1      -3.950  -0.952  24.637  0.00  0.00    +0.405 C 
ATOM     41  H   UNL     1      -2.994   0.760  24.056  0.00  0.00    +0.158 HD
BRANCH  10  24
ATOM     24  C   UNL     1      -1.489  -0.647  24.241  0.00  0.00    +0.037 A 
ATOM     28  C   UNL     1      -1.029  -1.615  25.134  0.00  0.00    +0.027 A 
ATOM     29  C   UNL     1      -0.621  -0.107  23.291  0.00  0.00    +0.027 A 
ATOM     31  C   UNL     1       0.298  -2.043  25.077  0.00  0.00    +0.048 A 
ATOM     32  C   UNL     1       0.705  -0.534  23.234  0.00  0.00    +0.048 A 
ATOM     33  C   UNL     1       1.164  -1.502  24.127  0.00  0.00    +0.129 A 
BRANCH  33   8
ATOM      8  O   UNL     1       2.458  -1.922  24.071  0.00  0.00    -0.456 OA
BRANCH   8  34
ATOM     34  C   UNL     1       3.423  -0.987  23.732  0.00  0.00    +0.128 A 
ATOM     35  C   UNL     1       4.749  -1.185  24.115  0.00  0.00    +0.046 A 
ATOM     36  C   UNL     1       3.068   0.152  23.009  0.00  0.00    +0.046 A 
ATOM     37  C   UNL     1       5.722  -0.244  23.774  0.00  0.00    +0.004 A 
ATOM     38  C   UNL     1       4.040   1.092  22.668  0.00  0.00    +0.004 A 
ATOM     39  C   UNL     1       5.366   0.894  23.051  0.00  0.00    +0.000 A 
ENDBRANCH   8  34
ENDBRANCH  33   8
ENDBRANCH  10  24
ENDBRANCH   4  18
ENDBRANCH  14   4
TORSDOF 8
ENDMDL
MODEL 4
REMARK VINA RESULT:       9.6      2.596      4.578
REMARK  Name = 11884043
REMARK  8 active torsions:
REMARK  status: ('A' for Active; 'I' for Inactive)
REMARK    1  A    between atoms: S_1  and  N_9
REMARK    2  A    between atoms: S_1  and  C_17
REMARK    3  A    between atoms: O_4  and  C_14
REMARK    4  A    between atoms: O_4  and  C_18
REMARK    5  A    between atoms: O_8  and  C_33
REMARK    6  A    between atoms: O_8  and  C_34
REMARK    7  A    between atoms: N_9  and  C_13
REMARK    8  A    between atoms: N_10  and  C_24
REMARK                            x       y       z     vdW  Elec       q    Type
REMARK                         _______ _______ _______ _____ _____    ______ ____
ROOT
ATOM      2  O   UNL     1      -3.321   1.636  24.421  0.00  0.00    -0.369 OA
ATOM      3  O   UNL     1      -6.175   2.598  25.045  0.00  0.00    -0.368 OA
ATOM     11  C   UNL     1      -4.885   3.055  25.503  0.00  0.00    +0.171 C 
ATOM     12  C   UNL     1      -4.015   1.825  25.665  0.00  0.00    +0.191 C 
ATOM     13  C   UNL     1      -4.203   3.842  24.411  0.00  0.00    +0.133 C 
ATOM     14  C   UNL     1      -5.029   0.734  25.911  0.00  0.00    +0.235 C 
ATOM     15  C   UNL     1      -3.567   2.760  23.563  0.00  0.00    +0.183 C 
ATOM     16  C   UNL     1      -6.177   1.163  25.026  0.00  0.00    +0.207 C 
ENDROOT
BRANCH  13   9
ATOM      9  N   UNL     1      -3.148   4.707  24.995  0.00  0.00    -0.182 NA
ATOM     40  H   UNL     1      -3.439   5.648  25.288  0.00  0.00    +0.148 HD
BRANCH   9   1
ATOM      1  S   UNL     1      -1.520   4.432  24.602  0.00  0.00    +0.059 S 
ATOM      5  O   UNL     1      -0.862   5.701  24.353  0.00  0.00    -0.153 OA
ATOM      6  O   UNL     1      -1.450   3.370  23.618  0.00  0.00    -0.153 OA
BRANCH   1  17
ATOM     17  C   UNL     1      -0.885   3.776  26.115  0.00  0.00    +0.106 A 
ATOM     19  C   UNL     1       0.492   3.642  26.294  0.00  0.00    +0.037 A 
ATOM     20  C   UNL     1      -1.759   3.392  27.128  0.00  0.00    +0.029 A 
ATOM     21  C   UNL     1       1.013   3.122  27.490  0.00  0.00    -0.016 A 
ATOM     22  C   UNL     1      -1.259   2.874  28.323  0.00  0.00    +0.010 A 
ATOM     23  C   UNL     1       0.124   2.732  28.520  0.00  0.00    -0.018 A 
ATOM     25  C   UNL     1       2.396   2.982  27.687  0.00  0.00    +0.008 A 
ATOM     26  C   UNL     1       0.645   2.211  29.716  0.00  0.00    +0.008 A 
ATOM     27  C   UNL     1       2.896   2.461  28.881  0.00  0.00    +0.001 A 
ATOM     30  C   UNL     1       2.022   2.078  29.894  0.00  0.00    +0.001 A 
ENDBRANCH   1  17
ENDBRANCH   9   1
ENDBRANCH  13   9
BRANCH  14   4
ATOM      4  O   UNL     1      -4.560  -0.555  25.585  0.00  0.00    -0.442 OA
BRANCH   4  18
ATOM      7  O   UNL     1      -3.967  -0.981  23.418  0.00  0.00    -0.226 OA
ATOM     10  N   UNL     1      -2.393  -0.303  25.013  0.00  0.00    -0.251 N 
ATOM     18  C   UNL     1      -3.649  -0.644  24.553  0.00  0.00    +0.405 C 
ATOM     41  H   UNL     1      -2.328  -0.048  25.995  0.00  0.00    +0.158 HD
BRANCH  10  24
ATOM     24  C   UNL     1      -1.181  -0.262  24.286  0.00  0.00    +0.037 A 
ATOM     28  C   UNL     1      -0.825  -1.330  23.463  0.00  0.00    +0.027 A 
ATOM     29  C   UNL     1      -0.342   0.848  24.390  0.00  0.00    +0.027 A 
ATOM     31  C   UNL     1       0.371  -1.289  22.745  0.00  0.00    +0.048 A 
ATOM     32  C   UNL     1       0.852   0.889  23.673  0.00  0.00    +0.048 A 
ATOM     33  C   UNL     1       1.209  -0.179  22.850  0.00  0.00    +0.129 A 
BRANCH  33   8
ATOM      8  O   UNL     1       2.374  -0.139  22.147  0.00  0.00    -0.456 OA
BRANCH   8  34
ATOM     34  C   UNL     1       3.559  -0.191  22.863  0.00  0.00    +0.128 A 
ATOM     35  C   UNL     1       3.936  -1.373  23.500  0.00  0.00    +0.046 A 
ATOM     36  C   UNL     1       4.375   0.937  22.945  0.00  0.00    +0.046 A 
ATOM     37  C   UNL     1       5.129  -1.427  24.221  0.00  0.00    +0.004 A 
ATOM     38  C   UNL     1       5.568   0.883  23.666  0.00  0.00    +0.004 A 
ATOM     39  C   UNL     1       5.945  -0.299  24.303  0.00  0.00    +0.000 A 
ENDBRANCH   8  34
ENDBRANCH  33   8
ENDBRANCH  10  24
ENDBRANCH   4  18
ENDBRANCH  14   4
TORSDOF 8
ENDMDL
