MODEL 1
REMARK VINA RESULT:      -0.0      0.000      0.000
REMARK  Name = 25314270
REMARK  6 active torsions:
REMARK  status: ('A' for Active; 'I' for Inactive)
REMARK    1  A    between atoms: O_3  and  C_11
REMARK    2  A    between atoms: N_7  and  C_10
REMARK    3  A    between atoms: N_8  and  C_12
REMARK    4  A    between atoms: N_8  and  C_20
REMARK    5  A    between atoms: C_20  and  C_22
REMARK    6  A    between atoms: C_21  and  C_23
REMARK                            x       y       z     vdW  Elec       q    Type
REMARK                         _______ _______ _______ _____ _____    ______ ____
ROOT
ATOM      1  O   UNL     1      -2.606  -0.834  23.253  0.00  0.00    -0.343 OA
ATOM      2  O   UNL     1      -4.489  -1.815  24.186  0.00  0.00    -0.347 OA
ATOM     10  C   UNL     1      -3.527   0.119  25.271  0.00  0.00    +0.143 C 
ATOM     11  C   UNL     1      -2.618  -0.791  26.132  0.00  0.00    +0.156 C 
ATOM     12  C   UNL     1      -1.617  -1.636  25.308  0.00  0.00    +0.116 C 
ATOM     13  C   UNL     1      -2.171  -2.025  23.918  0.00  0.00    +0.166 C 
ATOM     14  C   UNL     1      -3.842  -0.557  23.925  0.00  0.00    +0.270 C 
ATOM     15  C   UNL     1      -3.473  -2.805  23.964  0.00  0.00    +0.196 C 
ENDROOT
BRANCH  10   7
ATOM      4  O   UNL     1      -2.147   6.265  24.995  0.00  0.00    -0.276 OA
ATOM      7  N   UNL     1      -2.891   1.416  25.042  0.00  0.00    -0.290 NA
ATOM      9  N   UNL     1      -1.804   3.993  25.356  0.00  0.00    -0.299 N 
ATOM     16  C   UNL     1      -1.617   1.534  25.747  0.00  0.00    +0.104 C 
ATOM     17  C   UNL     1      -3.807   2.528  25.338  0.00  0.00    +0.104 C 
ATOM     18  C   UNL     1      -0.918   2.825  25.315  0.00  0.00    +0.123 C 
ATOM     19  C   UNL     1      -3.128   3.772  25.925  0.00  0.00    +0.123 C 
ATOM     21  C   UNL     1      -1.413   5.274  24.966  0.00  0.00    +0.213 C 
ATOM     23  C   UNL     1       0.009   5.412  24.477  0.00  0.00    +0.109 C 
ENDBRANCH  10   7
BRANCH  11   3
ATOM      3  O   UNL     1      -3.470  -1.681  26.868  0.00  0.00    -0.388 OA
ATOM     31  H   UNL     1      -3.733  -2.401  26.268  0.00  0.00    +0.210 HD
ENDBRANCH  11   3
BRANCH  12   8
ATOM      8  N   UNL     1      -0.362  -0.900  25.110  0.00  0.00    -0.305 NA
ATOM     30  H   UNL     1      -0.465   0.068  25.415  0.00  0.00    +0.123 HD
BRANCH   8  20
ATOM     20  C   UNL     1       0.024  -0.920  23.710  0.00  0.00    +0.116 C 
BRANCH  20  22
ATOM      5  O   UNL     1       4.940  -1.482  23.830  0.00  0.00    -0.453 OA
ATOM      6  O   UNL     1       5.334   0.751  23.011  0.00  0.00    -0.453 OA
ATOM     22  C   UNL     1       1.437  -0.438  23.512  0.00  0.00    -0.030 A 
ATOM     24  C   UNL     1       2.506  -1.288  23.802  0.00  0.00    +0.054 A 
ATOM     25  C   UNL     1       1.667   0.864  23.035  0.00  0.00    +0.009 A 
ATOM     26  C   UNL     1       3.782  -0.803  23.603  0.00  0.00    +0.167 A 
ATOM     27  C   UNL     1       2.969   1.331  22.841  0.00  0.00    +0.050 A 
ATOM     28  C   UNL     1       4.008   0.472  23.135  0.00  0.00    +0.166 A 
ATOM     29  C   UNL     1       5.919  -0.492  23.452  0.00  0.00    +0.466 C 
ENDBRANCH  20  22
ENDBRANCH   8  20
ENDBRANCH  12   8
TORSDOF 5
ENDMDL
MODEL 2
REMARK VINA RESULT:       0.5      2.030      6.755
REMARK  Name = 25314270
REMARK  6 active torsions:
REMARK  status: ('A' for Active; 'I' for Inactive)
REMARK    1  A    between atoms: O_3  and  C_11
REMARK    2  A    between atoms: N_7  and  C_10
REMARK    3  A    between atoms: N_8  and  C_12
REMARK    4  A    between atoms: N_8  and  C_20
REMARK    5  A    between atoms: C_20  and  C_22
REMARK    6  A    between atoms: C_21  and  C_23
REMARK                            x       y       z     vdW  Elec       q    Type
REMARK                         _______ _______ _______ _____ _____    ______ ____
ROOT
ATOM      1  O   UNL     1      -0.680  -1.404  25.366  0.00  0.00    -0.343 OA
ATOM      2  O   UNL     1      -2.451  -1.569  23.877  0.00  0.00    -0.347 OA
ATOM     10  C   UNL     1      -0.540  -0.220  23.267  0.00  0.00    +0.143 C 
ATOM     11  C   UNL     1      -1.189   1.028  23.911  0.00  0.00    +0.156 C 
ATOM     12  C   UNL     1      -1.427   0.894  25.435  0.00  0.00    +0.116 C 
ATOM     13  C   UNL     1      -1.725  -0.561  25.863  0.00  0.00    +0.166 C 
ATOM     14  C   UNL     1      -1.018  -1.500  23.975  0.00  0.00    +0.270 C 
ATOM     15  C   UNL     1      -2.928  -1.178  25.173  0.00  0.00    +0.196 C 
ENDROOT
BRANCH  10   7
ATOM      4  O   UNL     1       5.630  -0.359  21.974  0.00  0.00    -0.276 OA
ATOM      7  N   UNL     1       0.919  -0.131  23.325  0.00  0.00    -0.290 NA
ATOM      9  N   UNL     1       3.620   0.466  22.802  0.00  0.00    -0.299 N 
ATOM     16  C   UNL     1       1.375   1.232  23.585  0.00  0.00    +0.104 C 
ATOM     17  C   UNL     1       1.545  -0.719  22.131  0.00  0.00    +0.104 C 
ATOM     18  C   UNL     1       2.887   1.222  23.824  0.00  0.00    +0.123 C 
ATOM     19  C   UNL     1       2.830  -0.016  21.675  0.00  0.00    +0.123 C 
ATOM     21  C   UNL     1       5.001   0.274  22.826  0.00  0.00    +0.213 C 
ATOM     23  C   UNL     1       5.736   0.893  23.990  0.00  0.00    +0.109 C 
ENDBRANCH  10   7
BRANCH  11   3
ATOM      3  O   UNL     1      -2.455   1.238  23.268  0.00  0.00    -0.388 OA
ATOM     31  H   UNL     1      -2.318   1.143  22.309  0.00  0.00    +0.210 HD
ENDBRANCH  11   3
BRANCH  12   8
ATOM      8  N   UNL     1      -0.254   1.360  26.182  0.00  0.00    -0.305 NA
ATOM     30  H   UNL     1      -0.198   0.890  27.086  0.00  0.00    +0.123 HD
BRANCH   8  20
ATOM     20  C   UNL     1      -0.321   2.795  26.394  0.00  0.00    +0.116 C 
BRANCH  20  22
ATOM      5  O   UNL     1      -5.254   3.186  26.331  0.00  0.00    -0.453 OA
ATOM      6  O   UNL     1      -5.216   4.880  24.616  0.00  0.00    -0.453 OA
ATOM     22  C   UNL     1      -1.617   3.376  25.892  0.00  0.00    -0.030 A 
ATOM     24  C   UNL     1      -2.828   2.930  26.426  0.00  0.00    +0.054 A 
ATOM     25  C   UNL     1      -1.594   4.363  24.892  0.00  0.00    +0.009 A 
ATOM     26  C   UNL     1      -3.989   3.493  25.936  0.00  0.00    +0.167 A 
ATOM     27  C   UNL     1      -2.784   4.917  24.413  0.00  0.00    +0.050 A 
ATOM     28  C   UNL     1      -3.968   4.460  24.956  0.00  0.00    +0.166 A 
ATOM     29  C   UNL     1      -6.027   4.069  25.492  0.00  0.00    +0.466 C 
ENDBRANCH  20  22
ENDBRANCH   8  20
ENDBRANCH  12   8
TORSDOF 5
ENDMDL
MODEL 3
REMARK VINA RESULT:       0.7      2.158      5.433
REMARK  Name = 25314270
REMARK  6 active torsions:
REMARK  status: ('A' for Active; 'I' for Inactive)
REMARK    1  A    between atoms: O_3  and  C_11
REMARK    2  A    between atoms: N_7  and  C_10
REMARK    3  A    between atoms: N_8  and  C_12
REMARK    4  A    between atoms: N_8  and  C_20
REMARK    5  A    between atoms: C_20  and  C_22
REMARK    6  A    between atoms: C_21  and  C_23
REMARK                            x       y       z     vdW  Elec       q    Type
REMARK                         _______ _______ _______ _____ _____    ______ ____
ROOT
ATOM      1  O   UNL     1      -5.115   2.890  26.494  0.00  0.00    -0.343 OA
ATOM      2  O   UNL     1      -6.281   4.205  24.980  0.00  0.00    -0.347 OA
ATOM     10  C   UNL     1      -4.591   2.691  24.146  0.00  0.00    +0.143 C 
ATOM     11  C   UNL     1      -3.510   3.791  24.280  0.00  0.00    +0.156 C 
ATOM     12  C   UNL     1      -3.286   4.275  25.733  0.00  0.00    +0.116 C 
ATOM     13  C   UNL     1      -4.574   4.213  26.585  0.00  0.00    +0.166 C 
ATOM     14  C   UNL     1      -5.705   2.904  25.187  0.00  0.00    +0.270 C 
ATOM     15  C   UNL     1      -5.730   5.022  26.024  0.00  0.00    +0.196 C 
ENDROOT
BRANCH  10   7
ATOM      4  O   UNL     1      -3.588  -3.448  25.174  0.00  0.00    -0.276 OA
ATOM      7  N   UNL     1      -3.999   1.363  24.311  0.00  0.00    -0.290 NA
ATOM      9  N   UNL     1      -3.411  -1.382  24.121  0.00  0.00    -0.299 N 
ATOM     16  C   UNL     1      -3.369   0.888  23.082  0.00  0.00    +0.104 C 
ATOM     17  C   UNL     1      -4.969   0.403  24.858  0.00  0.00    +0.104 C 
ATOM     18  C   UNL     1      -2.610  -0.409  23.372  0.00  0.00    +0.123 C 
ATOM     19  C   UNL     1      -4.810  -1.030  24.335  0.00  0.00    +0.123 C 
ATOM     21  C   UNL     1      -2.926  -2.621  24.544  0.00  0.00    +0.213 C 
ATOM     23  C   UNL     1      -1.490  -2.924  24.192  0.00  0.00    +0.109 C 
ENDBRANCH  10   7
BRANCH  11   3
ATOM      3  O   UNL     1      -3.932   4.910  23.485  0.00  0.00    -0.388 OA
ATOM     31  H   UNL     1      -4.104   5.652  24.090  0.00  0.00    +0.210 HD
ENDBRANCH  11   3
BRANCH  12   8
ATOM      8  N   UNL     1      -2.260   3.461  26.395  0.00  0.00    -0.305 NA
ATOM     30  H   UNL     1      -2.220   3.678  27.391  0.00  0.00    +0.123 HD
BRANCH   8  20
ATOM     20  C   UNL     1      -0.957   3.703  25.802  0.00  0.00    +0.116 C 
BRANCH  20  22
ATOM      5  O   UNL     1       2.133   1.280  22.789  0.00  0.00    -0.453 OA
ATOM      6  O   UNL     1       1.302  -0.875  23.477  0.00  0.00    -0.453 OA
ATOM     22  C   UNL     1      -0.374   2.453  25.197  0.00  0.00    -0.030 A 
ATOM     24  C   UNL     1       0.643   2.553  24.246  0.00  0.00    +0.054 A 
ATOM     25  C   UNL     1      -0.860   1.197  25.598  0.00  0.00    +0.009 A 
ATOM     26  C   UNL     1       1.147   1.380  23.722  0.00  0.00    +0.167 A 
ATOM     27  C   UNL     1      -0.332   0.024  25.052  0.00  0.00    +0.050 A 
ATOM     28  C   UNL     1       0.672   0.149  24.114  0.00  0.00    +0.166 A 
ATOM     29  C   UNL     1       2.227  -0.151  22.639  0.00  0.00    +0.466 C 
ENDBRANCH  20  22
ENDBRANCH   8  20
ENDBRANCH  12   8
TORSDOF 5
ENDMDL
MODEL 4
REMARK VINA RESULT:       1.7      1.988      5.079
REMARK  Name = 25314270
REMARK  6 active torsions:
REMARK  status: ('A' for Active; 'I' for Inactive)
REMARK    1  A    between atoms: O_3  and  C_11
REMARK    2  A    between atoms: N_7  and  C_10
REMARK    3  A    between atoms: N_8  and  C_12
REMARK    4  A    between atoms: N_8  and  C_20
REMARK    5  A    between atoms: C_20  and  C_22
REMARK    6  A    between atoms: C_21  and  C_23
REMARK                            x       y       z     vdW  Elec       q    Type
REMARK                         _______ _______ _______ _____ _____    ______ ____
ROOT
ATOM      1  O   UNL     1      -4.149   2.513  26.421  0.00  0.00    -0.343 OA
ATOM      2  O   UNL     1      -5.848   3.735  25.421  0.00  0.00    -0.347 OA
ATOM     10  C   UNL     1      -4.546   2.222  24.057  0.00  0.00    +0.143 C 
ATOM     11  C   UNL     1      -3.536   3.349  23.734  0.00  0.00    +0.156 C 
ATOM     12  C   UNL     1      -2.796   3.902  24.976  0.00  0.00    +0.116 C 
ATOM     13  C   UNL     1      -3.662   3.850  26.256  0.00  0.00    +0.166 C 
ATOM     14  C   UNL     1      -5.190   2.456  25.435  0.00  0.00    +0.270 C 
ATOM     15  C   UNL     1      -4.973   4.608  26.150  0.00  0.00    +0.196 C 
ENDROOT
BRANCH  10   7
ATOM      4  O   UNL     1      -1.024  -2.856  25.304  0.00  0.00    -0.276 OA
ATOM      7  N   UNL     1      -3.888   0.916  24.028  0.00  0.00    -0.290 NA
ATOM      9  N   UNL     1      -2.906  -1.638  24.689  0.00  0.00    -0.299 N 
ATOM     16  C   UNL     1      -4.849  -0.182  24.103  0.00  0.00    +0.104 C 
ATOM     17  C   UNL     1      -2.835   0.817  25.049  0.00  0.00    +0.104 C 
ATOM     18  C   UNL     1      -4.119  -1.508  23.875  0.00  0.00    +0.123 C 
ATOM     19  C   UNL     1      -2.675  -0.579  25.665  0.00  0.00    +0.123 C 
ATOM     21  C   UNL     1      -2.046  -2.735  24.626  0.00  0.00    +0.213 C 
ATOM     23  C   UNL     1      -2.427  -3.818  23.646  0.00  0.00    +0.109 C 
ENDBRANCH  10   7
BRANCH  11   3
ATOM      3  O   UNL     1      -4.267   4.423  23.124  0.00  0.00    -0.388 OA
ATOM     31  H   UNL     1      -4.034   5.243  23.593  0.00  0.00    +0.210 HD
ENDBRANCH  11   3
BRANCH  12   8
ATOM      8  N   UNL     1      -1.567   3.139  25.225  0.00  0.00    -0.305 NA
ATOM     30  H   UNL     1      -1.207   3.338  26.159  0.00  0.00    +0.123 HD
BRANCH   8  20
ATOM     20  C   UNL     1      -0.552   3.474  24.242  0.00  0.00    +0.116 C 
BRANCH  20  22
ATOM      5  O   UNL     1       3.682   1.203  23.058  0.00  0.00    -0.453 OA
ATOM      6  O   UNL     1       2.595  -0.928  22.764  0.00  0.00    -0.453 OA
ATOM     22  C   UNL     1       0.262   2.272  23.844  0.00  0.00    -0.030 A 
ATOM     24  C   UNL     1       1.639   2.400  23.651  0.00  0.00    +0.054 A 
ATOM     25  C   UNL     1      -0.372   1.029  23.672  0.00  0.00    +0.009 A 
ATOM     26  C   UNL     1       2.343   1.270  23.289  0.00  0.00    +0.167 A 
ATOM     27  C   UNL     1       0.363  -0.100  23.306  0.00  0.00    +0.050 A 
ATOM     28  C   UNL     1       1.722   0.053  23.121  0.00  0.00    +0.166 A 
ATOM     29  C   UNL     1       3.836  -0.193  22.727  0.00  0.00    +0.466 C 
ENDBRANCH  20  22
ENDBRANCH   8  20
ENDBRANCH  12   8
TORSDOF 5
ENDMDL
MODEL 5
REMARK VINA RESULT:       1.8      2.994      4.401
REMARK  Name = 25314270
REMARK  6 active torsions:
REMARK  status: ('A' for Active; 'I' for Inactive)
REMARK    1  A    between atoms: O_3  and  C_11
REMARK    2  A    between atoms: N_7  and  C_10
REMARK    3  A    between atoms: N_8  and  C_12
REMARK    4  A    between atoms: N_8  and  C_20
REMARK    5  A    between atoms: C_20  and  C_22
REMARK    6  A    between atoms: C_21  and  C_23
REMARK                            x       y       z     vdW  Elec       q    Type
REMARK                         _______ _______ _______ _____ _____    ______ ____
ROOT
ATOM      1  O   UNL     1      -2.096  -1.031  23.618  0.00  0.00    -0.343 OA
ATOM      2  O   UNL     1      -3.222  -3.057  23.701  0.00  0.00    -0.347 OA
ATOM     10  C   UNL     1      -4.004  -1.235  25.084  0.00  0.00    +0.143 C 
ATOM     11  C   UNL     1      -3.083  -1.691  26.241  0.00  0.00    +0.156 C 
ATOM     12  C   UNL     1      -1.575  -1.643  25.898  0.00  0.00    +0.116 C 
ATOM     13  C   UNL     1      -1.297  -1.922  24.403  0.00  0.00    +0.166 C 
ATOM     14  C   UNL     1      -3.395  -1.630  23.726  0.00  0.00    +0.270 C 
ATOM     15  C   UNL     1      -1.818  -3.262  23.914  0.00  0.00    +0.196 C 
ENDROOT
BRANCH  10   7
ATOM      4  O   UNL     1      -4.298   4.930  23.796  0.00  0.00    -0.276 OA
ATOM      7  N   UNL     1      -4.218   0.211  25.134  0.00  0.00    -0.290 NA
ATOM      9  N   UNL     1      -5.005   2.854  24.570  0.00  0.00    -0.299 N 
ATOM     16  C   UNL     1      -5.629   0.550  25.303  0.00  0.00    +0.104 C 
ATOM     17  C   UNL     1      -3.607   0.889  23.981  0.00  0.00    +0.104 C 
ATOM     18  C   UNL     1      -5.762   2.056  25.540  0.00  0.00    +0.123 C 
ATOM     19  C   UNL     1      -4.384   2.113  23.478  0.00  0.00    +0.123 C 
ATOM     21  C   UNL     1      -4.931   4.247  24.604  0.00  0.00    +0.213 C 
ATOM     23  C   UNL     1      -5.685   4.922  25.724  0.00  0.00    +0.109 C 
ENDBRANCH  10   7
BRANCH  11   3
ATOM      3  O   UNL     1      -3.435  -3.045  26.565  0.00  0.00    -0.388 OA
ATOM     31  H   UNL     1      -3.984  -3.023  27.368  0.00  0.00    +0.210 HD
ENDBRANCH  11   3
BRANCH  12   8
ATOM      8  N   UNL     1      -1.013  -0.329  26.229  0.00  0.00    -0.305 NA
ATOM     30  H   UNL     1      -1.759   0.339  26.424  0.00  0.00    +0.123 HD
BRANCH   8  20
ATOM     20  C   UNL     1      -0.202   0.170  25.132  0.00  0.00    +0.116 C 
BRANCH  20  22
ATOM      5  O   UNL     1      -2.258   4.552  26.164  0.00  0.00    -0.453 OA
ATOM      6  O   UNL     1      -0.905   5.704  24.535  0.00  0.00    -0.453 OA
ATOM     22  C   UNL     1      -0.366   1.655  24.945  0.00  0.00    -0.030 A 
ATOM     24  C   UNL     1      -1.297   2.353  25.717  0.00  0.00    +0.054 A 
ATOM     25  C   UNL     1       0.423   2.326  23.994  0.00  0.00    +0.009 A 
ATOM     26  C   UNL     1      -1.410   3.712  25.511  0.00  0.00    +0.167 A 
ATOM     27  C   UNL     1       0.290   3.704  23.805  0.00  0.00    +0.050 A 
ATOM     28  C   UNL     1      -0.637   4.370  24.580  0.00  0.00    +0.166 A 
ATOM     29  C   UNL     1      -1.932   5.812  25.542  0.00  0.00    +0.466 C 
ENDBRANCH  20  22
ENDBRANCH   8  20
ENDBRANCH  12   8
TORSDOF 5
ENDMDL
MODEL 6
REMARK VINA RESULT:       1.9      2.706      6.010
REMARK  Name = 25314270
REMARK  6 active torsions:
REMARK  status: ('A' for Active; 'I' for Inactive)
REMARK    1  A    between atoms: O_3  and  C_11
REMARK    2  A    between atoms: N_7  and  C_10
REMARK    3  A    between atoms: N_8  and  C_12
REMARK    4  A    between atoms: N_8  and  C_20
REMARK    5  A    between atoms: C_20  and  C_22
REMARK    6  A    between atoms: C_21  and  C_23
REMARK                            x       y       z     vdW  Elec       q    Type
REMARK                         _______ _______ _______ _____ _____    ______ ____
ROOT
ATOM      1  O   UNL     1      -2.012  -1.053  25.893  0.00  0.00    -0.343 OA
ATOM      2  O   UNL     1      -0.176  -2.444  25.615  0.00  0.00    -0.347 OA
ATOM     10  C   UNL     1      -0.257  -0.365  24.384  0.00  0.00    +0.143 C 
ATOM     11  C   UNL     1      -0.975  -1.065  23.206  0.00  0.00    +0.156 C 
ATOM     12  C   UNL     1      -2.359  -1.653  23.576  0.00  0.00    +0.116 C 
ATOM     13  C   UNL     1      -2.427  -2.131  25.045  0.00  0.00    +0.166 C 
ATOM     14  C   UNL     1      -0.589  -1.070  25.712  0.00  0.00    +0.270 C 
ATOM     15  C   UNL     1      -1.391  -3.180  25.407  0.00  0.00    +0.196 C 
ENDROOT
BRANCH  10   7
ATOM      4  O   UNL     1      -2.238   5.323  26.252  0.00  0.00    -0.276 OA
ATOM      7  N   UNL     1      -0.641   1.045  24.458  0.00  0.00    -0.290 NA
ATOM      9  N   UNL     1      -0.889   3.750  25.196  0.00  0.00    -0.299 N 
ATOM     16  C   UNL     1       0.482   1.934  24.166  0.00  0.00    +0.104 C 
ATOM     17  C   UNL     1      -1.297   1.362  25.735  0.00  0.00    +0.104 C 
ATOM     18  C   UNL     1      -0.027   3.374  24.071  0.00  0.00    +0.123 C 
ATOM     19  C   UNL     1      -1.003   2.769  26.269  0.00  0.00    +0.123 C 
ATOM     21  C   UNL     1      -1.511   4.994  25.312  0.00  0.00    +0.213 C 
ATOM     23  C   UNL     1      -1.254   5.969  24.189  0.00  0.00    +0.109 C 
ENDBRANCH  10   7
BRANCH  11   3
ATOM      3  O   UNL     1      -0.129  -2.135  22.760  0.00  0.00    -0.388 OA
ATOM     31  H   UNL     1      -0.703  -2.844  22.420  0.00  0.00    +0.210 HD
ENDBRANCH  11   3
BRANCH  12   8
ATOM      8  N   UNL     1      -3.414  -0.655  23.370  0.00  0.00    -0.305 NA
ATOM     30  H   UNL     1      -3.011   0.279  23.293  0.00  0.00    +0.123 HD
BRANCH   8  20
ATOM     20  C   UNL     1      -4.358  -0.677  24.474  0.00  0.00    +0.116 C 
BRANCH  20  22
ATOM      5  O   UNL     1      -4.329   4.252  24.032  0.00  0.00    -0.453 OA
ATOM      6  O   UNL     1      -5.944   4.539  25.798  0.00  0.00    -0.453 OA
ATOM     22  C   UNL     1      -4.805   0.709  24.857  0.00  0.00    -0.030 A 
ATOM     24  C   UNL     1      -4.283   1.816  24.184  0.00  0.00    +0.054 A 
ATOM     25  C   UNL     1      -5.746   0.876  25.888  0.00  0.00    +0.009 A 
ATOM     26  C   UNL     1      -4.724   3.066  24.568  0.00  0.00    +0.167 A 
ATOM     27  C   UNL     1      -6.177   2.153  26.258  0.00  0.00    +0.050 A 
ATOM     28  C   UNL     1      -5.646   3.230  25.578  0.00  0.00    +0.166 A 
ATOM     29  C   UNL     1      -5.106   5.182  24.815  0.00  0.00    +0.466 C 
ENDBRANCH  20  22
ENDBRANCH   8  20
ENDBRANCH  12   8
TORSDOF 5
ENDMDL
MODEL 7
REMARK VINA RESULT:       2.2      2.791      6.737
REMARK  Name = 25314270
REMARK  6 active torsions:
REMARK  status: ('A' for Active; 'I' for Inactive)
REMARK    1  A    between atoms: O_3  and  C_11
REMARK    2  A    between atoms: N_7  and  C_10
REMARK    3  A    between atoms: N_8  and  C_12
REMARK    4  A    between atoms: N_8  and  C_20
REMARK    5  A    between atoms: C_20  and  C_22
REMARK    6  A    between atoms: C_21  and  C_23
REMARK                            x       y       z     vdW  Elec       q    Type
REMARK                         _______ _______ _______ _____ _____    ______ ____
ROOT
ATOM      1  O   UNL     1      -1.877   4.069  23.594  0.00  0.00    -0.343 OA
ATOM      2  O   UNL     1      -1.432   5.711  25.171  0.00  0.00    -0.347 OA
ATOM     10  C   UNL     1      -1.791   3.441  25.924  0.00  0.00    +0.143 C 
ATOM     11  C   UNL     1      -3.309   3.706  26.067  0.00  0.00    +0.156 C 
ATOM     12  C   UNL     1      -4.010   4.065  24.734  0.00  0.00    +0.116 C 
ATOM     13  C   UNL     1      -3.081   4.827  23.760  0.00  0.00    +0.166 C 
ATOM     14  C   UNL     1      -1.190   4.336  24.825  0.00  0.00    +0.270 C 
ATOM     15  C   UNL     1      -2.516   6.119  24.324  0.00  0.00    +0.196 C 
ENDROOT
BRANCH  10   7
ATOM      4  O   UNL     1      -0.499  -2.039  23.087  0.00  0.00    -0.276 OA
ATOM      7  N   UNL     1      -1.539   2.034  25.616  0.00  0.00    -0.290 NA
ATOM      9  N   UNL     1      -0.410  -0.382  24.716  0.00  0.00    -0.299 N 
ATOM     16  C   UNL     1      -0.385   1.512  26.344  0.00  0.00    +0.104 C 
ATOM     17  C   UNL     1      -1.445   1.805  24.166  0.00  0.00    +0.104 C 
ATOM     18  C   UNL     1      -0.294  -0.001  26.128  0.00  0.00    +0.123 C 
ATOM     19  C   UNL     1      -0.445   0.716  23.758  0.00  0.00    +0.123 C 
ATOM     21  C   UNL     1      -0.402  -1.704  24.270  0.00  0.00    +0.213 C 
ATOM     23  C   UNL     1      -0.270  -2.763  25.338  0.00  0.00    +0.109 C 
ENDBRANCH  10   7
BRANCH  11   3
ATOM      3  O   UNL     1      -3.472   4.803  26.978  0.00  0.00    -0.388 OA
ATOM     31  H   UNL     1      -2.621   5.272  27.031  0.00  0.00    +0.210 HD
ENDBRANCH  11   3
BRANCH  12   8
ATOM      8  N   UNL     1      -4.484   2.852  24.058  0.00  0.00    -0.305 NA
ATOM     30  H   UNL     1      -5.065   3.095  23.256  0.00  0.00    +0.123 HD
BRANCH   8  20
ATOM     20  C   UNL     1      -5.254   2.027  24.973  0.00  0.00    +0.116 C 
BRANCH  20  22
ATOM      5  O   UNL     1      -4.316  -2.445  23.072  0.00  0.00    -0.453 OA
ATOM      6  O   UNL     1      -3.297  -3.228  25.111  0.00  0.00    -0.453 OA
ATOM     22  C   UNL     1      -4.719   0.622  25.046  0.00  0.00    -0.030 A 
ATOM     24  C   UNL     1      -4.816  -0.215  23.932  0.00  0.00    +0.054 A 
ATOM     25  C   UNL     1      -4.126   0.165  26.235  0.00  0.00    +0.009 A 
ATOM     26  C   UNL     1      -4.310  -1.494  24.045  0.00  0.00    +0.167 A 
ATOM     27  C   UNL     1      -3.621  -1.135  26.324  0.00  0.00    +0.050 A 
ATOM     28  C   UNL     1      -3.728  -1.942  25.210  0.00  0.00    +0.166 A 
ATOM     29  C   UNL     1      -3.672  -3.541  23.754  0.00  0.00    +0.466 C 
ENDBRANCH  20  22
ENDBRANCH   8  20
ENDBRANCH  12   8
TORSDOF 5
ENDMDL
MODEL 8
REMARK VINA RESULT:       2.4      2.453      5.176
REMARK  Name = 25314270
REMARK  6 active torsions:
REMARK  status: ('A' for Active; 'I' for Inactive)
REMARK    1  A    between atoms: O_3  and  C_11
REMARK    2  A    between atoms: N_7  and  C_10
REMARK    3  A    between atoms: N_8  and  C_12
REMARK    4  A    between atoms: N_8  and  C_20
REMARK    5  A    between atoms: C_20  and  C_22
REMARK    6  A    between atoms: C_21  and  C_23
REMARK                            x       y       z     vdW  Elec       q    Type
REMARK                         _______ _______ _______ _____ _____    ______ ____
ROOT
ATOM      1  O   UNL     1      -4.024   2.941  25.942  0.00  0.00    -0.343 OA
ATOM      2  O   UNL     1      -6.186   3.099  26.767  0.00  0.00    -0.347 OA
ATOM     10  C   UNL     1      -5.479   1.024  25.747  0.00  0.00    +0.143 C 
ATOM     11  C   UNL     1      -5.964   1.515  24.362  0.00  0.00    +0.156 C 
ATOM     12  C   UNL     1      -5.224   2.775  23.850  0.00  0.00    +0.116 C 
ATOM     13  C   UNL     1      -4.778   3.710  24.997  0.00  0.00    +0.166 C 
ATOM     14  C   UNL     1      -5.058   2.218  26.624  0.00  0.00    +0.270 C 
ATOM     15  C   UNL     1      -5.913   4.194  25.881  0.00  0.00    +0.196 C 
ENDROOT
BRANCH  10   7
ATOM      4  O   UNL     1      -1.354  -3.269  23.672  0.00  0.00    -0.276 OA
ATOM      7  N   UNL     1      -4.360   0.093  25.602  0.00  0.00    -0.290 NA
ATOM      9  N   UNL     1      -2.104  -1.306  24.667  0.00  0.00    -0.299 N 
ATOM     16  C   UNL     1      -3.069   0.775  25.655  0.00  0.00    +0.104 C 
ATOM     17  C   UNL     1      -4.508  -0.748  24.404  0.00  0.00    +0.104 C 
ATOM     18  C   UNL     1      -1.949  -0.267  25.691  0.00  0.00    +0.123 C 
ATOM     19  C   UNL     1      -3.187  -1.105  23.711  0.00  0.00    +0.123 C 
ATOM     21  C   UNL     1      -1.236  -2.390  24.527  0.00  0.00    +0.213 C 
ATOM     23  C   UNL     1      -0.094  -2.454  25.513  0.00  0.00    +0.109 C 
ENDBRANCH  10   7
BRANCH  11   3
ATOM      3  O   UNL     1      -7.361   1.823  24.478  0.00  0.00    -0.388 OA
ATOM     31  H   UNL     1      -7.822   1.007  24.742  0.00  0.00    +0.210 HD
ENDBRANCH  11   3
BRANCH  12   8
ATOM      8  N   UNL     1      -4.034   2.395  23.081  0.00  0.00    -0.305 NA
ATOM     30  H   UNL     1      -3.680   1.491  23.393  0.00  0.00    +0.123 HD
BRANCH   8  20
ATOM     20  C   UNL     1      -2.989   3.393  23.233  0.00  0.00    +0.116 C 
BRANCH  20  22
ATOM      5  O   UNL     1       0.475  -0.049  22.428  0.00  0.00    -0.453 OA
ATOM      6  O   UNL     1       2.001   0.949  24.004  0.00  0.00    -0.453 OA
ATOM     22  C   UNL     1      -1.641   2.762  23.466  0.00  0.00    -0.030 A 
ATOM     24  C   UNL     1      -1.287   1.607  22.766  0.00  0.00    +0.054 A 
ATOM     25  C   UNL     1      -0.752   3.344  24.385  0.00  0.00    +0.009 A 
ATOM     26  C   UNL     1      -0.041   1.067  23.011  0.00  0.00    +0.167 A 
ATOM     27  C   UNL     1       0.505   2.777  24.615  0.00  0.00    +0.050 A 
ATOM     28  C   UNL     1       0.831   1.636  23.911  0.00  0.00    +0.166 A 
ATOM     29  C   UNL     1       1.769  -0.118  23.060  0.00  0.00    +0.466 C 
ENDBRANCH  20  22
ENDBRANCH   8  20
ENDBRANCH  12   8
TORSDOF 5
ENDMDL
MODEL 9
REMARK VINA RESULT:       2.9      2.388      5.741
REMARK  Name = 25314270
REMARK  6 active torsions:
REMARK  status: ('A' for Active; 'I' for Inactive)
REMARK    1  A    between atoms: O_3  and  C_11
REMARK    2  A    between atoms: N_7  and  C_10
REMARK    3  A    between atoms: N_8  and  C_12
REMARK    4  A    between atoms: N_8  and  C_20
REMARK    5  A    between atoms: C_20  and  C_22
REMARK    6  A    between atoms: C_21  and  C_23
REMARK                            x       y       z     vdW  Elec       q    Type
REMARK                         _______ _______ _______ _____ _____    ______ ____
ROOT
ATOM      1  O   UNL     1      -4.728   3.012  24.005  0.00  0.00    -0.343 OA
ATOM      2  O   UNL     1      -4.752   5.307  24.346  0.00  0.00    -0.347 OA
ATOM     10  C   UNL     1      -2.794   4.052  25.009  0.00  0.00    +0.143 C 
ATOM     11  C   UNL     1      -3.389   3.829  26.420  0.00  0.00    +0.156 C 
ATOM     12  C   UNL     1      -4.709   3.020  26.422  0.00  0.00    +0.116 C 
ATOM     13  C   UNL     1      -5.553   3.257  25.149  0.00  0.00    +0.166 C 
ATOM     14  C   UNL     1      -3.920   4.197  23.968  0.00  0.00    +0.270 C 
ATOM     15  C   UNL     1      -5.927   4.710  24.913  0.00  0.00    +0.196 C 
ENDROOT
BRANCH  10   7
ATOM      4  O   UNL     1       0.140  -0.672  22.039  0.00  0.00    -0.276 OA
ATOM      7  N   UNL     1      -1.911   2.946  24.639  0.00  0.00    -0.290 NA
ATOM      9  N   UNL     1      -0.090   1.261  23.310  0.00  0.00    -0.299 N 
ATOM     16  C   UNL     1      -0.508   3.352  24.611  0.00  0.00    +0.104 C 
ATOM     17  C   UNL     1      -2.341   2.304  23.388  0.00  0.00    +0.104 C 
ATOM     18  C   UNL     1       0.371   2.115  24.409  0.00  0.00    +0.123 C 
ATOM     19  C   UNL     1      -1.193   1.786  22.513  0.00  0.00    +0.123 C 
ATOM     21  C   UNL     1       0.518   0.055  22.960  0.00  0.00    +0.213 C 
ATOM     23  C   UNL     1       1.709  -0.352  23.794  0.00  0.00    +0.109 C 
ENDBRANCH  10   7
BRANCH  11   3
ATOM      3  O   UNL     1      -3.645   5.122  26.990  0.00  0.00    -0.388 OA
ATOM     31  H   UNL     1      -3.028   5.753  26.580  0.00  0.00    +0.210 HD
ENDBRANCH  11   3
BRANCH  12   8
ATOM      8  N   UNL     1      -4.431   1.583  26.525  0.00  0.00    -0.305 NA
ATOM     30  H   UNL     1      -3.430   1.420  26.633  0.00  0.00    +0.123 HD
BRANCH   8  20
ATOM     20  C   UNL     1      -4.902   0.887  25.341  0.00  0.00    +0.116 C 
BRANCH  20  22
ATOM      5  O   UNL     1      -0.688  -1.695  25.597  0.00  0.00    -0.453 OA
ATOM      6  O   UNL     1      -1.502  -3.399  24.100  0.00  0.00    -0.453 OA
ATOM     22  C   UNL     1      -4.016  -0.277  24.985  0.00  0.00    -0.030 A 
ATOM     24  C   UNL     1      -2.731  -0.361  25.526  0.00  0.00    +0.054 A 
ATOM     25  C   UNL     1      -4.490  -1.270  24.111  0.00  0.00    +0.009 A 
ATOM     26  C   UNL     1      -1.957  -1.446  25.173  0.00  0.00    +0.167 A 
ATOM     27  C   UNL     1      -3.686  -2.360  23.769  0.00  0.00    +0.050 A 
ATOM     28  C   UNL     1      -2.421  -2.420  24.317  0.00  0.00    +0.166 A 
ATOM     29  C   UNL     1      -0.406  -2.934  24.915  0.00  0.00    +0.466 C 
ENDBRANCH  20  22
ENDBRANCH   8  20
ENDBRANCH  12   8
TORSDOF 5
ENDMDL
MODEL 10
REMARK VINA RESULT:       3.7      2.601      6.252
REMARK  Name = 25314270
REMARK  6 active torsions:
REMARK  status: ('A' for Active; 'I' for Inactive)
REMARK    1  A    between atoms: O_3  and  C_11
REMARK    2  A    between atoms: N_7  and  C_10
REMARK    3  A    between atoms: N_8  and  C_12
REMARK    4  A    between atoms: N_8  and  C_20
REMARK    5  A    between atoms: C_20  and  C_22
REMARK    6  A    between atoms: C_21  and  C_23
REMARK                            x       y       z     vdW  Elec       q    Type
REMARK                         _______ _______ _______ _____ _____    ______ ____
ROOT
ATOM      1  O   UNL     1      -0.304   1.227  23.090  0.00  0.00    -0.343 OA
ATOM      2  O   UNL     1       0.577  -0.805  22.401  0.00  0.00    -0.347 OA
ATOM     10  C   UNL     1      -1.136  -0.798  24.107  0.00  0.00    +0.143 C 
ATOM     11  C   UNL     1      -0.061  -0.700  25.216  0.00  0.00    +0.156 C 
ATOM     12  C   UNL     1       0.792   0.590  25.149  0.00  0.00    +0.116 C 
ATOM     13  C   UNL     1       0.985   1.100  23.702  0.00  0.00    +0.166 C 
ATOM     14  C   UNL     1      -0.631  -0.141  22.810  0.00  0.00    +0.270 C 
ATOM     15  C   UNL     1       1.634   0.093  22.769  0.00  0.00    +0.196 C 
ENDROOT
BRANCH  10   7
ATOM      4  O   UNL     1      -6.958   1.601  24.434  0.00  0.00    -0.276 OA
ATOM      7  N   UNL     1      -2.381  -0.162  24.538  0.00  0.00    -0.290 NA
ATOM      9  N   UNL     1      -5.080   0.402  25.102  0.00  0.00    -0.299 N 
ATOM     16  C   UNL     1      -3.008  -0.880  25.646  0.00  0.00    +0.104 C 
ATOM     17  C   UNL     1      -3.299   0.049  23.409  0.00  0.00    +0.104 C 
ATOM     18  C   UNL     1      -4.191  -0.064  26.171  0.00  0.00    +0.123 C 
ATOM     19  C   UNL     1      -4.785  -0.094  23.763  0.00  0.00    +0.123 C 
ATOM     21  C   UNL     1      -6.202   1.202  25.323  0.00  0.00    +0.213 C 
ATOM     23  C   UNL     1      -6.469   1.586  26.758  0.00  0.00    +0.109 C 
ENDBRANCH  10   7
BRANCH  11   3
ATOM      3  O   UNL     1       0.811  -1.832  25.073  0.00  0.00    -0.388 OA
ATOM     31  H   UNL     1       0.254  -2.626  24.998  0.00  0.00    +0.210 HD
ENDBRANCH  11   3
BRANCH  12   8
ATOM      8  N   UNL     1       0.167   1.662  25.932  0.00  0.00    -0.305 NA
ATOM     30  H   UNL     1      -0.754   1.372  26.261  0.00  0.00    +0.123 HD
BRANCH   8  20
ATOM     20  C   UNL     1       0.030   2.865  25.130  0.00  0.00    +0.116 C 
BRANCH  20  22
ATOM      5  O   UNL     1      -4.405   4.311  26.782  0.00  0.00    -0.453 OA
ATOM      6  O   UNL     1      -5.355   4.331  24.567  0.00  0.00    -0.453 OA
ATOM     22  C   UNL     1      -1.413   3.252  24.942  0.00  0.00    -0.030 A 
ATOM     24  C   UNL     1      -2.187   3.598  26.052  0.00  0.00    +0.054 A 
ATOM     25  C   UNL     1      -1.967   3.264  23.651  0.00  0.00    +0.009 A 
ATOM     26  C   UNL     1      -3.503   3.948  25.830  0.00  0.00    +0.167 A 
ATOM     27  C   UNL     1      -3.302   3.622  23.453  0.00  0.00    +0.050 A 
ATOM     28  C   UNL     1      -4.047   3.959  24.565  0.00  0.00    +0.166 A 
ATOM     29  C   UNL     1      -5.576   4.554  25.976  0.00  0.00    +0.466 C 
ENDBRANCH  20  22
ENDBRANCH   8  20
ENDBRANCH  12   8
TORSDOF 5
ENDMDL
