MODEL 1
REMARK VINA RESULT:       0.1      0.000      0.000
REMARK  Name = 45783419
REMARK  10 active torsions:
REMARK  status: ('A' for Active; 'I' for Inactive)
REMARK    1  A    between atoms: O_2  and  C_25
REMARK    2  A    between atoms: O_2  and  C_29
REMARK    3  A    between atoms: O_5  and  C_30
REMARK    4  A    between atoms: O_5  and  C_31
REMARK    5  A    between atoms: N_6  and  C_15
REMARK    6  A    between atoms: N_9  and  C_24
REMARK    7  A    between atoms: C_11  and  C_16
REMARK    8  A    between atoms: C_15  and  C_17
REMARK    9  A    between atoms: C_20  and  C_23
REMARK   10  A    between atoms: C_29  and  C_30
REMARK                            x       y       z     vdW  Elec       q    Type
REMARK                         _______ _______ _______ _____ _____    ______ ____
ROOT
ATOM      1  O   UNL     1      -0.565   3.018  25.880  0.00  0.00    -0.336 OA
ATOM      7  N   UNL     1      -0.535   2.740  23.658  0.00  0.00    -0.190 NA
ATOM      8  N   UNL     1       0.524   2.181  25.607  0.00  0.00    -0.056 NA
ATOM     16  C   UNL     1      -1.134   3.299  24.678  0.00  0.00    +0.245 A 
ATOM     20  C   UNL     1       0.476   2.064  24.276  0.00  0.00    +0.207 A 
ENDROOT
BRANCH  20  23
ATOM     10  N   UNL     1       1.935  -0.703  22.251  0.00  0.00    -0.221 NA
ATOM     23  C   UNL     1       1.422   1.279  23.536  0.00  0.00    +0.084 A 
ATOM     25  C   UNL     1       1.077   0.068  22.955  0.00  0.00    +0.226 A 
ATOM     26  C   UNL     1       2.729   1.726  23.384  0.00  0.00    +0.018 A 
ATOM     27  C   UNL     1       3.640   0.959  22.666  0.00  0.00    +0.021 A 
ATOM     28  C   UNL     1       3.196  -0.237  22.124  0.00  0.00    +0.114 A 
BRANCH  25   2
ATOM      2  O   UNL     1      -0.200  -0.415  23.079  0.00  0.00    -0.474 OA
BRANCH   2  29
ATOM     29  C   UNL     1      -0.342  -1.704  23.661  0.00  0.00    +0.258 C 
BRANCH  29  30
ATOM     30  C   UNL     1      -0.232  -1.582  25.168  0.00  0.00    +0.200 C 
BRANCH  30   5
ATOM      5  O   UNL     1      -1.078  -0.527  25.612  0.00  0.00    -0.380 OA
ATOM     31  C   UNL     1      -1.431  -0.682  26.979  0.00  0.00    +0.194 C 
ENDBRANCH  30   5
ENDBRANCH  29  30
ENDBRANCH   2  29
ENDBRANCH  25   2
ENDBRANCH  20  23
BRANCH  16  11
ATOM      6  N   UNL     1      -3.574   3.494  25.126  0.00  0.00    -0.287 NA
ATOM     11  C   UNL     1      -2.349   4.202  24.702  0.00  0.00    +0.146 C 
ATOM     12  C   UNL     1      -2.205   5.366  25.699  0.00  0.00    +0.030 C 
ATOM     13  C   UNL     1      -3.424   5.267  26.606  0.00  0.00    +0.017 C 
ATOM     14  C   UNL     1      -4.426   4.493  25.773  0.00  0.00    +0.085 C 
BRANCH   6  15
ATOM     15  C   UNL     1      -4.256   2.819  24.030  0.00  0.00    +0.120 C 
BRANCH  15  17
ATOM     17  C   UNL     1      -4.150   1.321  24.142  0.00  0.00    -0.033 A 
ATOM     18  C   UNL     1      -4.595   0.675  25.295  0.00  0.00    +0.007 A 
ATOM     19  C   UNL     1      -3.609   0.580  23.091  0.00  0.00    +0.007 A 
ATOM     21  C   UNL     1      -4.497  -0.713  25.399  0.00  0.00    +0.033 A 
ATOM     22  C   UNL     1      -3.510  -0.808  23.195  0.00  0.00    +0.033 A 
ATOM     24  C   UNL     1      -3.953  -1.454  24.349  0.00  0.00    +0.126 A 
BRANCH  24   9
ATOM      3  O   UNL     1      -4.325  -3.579  23.535  0.00  0.00    -0.126 OA
ATOM      4  O   UNL     1      -3.298  -3.364  25.463  0.00  0.00    -0.126 OA
ATOM      9  N   UNL     1      -3.854  -2.866  24.454  0.00  0.00    +0.056 N 
ENDBRANCH  24   9
ENDBRANCH  15  17
ENDBRANCH   6  15
ENDBRANCH  16  11
TORSDOF 9
ENDMDL
MODEL 2
REMARK VINA RESULT:       0.9      1.878      3.305
REMARK  Name = 45783419
REMARK  10 active torsions:
REMARK  status: ('A' for Active; 'I' for Inactive)
REMARK    1  A    between atoms: O_2  and  C_25
REMARK    2  A    between atoms: O_2  and  C_29
REMARK    3  A    between atoms: O_5  and  C_30
REMARK    4  A    between atoms: O_5  and  C_31
REMARK    5  A    between atoms: N_6  and  C_15
REMARK    6  A    between atoms: N_9  and  C_24
REMARK    7  A    between atoms: C_11  and  C_16
REMARK    8  A    between atoms: C_15  and  C_17
REMARK    9  A    between atoms: C_20  and  C_23
REMARK   10  A    between atoms: C_29  and  C_30
REMARK                            x       y       z     vdW  Elec       q    Type
REMARK                         _______ _______ _______ _____ _____    ______ ____
ROOT
ATOM      1  O   UNL     1      -3.369   2.704  22.268  0.00  0.00    -0.336 OA
ATOM      7  N   UNL     1      -2.489   1.654  24.040  0.00  0.00    -0.190 NA
ATOM      8  N   UNL     1      -2.083   2.304  21.884  0.00  0.00    -0.056 NA
ATOM     16  C   UNL     1      -3.527   2.282  23.551  0.00  0.00    +0.245 A 
ATOM     20  C   UNL     1      -1.628   1.691  22.982  0.00  0.00    +0.207 A 
ENDROOT
BRANCH  20  23
ATOM     10  N   UNL     1       1.949   1.171  23.886  0.00  0.00    -0.221 NA
ATOM     23  C   UNL     1      -0.319   1.108  23.053  0.00  0.00    +0.084 A 
ATOM     25  C   UNL     1       0.703   1.684  23.791  0.00  0.00    +0.226 A 
ATOM     26  C   UNL     1      -0.044  -0.070  22.369  0.00  0.00    +0.018 A 
ATOM     27  C   UNL     1       1.228  -0.629  22.442  0.00  0.00    +0.021 A 
ATOM     28  C   UNL     1       2.180   0.025  23.208  0.00  0.00    +0.114 A 
BRANCH  25   2
ATOM      2  O   UNL     1       0.480   2.848  24.483  0.00  0.00    -0.474 OA
BRANCH   2  29
ATOM     29  C   UNL     1       0.004   2.717  25.816  0.00  0.00    +0.258 C 
BRANCH  29  30
ATOM     30  C   UNL     1      -1.155   3.673  26.024  0.00  0.00    +0.200 C 
BRANCH  30   5
ATOM      5  O   UNL     1      -1.177   4.614  24.957  0.00  0.00    -0.380 OA
ATOM     31  C   UNL     1      -2.017   5.720  25.256  0.00  0.00    +0.194 C 
ENDBRANCH  30   5
ENDBRANCH  29  30
ENDBRANCH   2  29
ENDBRANCH  25   2
ENDBRANCH  20  23
BRANCH  16  11
ATOM      6  N   UNL     1      -4.973   2.018  25.559  0.00  0.00    -0.287 NA
ATOM     11  C   UNL     1      -4.856   2.596  24.205  0.00  0.00    +0.146 C 
ATOM     12  C   UNL     1      -5.078   4.106  24.404  0.00  0.00    +0.030 C 
ATOM     13  C   UNL     1      -5.372   4.274  25.888  0.00  0.00    +0.017 C 
ATOM     14  C   UNL     1      -5.863   2.905  26.311  0.00  0.00    +0.085 C 
BRANCH   6  15
ATOM     15  C   UNL     1      -5.445   0.640  25.557  0.00  0.00    +0.120 C 
BRANCH  15  17
ATOM     17  C   UNL     1      -4.340  -0.330  25.233  0.00  0.00    -0.033 A 
ATOM     18  C   UNL     1      -4.470  -1.200  24.150  0.00  0.00    +0.007 A 
ATOM     19  C   UNL     1      -3.186  -0.359  26.017  0.00  0.00    +0.007 A 
ATOM     21  C   UNL     1      -3.446  -2.098  23.851  0.00  0.00    +0.033 A 
ATOM     22  C   UNL     1      -2.163  -1.259  25.718  0.00  0.00    +0.033 A 
ATOM     24  C   UNL     1      -2.293  -2.129  24.636  0.00  0.00    +0.126 A 
BRANCH  24   9
ATOM      3  O   UNL     1      -1.331  -3.731  23.285  0.00  0.00    -0.126 OA
ATOM      4  O   UNL     1      -0.277  -3.141  25.118  0.00  0.00    -0.126 OA
ATOM      9  N   UNL     1      -1.250  -3.043  24.332  0.00  0.00    +0.056 N 
ENDBRANCH  24   9
ENDBRANCH  15  17
ENDBRANCH   6  15
ENDBRANCH  16  11
TORSDOF 9
ENDMDL
MODEL 3
REMARK VINA RESULT:       1.2      2.074      5.340
REMARK  Name = 45783419
REMARK  10 active torsions:
REMARK  status: ('A' for Active; 'I' for Inactive)
REMARK    1  A    between atoms: O_2  and  C_25
REMARK    2  A    between atoms: O_2  and  C_29
REMARK    3  A    between atoms: O_5  and  C_30
REMARK    4  A    between atoms: O_5  and  C_31
REMARK    5  A    between atoms: N_6  and  C_15
REMARK    6  A    between atoms: N_9  and  C_24
REMARK    7  A    between atoms: C_11  and  C_16
REMARK    8  A    between atoms: C_15  and  C_17
REMARK    9  A    between atoms: C_20  and  C_23
REMARK   10  A    between atoms: C_29  and  C_30
REMARK                            x       y       z     vdW  Elec       q    Type
REMARK                         _______ _______ _______ _____ _____    ______ ____
ROOT
ATOM      1  O   UNL     1      -1.016  -0.364  26.582  0.00  0.00    -0.336 OA
ATOM      7  N   UNL     1      -1.984   0.638  24.828  0.00  0.00    -0.190 NA
ATOM      8  N   UNL     1      -0.567   0.963  26.594  0.00  0.00    -0.056 NA
ATOM     16  C   UNL     1      -1.845  -0.470  25.510  0.00  0.00    +0.245 A 
ATOM     20  C   UNL     1      -1.182   1.489  25.530  0.00  0.00    +0.207 A 
ENDROOT
BRANCH  20  23
ATOM     10  N   UNL     1      -0.107   4.499  23.615  0.00  0.00    -0.221 NA
ATOM     23  C   UNL     1      -1.014   2.860  25.142  0.00  0.00    +0.084 A 
ATOM     25  C   UNL     1      -0.291   3.222  24.017  0.00  0.00    +0.226 A 
ATOM     26  C   UNL     1      -1.586   3.873  25.904  0.00  0.00    +0.018 A 
ATOM     27  C   UNL     1      -1.418   5.200  25.522  0.00  0.00    +0.021 A 
ATOM     28  C   UNL     1      -0.676   5.457  24.379  0.00  0.00    +0.114 A 
BRANCH  25   2
ATOM      2  O   UNL     1       0.293   2.258  23.235  0.00  0.00    -0.474 OA
BRANCH   2  29
ATOM     29  C   UNL     1       1.301   1.465  23.846  0.00  0.00    +0.258 C 
BRANCH  29  30
ATOM     30  C   UNL     1       1.346   0.110  23.166  0.00  0.00    +0.200 C 
BRANCH  30   5
ATOM      5  O   UNL     1       2.444   0.082  22.261  0.00  0.00    -0.380 OA
ATOM     31  C   UNL     1       3.555   0.809  22.766  0.00  0.00    +0.194 C 
ENDBRANCH  30   5
ENDBRANCH  29  30
ENDBRANCH   2  29
ENDBRANCH  25   2
ENDBRANCH  20  23
BRANCH  16  11
ATOM      6  N   UNL     1      -3.389  -1.838  24.118  0.00  0.00    -0.287 NA
ATOM     11  C   UNL     1      -2.471  -1.829  25.274  0.00  0.00    +0.146 C 
ATOM     12  C   UNL     1      -1.429  -2.916  24.955  0.00  0.00    +0.030 C 
ATOM     13  C   UNL     1      -1.877  -3.521  23.631  0.00  0.00    +0.017 C 
ATOM     14  C   UNL     1      -3.356  -3.196  23.574  0.00  0.00    +0.085 C 
BRANCH   6  15
ATOM     15  C   UNL     1      -4.742  -1.415  24.455  0.00  0.00    +0.120 C 
BRANCH  15  17
ATOM     17  C   UNL     1      -4.845   0.081  24.588  0.00  0.00    -0.033 A 
ATOM     18  C   UNL     1      -5.512   0.641  25.677  0.00  0.00    +0.007 A 
ATOM     19  C   UNL     1      -4.272   0.908  23.621  0.00  0.00    +0.007 A 
ATOM     21  C   UNL     1      -5.607   2.027  25.800  0.00  0.00    +0.033 A 
ATOM     22  C   UNL     1      -4.368   2.295  23.744  0.00  0.00    +0.033 A 
ATOM     24  C   UNL     1      -5.036   2.854  24.833  0.00  0.00    +0.126 A 
BRANCH  24   9
ATOM      3  O   UNL     1      -4.387   4.990  24.255  0.00  0.00    -0.126 OA
ATOM      4  O   UNL     1      -5.959   4.749  25.768  0.00  0.00    -0.126 OA
ATOM      9  N   UNL     1      -5.132   4.265  24.958  0.00  0.00    +0.056 N 
ENDBRANCH  24   9
ENDBRANCH  15  17
ENDBRANCH   6  15
ENDBRANCH  16  11
TORSDOF 9
ENDMDL
MODEL 4
REMARK VINA RESULT:       1.7      2.537      7.418
REMARK  Name = 45783419
REMARK  10 active torsions:
REMARK  status: ('A' for Active; 'I' for Inactive)
REMARK    1  A    between atoms: O_2  and  C_25
REMARK    2  A    between atoms: O_2  and  C_29
REMARK    3  A    between atoms: O_5  and  C_30
REMARK    4  A    between atoms: O_5  and  C_31
REMARK    5  A    between atoms: N_6  and  C_15
REMARK    6  A    between atoms: N_9  and  C_24
REMARK    7  A    between atoms: C_11  and  C_16
REMARK    8  A    between atoms: C_15  and  C_17
REMARK    9  A    between atoms: C_20  and  C_23
REMARK   10  A    between atoms: C_29  and  C_30
REMARK                            x       y       z     vdW  Elec       q    Type
REMARK                         _______ _______ _______ _____ _____    ______ ____
ROOT
ATOM      1  O   UNL     1      -3.785  -1.353  23.895  0.00  0.00    -0.336 OA
ATOM      7  N   UNL     1      -2.654   0.433  24.634  0.00  0.00    -0.190 NA
ATOM      8  N   UNL     1      -4.739  -0.352  24.117  0.00  0.00    -0.056 NA
ATOM     16  C   UNL     1      -2.584  -0.808  24.225  0.00  0.00    +0.245 A 
ATOM     20  C   UNL     1      -3.994   0.670  24.551  0.00  0.00    +0.207 A 
ENDROOT
BRANCH  20  23
ATOM     10  N   UNL     1      -4.379   4.346  25.025  0.00  0.00    -0.221 NA
ATOM     23  C   UNL     1      -4.560   1.938  24.910  0.00  0.00    +0.084 A 
ATOM     25  C   UNL     1      -3.884   3.130  24.702  0.00  0.00    +0.226 A 
ATOM     26  C   UNL     1      -5.824   1.998  25.487  0.00  0.00    +0.018 A 
ATOM     27  C   UNL     1      -6.365   3.231  25.833  0.00  0.00    +0.021 A 
ATOM     28  C   UNL     1      -5.609   4.365  25.583  0.00  0.00    +0.114 A 
BRANCH  25   2
ATOM      2  O   UNL     1      -2.635   3.122  24.137  0.00  0.00    -0.474 OA
BRANCH   2  29
ATOM     29  C   UNL     1      -1.595   3.747  24.878  0.00  0.00    +0.258 C 
BRANCH  29  30
ATOM     30  C   UNL     1      -0.256   3.330  24.302  0.00  0.00    +0.200 C 
BRANCH  30   5
ATOM      5  O   UNL     1       0.372   2.420  25.197  0.00  0.00    -0.380 OA
ATOM     31  C   UNL     1      -0.221   2.466  26.488  0.00  0.00    +0.194 C 
ENDBRANCH  30   5
ENDBRANCH  29  30
ENDBRANCH   2  29
ENDBRANCH  25   2
ENDBRANCH  20  23
BRANCH  16  11
ATOM      6  N   UNL     1      -0.104  -0.988  24.317  0.00  0.00    -0.287 NA
ATOM     11  C   UNL     1      -1.372  -1.702  24.069  0.00  0.00    +0.146 C 
ATOM     12  C   UNL     1      -1.365  -2.872  25.070  0.00  0.00    +0.030 C 
ATOM     13  C   UNL     1      -0.029  -2.769  25.793  0.00  0.00    +0.017 C 
ATOM     14  C   UNL     1       0.838  -1.984  24.830  0.00  0.00    +0.085 C 
BRANCH   6  15
ATOM     15  C   UNL     1       0.410  -0.302  23.139  0.00  0.00    +0.120 C 
BRANCH  15  17
ATOM     17  C   UNL     1       1.910  -0.188  23.166  0.00  0.00    -0.033 A 
ATOM     18  C   UNL     1       2.688  -1.294  23.512  0.00  0.00    +0.007 A 
ATOM     19  C   UNL     1       2.524   1.023  22.846  0.00  0.00    +0.007 A 
ATOM     21  C   UNL     1       4.079  -1.187  23.537  0.00  0.00    +0.033 A 
ATOM     22  C   UNL     1       3.915   1.129  22.872  0.00  0.00    +0.033 A 
ATOM     24  C   UNL     1       4.692   0.025  23.218  0.00  0.00    +0.126 A 
BRANCH  24   9
ATOM      3  O   UNL     1       6.784  -0.544  22.432  0.00  0.00    -0.126 OA
ATOM      4  O   UNL     1       6.644   0.901  24.078  0.00  0.00    -0.126 OA
ATOM      9  N   UNL     1       6.107   0.133  23.244  0.00  0.00    +0.056 N 
ENDBRANCH  24   9
ENDBRANCH  15  17
ENDBRANCH   6  15
ENDBRANCH  16  11
TORSDOF 9
ENDMDL
MODEL 5
REMARK VINA RESULT:       2.0      1.953      4.889
REMARK  Name = 45783419
REMARK  10 active torsions:
REMARK  status: ('A' for Active; 'I' for Inactive)
REMARK    1  A    between atoms: O_2  and  C_25
REMARK    2  A    between atoms: O_2  and  C_29
REMARK    3  A    between atoms: O_5  and  C_30
REMARK    4  A    between atoms: O_5  and  C_31
REMARK    5  A    between atoms: N_6  and  C_15
REMARK    6  A    between atoms: N_9  and  C_24
REMARK    7  A    between atoms: C_11  and  C_16
REMARK    8  A    between atoms: C_15  and  C_17
REMARK    9  A    between atoms: C_20  and  C_23
REMARK   10  A    between atoms: C_29  and  C_30
REMARK                            x       y       z     vdW  Elec       q    Type
REMARK                         _______ _______ _______ _____ _____    ______ ____
ROOT
ATOM      1  O   UNL     1      -0.529  -2.195  25.279  0.00  0.00    -0.336 OA
ATOM      7  N   UNL     1      -0.611  -0.412  23.926  0.00  0.00    -0.190 NA
ATOM      8  N   UNL     1       0.801  -1.856  25.000  0.00  0.00    -0.056 NA
ATOM     16  C   UNL     1      -1.295  -1.296  24.607  0.00  0.00    +0.245 A 
ATOM     20  C   UNL     1       0.669  -0.794  24.198  0.00  0.00    +0.207 A 
ENDROOT
BRANCH  20  23
ATOM     10  N   UNL     1       2.863   1.982  23.028  0.00  0.00    -0.221 NA
ATOM     23  C   UNL     1       1.797  -0.097  23.650  0.00  0.00    +0.084 A 
ATOM     25  C   UNL     1       1.823   1.284  23.537  0.00  0.00    +0.226 A 
ATOM     26  C   UNL     1       2.909  -0.808  23.213  0.00  0.00    +0.018 A 
ATOM     27  C   UNL     1       3.998  -0.124  22.682  0.00  0.00    +0.021 A 
ATOM     28  C   UNL     1       3.926   1.258  22.613  0.00  0.00    +0.114 A 
BRANCH  25   2
ATOM      2  O   UNL     1       0.750   2.028  23.954  0.00  0.00    -0.474 OA
BRANCH   2  29
ATOM     29  C   UNL     1       0.541   2.118  25.357  0.00  0.00    +0.258 C 
BRANCH  29  30
ATOM     30  C   UNL     1      -0.504   3.181  25.636  0.00  0.00    +0.200 C 
BRANCH  30   5
ATOM      5  O   UNL     1      -0.560   4.077  24.532  0.00  0.00    -0.380 OA
ATOM     31  C   UNL     1      -1.083   5.342  24.914  0.00  0.00    +0.194 C 
ENDBRANCH  30   5
ENDBRANCH  29  30
ENDBRANCH   2  29
ENDBRANCH  25   2
ENDBRANCH  20  23
BRANCH  16  11
ATOM      6  N   UNL     1      -3.456  -1.771  23.467  0.00  0.00    -0.287 NA
ATOM     11  C   UNL     1      -2.795  -1.449  24.748  0.00  0.00    +0.146 C 
ATOM     12  C   UNL     1      -3.188  -2.601  25.691  0.00  0.00    +0.030 C 
ATOM     13  C   UNL     1      -4.117  -3.486  24.873  0.00  0.00    +0.017 C 
ATOM     14  C   UNL     1      -4.646  -2.555  23.802  0.00  0.00    +0.085 C 
BRANCH   6  15
ATOM     15  C   UNL     1      -3.780  -0.592  22.675  0.00  0.00    +0.120 C 
BRANCH  15  17
ATOM     17  C   UNL     1      -4.029   0.614  23.542  0.00  0.00    -0.033 A 
ATOM     18  C   UNL     1      -3.389   1.821  23.258  0.00  0.00    +0.007 A 
ATOM     19  C   UNL     1      -4.900   0.524  24.628  0.00  0.00    +0.007 A 
ATOM     21  C   UNL     1      -3.620   2.937  24.061  0.00  0.00    +0.033 A 
ATOM     22  C   UNL     1      -5.130   1.642  25.431  0.00  0.00    +0.033 A 
ATOM     24  C   UNL     1      -4.490   2.847  25.149  0.00  0.00    +0.126 A 
BRANCH  24   9
ATOM      3  O   UNL     1      -5.839   4.559  25.901  0.00  0.00    -0.126 OA
ATOM      4  O   UNL     1      -3.813   4.384  26.729  0.00  0.00    -0.126 OA
ATOM      9  N   UNL     1      -4.725   3.984  25.966  0.00  0.00    +0.056 N 
ENDBRANCH  24   9
ENDBRANCH  15  17
ENDBRANCH   6  15
ENDBRANCH  16  11
TORSDOF 9
ENDMDL
MODEL 6
REMARK VINA RESULT:       2.3      1.462      2.806
REMARK  Name = 45783419
REMARK  10 active torsions:
REMARK  status: ('A' for Active; 'I' for Inactive)
REMARK    1  A    between atoms: O_2  and  C_25
REMARK    2  A    between atoms: O_2  and  C_29
REMARK    3  A    between atoms: O_5  and  C_30
REMARK    4  A    between atoms: O_5  and  C_31
REMARK    5  A    between atoms: N_6  and  C_15
REMARK    6  A    between atoms: N_9  and  C_24
REMARK    7  A    between atoms: C_11  and  C_16
REMARK    8  A    between atoms: C_15  and  C_17
REMARK    9  A    between atoms: C_20  and  C_23
REMARK   10  A    between atoms: C_29  and  C_30
REMARK                            x       y       z     vdW  Elec       q    Type
REMARK                         _______ _______ _______ _____ _____    ______ ____
ROOT
ATOM      1  O   UNL     1      -0.520   3.635  24.255  0.00  0.00    -0.336 OA
ATOM      7  N   UNL     1      -1.777   1.836  24.703  0.00  0.00    -0.190 NA
ATOM      8  N   UNL     1       0.348   2.537  24.228  0.00  0.00    -0.056 NA
ATOM     16  C   UNL     1      -1.751   3.135  24.542  0.00  0.00    +0.245 A 
ATOM     20  C   UNL     1      -0.468   1.513  24.500  0.00  0.00    +0.207 A 
ENDROOT
BRANCH  20  23
ATOM     10  N   UNL     1       1.530  -1.567  23.862  0.00  0.00    -0.221 NA
ATOM     23  C   UNL     1      -0.004   0.157  24.579  0.00  0.00    +0.084 A 
ATOM     25  C   UNL     1       1.061  -0.300  23.820  0.00  0.00    +0.226 A 
ATOM     26  C   UNL     1      -0.629  -0.743  25.435  0.00  0.00    +0.018 A 
ATOM     27  C   UNL     1      -0.174  -2.055  25.505  0.00  0.00    +0.021 A 
ATOM     28  C   UNL     1       0.900  -2.413  24.705  0.00  0.00    +0.114 A 
BRANCH  25   2
ATOM      2  O   UNL     1       1.708   0.550  22.960  0.00  0.00    -0.474 OA
BRANCH   2  29
ATOM     29  C   UNL     1       2.889   0.056  22.342  0.00  0.00    +0.258 C 
BRANCH  29  30
ATOM     30  C   UNL     1       4.063   0.924  22.752  0.00  0.00    +0.200 C 
BRANCH  30   5
ATOM      5  O   UNL     1       5.212   0.101  22.919  0.00  0.00    -0.380 OA
ATOM     31  C   UNL     1       5.361  -0.319  24.268  0.00  0.00    +0.194 C 
ENDBRANCH  30   5
ENDBRANCH  29  30
ENDBRANCH   2  29
ENDBRANCH  25   2
ENDBRANCH  20  23
BRANCH  16  11
ATOM      6  N   UNL     1      -4.042   3.620  25.384  0.00  0.00    -0.287 NA
ATOM     11  C   UNL     1      -2.882   4.137  24.629  0.00  0.00    +0.146 C 
ATOM     12  C   UNL     1      -2.479   5.427  25.366  0.00  0.00    +0.030 C 
ATOM     13  C   UNL     1      -3.503   5.585  26.482  0.00  0.00    +0.017 C 
ATOM     14  C   UNL     1      -4.691   4.783  25.991  0.00  0.00    +0.085 C 
BRANCH   6  15
ATOM     15  C   UNL     1      -4.962   2.844  24.563  0.00  0.00    +0.120 C 
BRANCH  15  17
ATOM     17  C   UNL     1      -4.614   1.380  24.561  0.00  0.00    -0.033 A 
ATOM     18  C   UNL     1      -4.706   0.640  25.740  0.00  0.00    +0.007 A 
ATOM     19  C   UNL     1      -4.198   0.763  23.381  0.00  0.00    +0.007 A 
ATOM     21  C   UNL     1      -4.383  -0.717  25.738  0.00  0.00    +0.033 A 
ATOM     22  C   UNL     1      -3.874  -0.594  23.380  0.00  0.00    +0.033 A 
ATOM     24  C   UNL     1      -3.966  -1.334  24.558  0.00  0.00    +0.126 A 
BRANCH  24   9
ATOM      3  O   UNL     1      -3.661  -3.344  23.470  0.00  0.00    -0.126 OA
ATOM      4  O   UNL     1      -3.333  -3.269  25.640  0.00  0.00    -0.126 OA
ATOM      9  N   UNL     1      -3.637  -2.715  24.556  0.00  0.00    +0.056 N 
ENDBRANCH  24   9
ENDBRANCH  15  17
ENDBRANCH   6  15
ENDBRANCH  16  11
TORSDOF 9
ENDMDL
MODEL 7
REMARK VINA RESULT:       2.4      2.083      5.094
REMARK  Name = 45783419
REMARK  10 active torsions:
REMARK  status: ('A' for Active; 'I' for Inactive)
REMARK    1  A    between atoms: O_2  and  C_25
REMARK    2  A    between atoms: O_2  and  C_29
REMARK    3  A    between atoms: O_5  and  C_30
REMARK    4  A    between atoms: O_5  and  C_31
REMARK    5  A    between atoms: N_6  and  C_15
REMARK    6  A    between atoms: N_9  and  C_24
REMARK    7  A    between atoms: C_11  and  C_16
REMARK    8  A    between atoms: C_15  and  C_17
REMARK    9  A    between atoms: C_20  and  C_23
REMARK   10  A    between atoms: C_29  and  C_30
REMARK                            x       y       z     vdW  Elec       q    Type
REMARK                         _______ _______ _______ _____ _____    ______ ____
ROOT
ATOM      1  O   UNL     1      -1.852  -0.980  26.231  0.00  0.00    -0.336 OA
ATOM      7  N   UNL     1      -1.416  -1.029  24.035  0.00  0.00    -0.190 NA
ATOM      8  N   UNL     1      -0.646  -0.290  26.058  0.00  0.00    -0.056 NA
ATOM     16  C   UNL     1      -2.237  -1.383  24.991  0.00  0.00    +0.245 A 
ATOM     20  C   UNL     1      -0.456  -0.361  24.736  0.00  0.00    +0.207 A 
ENDROOT
BRANCH  20  23
ATOM     10  N   UNL     1       1.947   2.186  23.462  0.00  0.00    -0.221 NA
ATOM     23  C   UNL     1       0.683   0.223  24.088  0.00  0.00    +0.084 A 
ATOM     25  C   UNL     1       0.890   1.593  24.060  0.00  0.00    +0.226 A 
ATOM     26  C   UNL     1       1.621  -0.591  23.463  0.00  0.00    +0.018 A 
ATOM     27  C   UNL     1       2.722  -0.017  22.836  0.00  0.00    +0.021 A 
ATOM     28  C   UNL     1       2.838   1.364  22.864  0.00  0.00    +0.114 A 
BRANCH  25   2
ATOM      2  O   UNL     1      -0.008   2.437  24.662  0.00  0.00    -0.474 OA
BRANCH   2  29
ATOM     29  C   UNL     1       0.495   3.272  25.696  0.00  0.00    +0.258 C 
BRANCH  29  30
ATOM     30  C   UNL     1       0.420   2.528  27.015  0.00  0.00    +0.200 C 
BRANCH  30   5
ATOM      5  O   UNL     1       1.622   2.751  27.743  0.00  0.00    -0.380 OA
ATOM     31  C   UNL     1       1.459   2.453  29.122  0.00  0.00    +0.194 C 
ENDBRANCH  30   5
ENDBRANCH  29  30
ENDBRANCH   2  29
ENDBRANCH  25   2
ENDBRANCH  20  23
BRANCH  16  11
ATOM      6  N   UNL     1      -4.534  -1.505  24.043  0.00  0.00    -0.287 NA
ATOM     11  C   UNL     1      -3.532  -2.162  24.907  0.00  0.00    +0.146 C 
ATOM     12  C   UNL     1      -3.345  -3.561  24.295  0.00  0.00    +0.030 C 
ATOM     13  C   UNL     1      -4.325  -3.622  23.131  0.00  0.00    +0.017 C 
ATOM     14  C   UNL     1      -5.362  -2.575  23.484  0.00  0.00    +0.085 C 
BRANCH   6  15
ATOM     15  C   UNL     1      -5.330  -0.505  24.744  0.00  0.00    +0.120 C 
BRANCH  15  17
ATOM     17  C   UNL     1      -4.717   0.866  24.648  0.00  0.00    -0.033 A 
ATOM     18  C   UNL     1      -3.740   1.128  23.688  0.00  0.00    +0.007 A 
ATOM     19  C   UNL     1      -5.127   1.876  25.520  0.00  0.00    +0.007 A 
ATOM     21  C   UNL     1      -3.172   2.399  23.600  0.00  0.00    +0.033 A 
ATOM     22  C   UNL     1      -4.558   3.147  25.432  0.00  0.00    +0.033 A 
ATOM     24  C   UNL     1      -3.581   3.408  24.473  0.00  0.00    +0.126 A 
BRANCH  24   9
ATOM      3  O   UNL     1      -3.488   5.529  23.573  0.00  0.00    -0.126 OA
ATOM      4  O   UNL     1      -2.024   4.983  25.115  0.00  0.00    -0.126 OA
ATOM      9  N   UNL     1      -3.003   4.702  24.383  0.00  0.00    +0.056 N 
ENDBRANCH  24   9
ENDBRANCH  15  17
ENDBRANCH   6  15
ENDBRANCH  16  11
TORSDOF 9
ENDMDL
MODEL 8
REMARK VINA RESULT:       3.0      2.126      6.392
REMARK  Name = 45783419
REMARK  10 active torsions:
REMARK  status: ('A' for Active; 'I' for Inactive)
REMARK    1  A    between atoms: O_2  and  C_25
REMARK    2  A    between atoms: O_2  and  C_29
REMARK    3  A    between atoms: O_5  and  C_30
REMARK    4  A    between atoms: O_5  and  C_31
REMARK    5  A    between atoms: N_6  and  C_15
REMARK    6  A    between atoms: N_9  and  C_24
REMARK    7  A    between atoms: C_11  and  C_16
REMARK    8  A    between atoms: C_15  and  C_17
REMARK    9  A    between atoms: C_20  and  C_23
REMARK   10  A    between atoms: C_29  and  C_30
REMARK                            x       y       z     vdW  Elec       q    Type
REMARK                         _______ _______ _______ _____ _____    ______ ____
ROOT
ATOM      1  O   UNL     1       1.031  -1.210  24.752  0.00  0.00    -0.336 OA
ATOM      7  N   UNL     1      -0.420  -0.649  23.140  0.00  0.00    -0.190 NA
ATOM      8  N   UNL     1      -0.221  -1.674  25.176  0.00  0.00    -0.056 NA
ATOM     16  C   UNL     1       0.824  -0.619  23.546  0.00  0.00    +0.245 A 
ATOM     20  C   UNL     1      -1.024  -1.306  24.172  0.00  0.00    +0.207 A 
ENDROOT
BRANCH  20  23
ATOM     10  N   UNL     1      -4.711  -0.779  24.277  0.00  0.00    -0.221 NA
ATOM     23  C   UNL     1      -2.432  -1.578  24.172  0.00  0.00    +0.084 A 
ATOM     25  C   UNL     1      -3.376  -0.568  24.273  0.00  0.00    +0.226 A 
ATOM     26  C   UNL     1      -2.887  -2.888  24.069  0.00  0.00    +0.018 A 
ATOM     27  C   UNL     1      -4.255  -3.144  24.070  0.00  0.00    +0.021 A 
ATOM     28  C   UNL     1      -5.117  -2.064  24.175  0.00  0.00    +0.114 A 
BRANCH  25   2
ATOM      2  O   UNL     1      -2.976   0.739  24.378  0.00  0.00    -0.474 OA
BRANCH   2  29
ATOM     29  C   UNL     1      -3.325   1.602  23.305  0.00  0.00    +0.258 C 
BRANCH  29  30
ATOM     30  C   UNL     1      -4.157   2.750  23.843  0.00  0.00    +0.200 C 
BRANCH  30   5
ATOM      5  O   UNL     1      -5.359   2.231  24.401  0.00  0.00    -0.380 OA
ATOM     31  C   UNL     1      -5.552   2.683  25.734  0.00  0.00    +0.194 C 
ENDBRANCH  30   5
ENDBRANCH  29  30
ENDBRANCH   2  29
ENDBRANCH  25   2
ENDBRANCH  20  23
BRANCH  16  11
ATOM      6  N   UNL     1       2.493   1.227  23.500  0.00  0.00    -0.287 NA
ATOM     11  C   UNL     1       2.042  -0.028  22.866  0.00  0.00    +0.146 C 
ATOM     12  C   UNL     1       3.266  -0.960  22.927  0.00  0.00    +0.030 C 
ATOM     13  C   UNL     1       4.372  -0.123  23.555  0.00  0.00    +0.017 C 
ATOM     14  C   UNL     1       3.939   1.303  23.283  0.00  0.00    +0.085 C 
BRANCH   6  15
ATOM     15  C   UNL     1       1.800   2.406  22.998  0.00  0.00    +0.120 C 
BRANCH  15  17
ATOM     17  C   UNL     1       0.700   2.847  23.926  0.00  0.00    -0.033 A 
ATOM     18  C   UNL     1       0.416   2.107  25.074  0.00  0.00    +0.007 A 
ATOM     19  C   UNL     1      -0.038   3.996  23.637  0.00  0.00    +0.007 A 
ATOM     21  C   UNL     1      -0.603   2.515  25.933  0.00  0.00    +0.033 A 
ATOM     22  C   UNL     1      -1.058   4.404  24.497  0.00  0.00    +0.033 A 
ATOM     24  C   UNL     1      -1.341   3.664  25.644  0.00  0.00    +0.126 A 
BRANCH  24   9
ATOM      3  O   UNL     1      -2.565   3.447  27.587  0.00  0.00    -0.126 OA
ATOM      4  O   UNL     1      -3.084   5.068  26.200  0.00  0.00    -0.126 OA
ATOM      9  N   UNL     1      -2.379   4.080  26.519  0.00  0.00    +0.056 N 
ENDBRANCH  24   9
ENDBRANCH  15  17
ENDBRANCH   6  15
ENDBRANCH  16  11
TORSDOF 9
ENDMDL
MODEL 9
REMARK VINA RESULT:       3.2      2.505      5.516
REMARK  Name = 45783419
REMARK  10 active torsions:
REMARK  status: ('A' for Active; 'I' for Inactive)
REMARK    1  A    between atoms: O_2  and  C_25
REMARK    2  A    between atoms: O_2  and  C_29
REMARK    3  A    between atoms: O_5  and  C_30
REMARK    4  A    between atoms: O_5  and  C_31
REMARK    5  A    between atoms: N_6  and  C_15
REMARK    6  A    between atoms: N_9  and  C_24
REMARK    7  A    between atoms: C_11  and  C_16
REMARK    8  A    between atoms: C_15  and  C_17
REMARK    9  A    between atoms: C_20  and  C_23
REMARK   10  A    between atoms: C_29  and  C_30
REMARK                            x       y       z     vdW  Elec       q    Type
REMARK                         _______ _______ _______ _____ _____    ______ ____
ROOT
ATOM      1  O   UNL     1       0.091  -0.751  23.982  0.00  0.00    -0.336 OA
ATOM      7  N   UNL     1      -1.540   0.500  24.872  0.00  0.00    -0.190 NA
ATOM      8  N   UNL     1       0.513   0.579  23.866  0.00  0.00    -0.056 NA
ATOM     16  C   UNL     1      -1.127  -0.708  24.585  0.00  0.00    +0.245 A 
ATOM     20  C   UNL     1      -0.502   1.256  24.413  0.00  0.00    +0.207 A 
ENDROOT
BRANCH  20  23
ATOM     10  N   UNL     1      -0.491   4.682  25.880  0.00  0.00    -0.221 NA
ATOM     23  C   UNL     1      -0.509   2.687  24.514  0.00  0.00    +0.084 A 
ATOM     25  C   UNL     1      -0.485   3.338  25.738  0.00  0.00    +0.226 A 
ATOM     26  C   UNL     1      -0.540   3.466  23.363  0.00  0.00    +0.018 A 
ATOM     27  C   UNL     1      -0.547   4.853  23.469  0.00  0.00    +0.021 A 
ATOM     28  C   UNL     1      -0.521   5.406  24.740  0.00  0.00    +0.114 A 
BRANCH  25   2
ATOM      2  O   UNL     1      -0.455   2.612  26.901  0.00  0.00    -0.474 OA
BRANCH   2  29
ATOM     29  C   UNL     1       0.814   2.451  27.521  0.00  0.00    +0.258 C 
BRANCH  29  30
ATOM     30  C   UNL     1       0.628   2.401  29.025  0.00  0.00    +0.200 C 
BRANCH  30   5
ATOM      5  O   UNL     1       1.905   2.423  29.652  0.00  0.00    -0.380 OA
ATOM     31  C   UNL     1       2.893   2.989  28.801  0.00  0.00    +0.194 C 
ENDBRANCH  30   5
ENDBRANCH  29  30
ENDBRANCH   2  29
ENDBRANCH  25   2
ENDBRANCH  20  23
BRANCH  16  11
ATOM      6  N   UNL     1      -3.190  -2.073  24.316  0.00  0.00    -0.287 NA
ATOM     11  C   UNL     1      -1.806  -2.039  24.828  0.00  0.00    +0.146 C 
ATOM     12  C   UNL     1      -1.097  -3.207  24.119  0.00  0.00    +0.030 C 
ATOM     13  C   UNL     1      -2.175  -3.874  23.276  0.00  0.00    +0.017 C 
ATOM     14  C   UNL     1      -3.464  -3.466  23.958  0.00  0.00    +0.085 C 
BRANCH   6  15
ATOM     15  C   UNL     1      -4.166  -1.547  25.261  0.00  0.00    +0.120 C 
BRANCH  15  17
ATOM     17  C   UNL     1      -4.363  -0.064  25.096  0.00  0.00    -0.033 A 
ATOM     18  C   UNL     1      -4.954   0.679  26.118  0.00  0.00    +0.007 A 
ATOM     19  C   UNL     1      -3.953   0.568  23.921  0.00  0.00    +0.007 A 
ATOM     21  C   UNL     1      -5.136   2.054  25.965  0.00  0.00    +0.033 A 
ATOM     22  C   UNL     1      -4.136   1.942  23.768  0.00  0.00    +0.033 A 
ATOM     24  C   UNL     1      -4.728   2.685  24.789  0.00  0.00    +0.126 A 
BRANCH  24   9
ATOM      3  O   UNL     1      -4.179   4.709  23.829  0.00  0.00    -0.126 OA
ATOM      4  O   UNL     1      -5.805   4.658  25.303  0.00  0.00    -0.126 OA
ATOM      9  N   UNL     1      -4.913   4.084  24.633  0.00  0.00    +0.056 N 
ENDBRANCH  24   9
ENDBRANCH  15  17
ENDBRANCH   6  15
ENDBRANCH  16  11
TORSDOF 9
ENDMDL
MODEL 10
REMARK VINA RESULT:       3.7      2.297      4.563
REMARK  Name = 45783419
REMARK  10 active torsions:
REMARK  status: ('A' for Active; 'I' for Inactive)
REMARK    1  A    between atoms: O_2  and  C_25
REMARK    2  A    between atoms: O_2  and  C_29
REMARK    3  A    between atoms: O_5  and  C_30
REMARK    4  A    between atoms: O_5  and  C_31
REMARK    5  A    between atoms: N_6  and  C_15
REMARK    6  A    between atoms: N_9  and  C_24
REMARK    7  A    between atoms: C_11  and  C_16
REMARK    8  A    between atoms: C_15  and  C_17
REMARK    9  A    between atoms: C_20  and  C_23
REMARK   10  A    between atoms: C_29  and  C_30
REMARK                            x       y       z     vdW  Elec       q    Type
REMARK                         _______ _______ _______ _____ _____    ______ ____
ROOT
ATOM      1  O   UNL     1      -0.764   2.401  25.681  0.00  0.00    -0.336 OA
ATOM      7  N   UNL     1      -1.974   1.585  23.982  0.00  0.00    -0.190 NA
ATOM      8  N   UNL     1      -1.014   1.059  25.991  0.00  0.00    -0.056 NA
ATOM     16  C   UNL     1      -1.365   2.629  24.483  0.00  0.00    +0.245 A 
ATOM     20  C   UNL     1      -1.732   0.645  24.941  0.00  0.00    +0.207 A 
ENDROOT
BRANCH  20  23
ATOM     10  N   UNL     1      -1.816  -3.032  24.347  0.00  0.00    -0.221 NA
ATOM     23  C   UNL     1      -2.222  -0.697  24.823  0.00  0.00    +0.084 A 
ATOM     25  C   UNL     1      -1.397  -1.753  24.470  0.00  0.00    +0.226 A 
ATOM     26  C   UNL     1      -3.564  -0.972  25.065  0.00  0.00    +0.018 A 
ATOM     27  C   UNL     1      -4.032  -2.276  24.947  0.00  0.00    +0.021 A 
ATOM     28  C   UNL     1      -3.125  -3.261  24.589  0.00  0.00    +0.114 A 
BRANCH  25   2
ATOM      2  O   UNL     1      -0.066  -1.532  24.221  0.00  0.00    -0.474 OA
BRANCH   2  29
ATOM     29  C   UNL     1       0.254  -0.872  23.003  0.00  0.00    +0.258 C 
BRANCH  29  30
ATOM     30  C   UNL     1       1.330   0.163  23.267  0.00  0.00    +0.200 C 
BRANCH  30   5
ATOM      5  O   UNL     1       2.335   0.053  22.266  0.00  0.00    -0.380 OA
ATOM     31  C   UNL     1       3.553   0.655  22.683  0.00  0.00    +0.194 C 
ENDBRANCH  30   5
ENDBRANCH  29  30
ENDBRANCH   2  29
ENDBRANCH  25   2
ENDBRANCH  20  23
BRANCH  16  11
ATOM      6  N   UNL     1      -0.937   5.034  24.960  0.00  0.00    -0.287 NA
ATOM     11  C   UNL     1      -1.238   4.029  23.921  0.00  0.00    +0.146 C 
ATOM     12  C   UNL     1      -0.088   4.159  22.906  0.00  0.00    +0.030 C 
ATOM     13  C   UNL     1       0.775   5.300  23.426  0.00  0.00    +0.017 C 
ATOM     14  C   UNL     1      -0.173   6.094  24.301  0.00  0.00    +0.085 C 
BRANCH   6  15
ATOM     15  C   UNL     1      -2.127   5.547  25.626  0.00  0.00    +0.120 C 
BRANCH  15  17
ATOM     17  C   UNL     1      -3.255   4.551  25.602  0.00  0.00    -0.033 A 
ATOM     18  C   UNL     1      -3.968   4.332  24.423  0.00  0.00    +0.007 A 
ATOM     19  C   UNL     1      -3.589   3.846  26.759  0.00  0.00    +0.007 A 
ATOM     21  C   UNL     1      -5.014   3.409  24.401  0.00  0.00    +0.033 A 
ATOM     22  C   UNL     1      -4.635   2.924  26.737  0.00  0.00    +0.033 A 
ATOM     24  C   UNL     1      -5.348   2.706  25.559  0.00  0.00    +0.126 A 
BRANCH  24   9
ATOM      3  O   UNL     1      -6.840   1.307  26.624  0.00  0.00    -0.126 OA
ATOM      4  O   UNL     1      -6.896   1.421  24.432  0.00  0.00    -0.126 OA
ATOM      9  N   UNL     1      -6.412   1.766  25.537  0.00  0.00    +0.056 N 
ENDBRANCH  24   9
ENDBRANCH  15  17
ENDBRANCH   6  15
ENDBRANCH  16  11
TORSDOF 9
ENDMDL
