MODEL 1
REMARK VINA RESULT:      11.7      0.000      0.000
REMARK  Name = 45361714
REMARK  7 active torsions:
REMARK  status: ('A' for Active; 'I' for Inactive)
REMARK    1  A    between atoms: N_9  and  C_29
REMARK    2  A    between atoms: C_12  and  C_26
REMARK    3  A    between atoms: C_14  and  C_18
REMARK    4  A    between atoms: C_16  and  C_19
REMARK    5  A    between atoms: C_29  and  C_30
REMARK    6  A    between atoms: C_29  and  C_32
REMARK    7  A    between atoms: C_30  and  C_31
REMARK                            x       y       z     vdW  Elec       q    Type
REMARK                         _______ _______ _______ _____ _____    ______ ____
ROOT
ATOM      1  O   UNL     1      -4.523   2.715  23.340  0.00  0.00    -0.275 OA
ATOM      2  O   UNL     1       2.789   2.205  23.421  0.00  0.00    -0.275 OA
ATOM      5  N   UNL     1      -2.243   2.791  23.790  0.00  0.00    -0.287 N 
ATOM      6  N   UNL     1       0.489   1.912  23.266  0.00  0.00    -0.298 N 
ATOM     12  C   UNL     1      -1.097   3.426  24.455  0.00  0.00    +0.179 C 
ATOM     13  C   UNL     1       0.199   3.295  23.653  0.00  0.00    +0.139 C 
ATOM     15  C   UNL     1      -1.939   1.834  22.723  0.00  0.00    +0.127 C 
ATOM     17  C   UNL     1      -0.661   1.047  22.982  0.00  0.00    +0.127 C 
ATOM     18  C   UNL     1      -3.577   3.153  24.000  0.00  0.00    +0.219 C 
ATOM     19  C   UNL     1       1.816   1.485  23.185  0.00  0.00    +0.219 C 
ENDROOT
BRANCH  18  14
ATOM      7  N   UNL     1      -6.599   3.879  26.069  0.00  0.00    -0.316 NA
ATOM     14  C   UNL     1      -3.844   4.144  25.099  0.00  0.00    +0.078 C 
ATOM     20  C   UNL     1      -4.954   5.117  24.698  0.00  0.00    +0.028 C 
ATOM     21  C   UNL     1      -4.191   3.427  26.406  0.00  0.00    +0.028 C 
ATOM     24  C   UNL     1      -6.340   4.473  24.757  0.00  0.00    +0.081 C 
ATOM     25  C   UNL     1      -5.609   2.854  26.393  0.00  0.00    +0.081 C 
ATOM     40  H   UNL     1      -7.530   3.463  26.072  0.00  0.00    +0.122 HD
ENDBRANCH  18  14
BRANCH  19  16
ATOM      8  N   UNL     1       4.894  -0.569  22.694  0.00  0.00    -0.316 NA
ATOM     16  C   UNL     1       2.030   0.056  22.775  0.00  0.00    +0.078 C 
ATOM     22  C   UNL     1       2.731  -0.730  23.884  0.00  0.00    +0.028 C 
ATOM     23  C   UNL     1       2.818  -0.024  21.465  0.00  0.00    +0.028 C 
ATOM     27  C   UNL     1       4.220  -0.393  23.980  0.00  0.00    +0.081 C 
ATOM     28  C   UNL     1       4.303   0.283  21.663  0.00  0.00    +0.081 C 
ATOM     41  H   UNL     1       5.882  -0.339  22.797  0.00  0.00    +0.122 HD
ENDBRANCH  19  16
BRANCH  12  26
ATOM      3  O   UNL     1      -1.645   3.084  26.755  0.00  0.00    -0.274 OA
ATOM      9  N   UNL     1       0.102   1.862  25.820  0.00  0.00    -0.302 N 
ATOM     26  C   UNL     1      -0.932   2.782  25.802  0.00  0.00    +0.236 C 
ATOM     42  H   UNL     1       0.580   1.639  24.951  0.00  0.00    +0.150 HD
BRANCH   9  29
ATOM     29  C   UNL     1       0.480   1.121  27.002  0.00  0.00    +0.163 C 
BRANCH  29  32
ATOM      4  O   UNL     1      -0.034   2.344  29.038  0.00  0.00    -0.274 OA
ATOM     11  N   UNL     1       1.956   2.770  27.973  0.00  0.00    -0.328 N 
ATOM     32  C   UNL     1       0.738   2.138  28.103  0.00  0.00    +0.231 C 
ATOM     44  H   UNL     1       2.258   3.464  28.649  0.00  0.00    +0.145 HD
ATOM     45  H   UNL     1       2.593   2.573  27.207  0.00  0.00    +0.145 HD
ENDBRANCH  29  32
BRANCH  29  30
ATOM     30  C   UNL     1      -0.604   0.127  27.435  0.00  0.00    +0.069 C 
BRANCH  30  31
ATOM     10  N   UNL     1      -0.976  -2.422  24.802  0.00  0.00    -0.360 N 
ATOM     31  C   UNL     1      -1.019  -0.806  26.324  0.00  0.00    -0.020 A 
ATOM     33  C   UNL     1      -2.271  -0.816  25.649  0.00  0.00    +0.003 A 
ATOM     34  C   UNL     1      -0.243  -1.804  25.782  0.00  0.00    +0.087 A 
ATOM     35  C   UNL     1      -2.218  -1.839  24.700  0.00  0.00    +0.047 A 
ATOM     36  C   UNL     1      -3.450  -0.051  25.755  0.00  0.00    +0.010 A 
ATOM     37  C   UNL     1      -3.288  -2.136  23.849  0.00  0.00    +0.026 A 
ATOM     38  C   UNL     1      -4.529  -0.336  24.910  0.00  0.00    +0.001 A 
ATOM     39  C   UNL     1      -4.446  -1.363  23.972  0.00  0.00    +0.002 A 
ATOM     43  H   UNL     1      -0.651  -3.194  24.236  0.00  0.00    +0.165 HD
ENDBRANCH  30  31
ENDBRANCH  29  30
ENDBRANCH   9  29
ENDBRANCH  12  26
TORSDOF 7
ENDMDL
MODEL 2
REMARK VINA RESULT:      12.0      1.786      6.926
REMARK  Name = 45361714
REMARK  7 active torsions:
REMARK  status: ('A' for Active; 'I' for Inactive)
REMARK    1  A    between atoms: N_9  and  C_29
REMARK    2  A    between atoms: C_12  and  C_26
REMARK    3  A    between atoms: C_14  and  C_18
REMARK    4  A    between atoms: C_16  and  C_19
REMARK    5  A    between atoms: C_29  and  C_30
REMARK    6  A    between atoms: C_29  and  C_32
REMARK    7  A    between atoms: C_30  and  C_31
REMARK                            x       y       z     vdW  Elec       q    Type
REMARK                         _______ _______ _______ _____ _____    ______ ____
ROOT
ATOM      1  O   UNL     1       2.713  -0.077  21.275  0.00  0.00    -0.275 OA
ATOM      2  O   UNL     1      -2.859  -1.486  25.825  0.00  0.00    -0.275 OA
ATOM      5  N   UNL     1       1.202  -0.255  23.034  0.00  0.00    -0.287 N 
ATOM      6  N   UNL     1      -1.435  -0.952  24.068  0.00  0.00    -0.298 N 
ATOM     12  C   UNL     1       0.917  -0.231  24.475  0.00  0.00    +0.179 C 
ATOM     13  C   UNL     1      -0.226  -1.167  24.867  0.00  0.00    +0.139 C 
ATOM     15  C   UNL     1       0.166  -0.820  22.167  0.00  0.00    +0.127 C 
ATOM     17  C   UNL     1      -1.244  -0.543  22.672  0.00  0.00    +0.127 C 
ATOM     18  C   UNL     1       2.438   0.077  22.468  0.00  0.00    +0.219 C 
ATOM     19  C   UNL     1      -2.689  -1.142  24.653  0.00  0.00    +0.219 C 
ENDROOT
BRANCH  18  14
ATOM      7  N   UNL     1       5.998  -0.825  23.135  0.00  0.00    -0.316 NA
ATOM     14  C   UNL     1       3.475   0.647  23.395  0.00  0.00    +0.078 C 
ATOM     20  C   UNL     1       3.926  -0.399  24.417  0.00  0.00    +0.028 C 
ATOM     21  C   UNL     1       4.668   1.192  22.607  0.00  0.00    +0.028 C 
ATOM     24  C   UNL     1       4.855  -1.448  23.803  0.00  0.00    +0.081 C 
ATOM     25  C   UNL     1       5.566   0.077  22.069  0.00  0.00    +0.081 C 
ATOM     40  H   UNL     1       6.595  -1.552  22.742  0.00  0.00    +0.122 HD
ENDBRANCH  18  14
BRANCH  19  16
ATOM      8  N   UNL     1      -5.045   1.730  24.292  0.00  0.00    -0.316 NA
ATOM     16  C   UNL     1      -3.877  -0.908  23.765  0.00  0.00    +0.078 C 
ATOM     22  C   UNL     1      -3.644   0.293  22.847  0.00  0.00    +0.028 C 
ATOM     23  C   UNL     1      -5.150  -0.722  24.595  0.00  0.00    +0.028 C 
ATOM     27  C   UNL     1      -3.766   1.624  23.591  0.00  0.00    +0.081 C 
ATOM     28  C   UNL     1      -5.209   0.652  25.266  0.00  0.00    +0.081 C 
ATOM     41  H   UNL     1      -5.092   2.628  24.773  0.00  0.00    +0.122 HD
ENDBRANCH  19  16
BRANCH  12  26
ATOM      3  O   UNL     1       0.571   2.090  24.027  0.00  0.00    -0.274 OA
ATOM      9  N   UNL     1       0.298   1.311  26.203  0.00  0.00    -0.302 N 
ATOM     26  C   UNL     1       0.574   1.182  24.853  0.00  0.00    +0.236 C 
ATOM     42  H   UNL     1       0.261   0.476  26.782  0.00  0.00    +0.150 HD
BRANCH   9  29
ATOM     29  C   UNL     1      -0.038   2.572  26.824  0.00  0.00    +0.163 C 
BRANCH  29  32
ATOM      4  O   UNL     1       0.145   2.593  29.247  0.00  0.00    -0.274 OA
ATOM     11  N   UNL     1       2.071   2.668  27.999  0.00  0.00    -0.328 N 
ATOM     32  C   UNL     1       0.702   2.628  28.152  0.00  0.00    +0.231 C 
ATOM     44  H   UNL     1       2.685   2.695  28.807  0.00  0.00    +0.145 HD
ATOM     45  H   UNL     1       2.519   2.674  27.088  0.00  0.00    +0.145 HD
ENDBRANCH  29  32
BRANCH  29  30
ATOM     30  C   UNL     1       0.345   3.770  25.948  0.00  0.00    +0.069 C 
BRANCH  30  31
ATOM     10  N   UNL     1      -2.074   5.566  23.828  0.00  0.00    -0.360 N 
ATOM     31  C   UNL     1      -0.843   4.391  25.254  0.00  0.00    -0.020 A 
ATOM     33  C   UNL     1      -2.210   4.234  25.612  0.00  0.00    +0.003 A 
ATOM     34  C   UNL     1      -0.790   5.215  24.153  0.00  0.00    +0.087 A 
ATOM     35  C   UNL     1      -2.962   4.980  24.702  0.00  0.00    +0.047 A 
ATOM     36  C   UNL     1      -2.885   3.525  26.627  0.00  0.00    +0.010 A 
ATOM     37  C   UNL     1      -4.357   5.054  24.756  0.00  0.00    +0.026 A 
ATOM     38  C   UNL     1      -4.281   3.590  26.693  0.00  0.00    +0.001 A 
ATOM     39  C   UNL     1      -5.004   4.344  25.771  0.00  0.00    +0.002 A 
ATOM     43  H   UNL     1      -2.332   6.168  23.058  0.00  0.00    +0.165 HD
ENDBRANCH  30  31
ENDBRANCH  29  30
ENDBRANCH   9  29
ENDBRANCH  12  26
TORSDOF 7
ENDMDL
MODEL 3
REMARK VINA RESULT:      12.5      2.219      4.401
REMARK  Name = 45361714
REMARK  7 active torsions:
REMARK  status: ('A' for Active; 'I' for Inactive)
REMARK    1  A    between atoms: N_9  and  C_29
REMARK    2  A    between atoms: C_12  and  C_26
REMARK    3  A    between atoms: C_14  and  C_18
REMARK    4  A    between atoms: C_16  and  C_19
REMARK    5  A    between atoms: C_29  and  C_30
REMARK    6  A    between atoms: C_29  and  C_32
REMARK    7  A    between atoms: C_30  and  C_31
REMARK                            x       y       z     vdW  Elec       q    Type
REMARK                         _______ _______ _______ _____ _____    ______ ____
ROOT
ATOM      1  O   UNL     1      -1.604  -2.584  24.448  0.00  0.00    -0.275 OA
ATOM      2  O   UNL     1       4.092   1.640  22.593  0.00  0.00    -0.275 OA
ATOM      5  N   UNL     1      -0.122  -0.881  23.894  0.00  0.00    -0.287 N 
ATOM      6  N   UNL     1       2.594   0.097  23.477  0.00  0.00    -0.298 N 
ATOM     12  C   UNL     1       0.130   0.463  23.356  0.00  0.00    +0.179 C 
ATOM     13  C   UNL     1       1.482   0.573  22.650  0.00  0.00    +0.139 C 
ATOM     15  C   UNL     1       1.039  -1.764  24.032  0.00  0.00    +0.127 C 
ATOM     17  C   UNL     1       2.314  -1.013  24.393  0.00  0.00    +0.127 C 
ATOM     18  C   UNL     1      -1.395  -1.411  24.129  0.00  0.00    +0.219 C 
ATOM     19  C   UNL     1       3.846   0.706  23.361  0.00  0.00    +0.219 C 
ENDROOT
BRANCH  18  14
ATOM      7  N   UNL     1      -5.016  -1.707  24.987  0.00  0.00    -0.316 NA
ATOM     14  C   UNL     1      -2.558  -0.473  23.969  0.00  0.00    +0.078 C 
ATOM     20  C   UNL     1      -3.620  -1.074  23.046  0.00  0.00    +0.028 C 
ATOM     21  C   UNL     1      -3.157  -0.111  25.330  0.00  0.00    +0.028 C 
ATOM     24  C   UNL     1      -4.429  -2.176  23.732  0.00  0.00    +0.081 C 
ATOM     25  C   UNL     1      -3.986  -1.253  25.920  0.00  0.00    +0.081 C 
ATOM     40  H   UNL     1      -5.549  -2.464  25.414  0.00  0.00    +0.122 HD
ENDBRANCH  18  14
BRANCH  19  16
ATOM      8  N   UNL     1       6.785  -1.486  22.664  0.00  0.00    -0.316 NA
ATOM     16  C   UNL     1       4.934   0.157  24.238  0.00  0.00    +0.078 C 
ATOM     22  C   UNL     1       6.306   0.665  23.787  0.00  0.00    +0.028 C 
ATOM     23  C   UNL     1       4.898  -1.373  24.259  0.00  0.00    +0.028 C 
ATOM     27  C   UNL     1       6.792  -0.032  22.515  0.00  0.00    +0.081 C 
ATOM     28  C   UNL     1       5.444  -1.984  22.967  0.00  0.00    +0.081 C 
ATOM     41  H   UNL     1       7.117  -1.915  21.800  0.00  0.00    +0.122 HD
ENDBRANCH  19  16
BRANCH  12  26
ATOM      3  O   UNL     1       0.316   1.093  25.653  0.00  0.00    -0.274 OA
ATOM      9  N   UNL     1      -0.307   2.702  24.090  0.00  0.00    -0.302 N 
ATOM     26  C   UNL     1       0.070   1.434  24.499  0.00  0.00    +0.236 C 
ATOM     42  H   UNL     1      -0.417   2.888  23.097  0.00  0.00    +0.150 HD
BRANCH   9  29
ATOM     29  C   UNL     1      -0.461   3.813  25.002  0.00  0.00    +0.163 C 
BRANCH  29  32
ATOM      4  O   UNL     1       0.233   5.158  23.100  0.00  0.00    -0.274 OA
ATOM     11  N   UNL     1      -1.042   6.145  24.735  0.00  0.00    -0.328 N 
ATOM     32  C   UNL     1      -0.357   5.087  24.175  0.00  0.00    +0.231 C 
ATOM     44  H   UNL     1      -1.064   7.051  24.279  0.00  0.00    +0.145 HD
ATOM     45  H   UNL     1      -1.544   6.066  25.614  0.00  0.00    +0.145 HD
ENDBRANCH  29  32
BRANCH  29  30
ATOM     30  C   UNL     1      -1.800   3.769  25.749  0.00  0.00    +0.069 C 
BRANCH  30  31
ATOM     10  N   UNL     1      -4.124   2.652  23.119  0.00  0.00    -0.360 N 
ATOM     31  C   UNL     1      -2.931   3.260  24.890  0.00  0.00    -0.020 A 
ATOM     33  C   UNL     1      -4.201   2.807  25.343  0.00  0.00    +0.003 A 
ATOM     34  C   UNL     1      -2.913   3.153  23.518  0.00  0.00    +0.087 A 
ATOM     35  C   UNL     1      -4.930   2.430  24.212  0.00  0.00    +0.047 A 
ATOM     36  C   UNL     1      -4.803   2.678  26.611  0.00  0.00    +0.010 A 
ATOM     37  C   UNL     1      -6.235   1.931  24.287  0.00  0.00    +0.026 A 
ATOM     38  C   UNL     1      -6.108   2.181  26.700  0.00  0.00    +0.001 A 
ATOM     39  C   UNL     1      -6.811   1.814  25.555  0.00  0.00    +0.002 A 
ATOM     43  H   UNL     1      -4.388   2.471  22.160  0.00  0.00    +0.165 HD
ENDBRANCH  30  31
ENDBRANCH  29  30
ENDBRANCH   9  29
ENDBRANCH  12  26
TORSDOF 7
ENDMDL
MODEL 4
REMARK VINA RESULT:      13.2      1.849      4.355
REMARK  Name = 45361714
REMARK  7 active torsions:
REMARK  status: ('A' for Active; 'I' for Inactive)
REMARK    1  A    between atoms: N_9  and  C_29
REMARK    2  A    between atoms: C_12  and  C_26
REMARK    3  A    between atoms: C_14  and  C_18
REMARK    4  A    between atoms: C_16  and  C_19
REMARK    5  A    between atoms: C_29  and  C_30
REMARK    6  A    between atoms: C_29  and  C_32
REMARK    7  A    between atoms: C_30  and  C_31
REMARK                            x       y       z     vdW  Elec       q    Type
REMARK                         _______ _______ _______ _____ _____    ______ ____
ROOT
ATOM      1  O   UNL     1      -4.400   0.020  26.160  0.00  0.00    -0.275 OA
ATOM      2  O   UNL     1       1.056  -0.286  21.276  0.00  0.00    -0.275 OA
ATOM      5  N   UNL     1      -2.911   0.288  24.395  0.00  0.00    -0.287 N 
ATOM      6  N   UNL     1      -0.325  -0.218  23.143  0.00  0.00    -0.298 N 
ATOM     12  C   UNL     1      -2.632   0.721  23.019  0.00  0.00    +0.179 C 
ATOM     13  C   UNL     1      -1.549  -0.119  22.343  0.00  0.00    +0.139 C 
ATOM     15  C   UNL     1      -1.906  -0.565  25.033  0.00  0.00    +0.127 C 
ATOM     17  C   UNL     1      -0.485  -0.230  24.601  0.00  0.00    +0.127 C 
ATOM     18  C   UNL     1      -4.122   0.505  25.061  0.00  0.00    +0.219 C 
ATOM     19  C   UNL     1       0.912  -0.295  22.500  0.00  0.00    +0.219 C 
ENDROOT
BRANCH  18  14
ATOM      7  N   UNL     1      -6.317   3.276  26.262  0.00  0.00    -0.316 NA
ATOM     14  C   UNL     1      -5.128   1.380  24.366  0.00  0.00    +0.078 C 
ATOM     20  C   UNL     1      -6.524   1.183  24.960  0.00  0.00    +0.028 C 
ATOM     21  C   UNL     1      -4.708   2.850  24.432  0.00  0.00    +0.028 C 
ATOM     24  C   UNL     1      -6.675   1.859  26.324  0.00  0.00    +0.081 C 
ATOM     25  C   UNL     1      -4.935   3.456  25.818  0.00  0.00    +0.081 C 
ATOM     40  H   UNL     1      -6.432   3.693  27.185  0.00  0.00    +0.122 HD
ENDBRANCH  18  14
BRANCH  19  16
ATOM      8  N   UNL     1       4.286   1.298  22.385  0.00  0.00    -0.316 NA
ATOM     16  C   UNL     1       2.117  -0.400  23.391  0.00  0.00    +0.078 C 
ATOM     22  C   UNL     1       2.455   0.956  24.013  0.00  0.00    +0.028 C 
ATOM     23  C   UNL     1       3.315  -0.965  22.624  0.00  0.00    +0.028 C 
ATOM     27  C   UNL     1       3.112   1.906  23.009  0.00  0.00    +0.081 C 
ATOM     28  C   UNL     1       3.935   0.067  21.679  0.00  0.00    +0.081 C 
ATOM     41  H   UNL     1       4.698   1.959  21.727  0.00  0.00    +0.122 HD
ENDBRANCH  19  16
BRANCH  12  26
ATOM      3  O   UNL     1      -2.576   2.973  22.224  0.00  0.00    -0.274 OA
ATOM      9  N   UNL     1      -1.365   2.423  24.134  0.00  0.00    -0.302 N 
ATOM     26  C   UNL     1      -2.207   2.161  23.068  0.00  0.00    +0.236 C 
ATOM     42  H   UNL     1      -1.184   1.688  24.813  0.00  0.00    +0.150 HD
BRANCH   9  29
ATOM     29  C   UNL     1      -0.797   3.727  24.392  0.00  0.00    +0.163 C 
BRANCH  29  32
ATOM      4  O   UNL     1      -2.403   4.091  26.180  0.00  0.00    -0.274 OA
ATOM     11  N   UNL     1      -2.027   5.788  24.679  0.00  0.00    -0.328 N 
ATOM     32  C   UNL     1      -1.833   4.517  25.178  0.00  0.00    +0.231 C 
ATOM     44  H   UNL     1      -2.683   6.425  25.118  0.00  0.00    +0.145 HD
ATOM     45  H   UNL     1      -1.533   6.135  23.863  0.00  0.00    +0.145 HD
ENDBRANCH  29  32
BRANCH  29  30
ATOM     30  C   UNL     1       0.518   3.643  25.175  0.00  0.00    +0.069 C 
BRANCH  30  31
ATOM     10  N   UNL     1      -0.358   1.405  27.966  0.00  0.00    -0.360 N 
ATOM     31  C   UNL     1       0.391   2.838  26.445  0.00  0.00    -0.020 A 
ATOM     33  C   UNL     1       1.256   2.893  27.573  0.00  0.00    +0.003 A 
ATOM     34  C   UNL     1      -0.592   1.915  26.716  0.00  0.00    +0.087 A 
ATOM     35  C   UNL     1       0.765   1.984  28.512  0.00  0.00    +0.047 A 
ATOM     36  C   UNL     1       2.416   3.630  27.886  0.00  0.00    +0.010 A 
ATOM     37  C   UNL     1       1.376   1.775  29.753  0.00  0.00    +0.026 A 
ATOM     38  C   UNL     1       3.038   3.431  29.124  0.00  0.00    +0.001 A 
ATOM     39  C   UNL     1       2.524   2.518  30.042  0.00  0.00    +0.002 A 
ATOM     43  H   UNL     1      -0.928   0.705  28.421  0.00  0.00    +0.165 HD
ENDBRANCH  30  31
ENDBRANCH  29  30
ENDBRANCH   9  29
ENDBRANCH  12  26
TORSDOF 7
ENDMDL
MODEL 5
REMARK VINA RESULT:      13.6      1.949      4.207
REMARK  Name = 45361714
REMARK  7 active torsions:
REMARK  status: ('A' for Active; 'I' for Inactive)
REMARK    1  A    between atoms: N_9  and  C_29
REMARK    2  A    between atoms: C_12  and  C_26
REMARK    3  A    between atoms: C_14  and  C_18
REMARK    4  A    between atoms: C_16  and  C_19
REMARK    5  A    between atoms: C_29  and  C_30
REMARK    6  A    between atoms: C_29  and  C_32
REMARK    7  A    between atoms: C_30  and  C_31
REMARK                            x       y       z     vdW  Elec       q    Type
REMARK                         _______ _______ _______ _____ _____    ______ ____
ROOT
ATOM      1  O   UNL     1      -1.646  -2.401  25.146  0.00  0.00    -0.275 OA
ATOM      2  O   UNL     1       3.967   1.217  22.124  0.00  0.00    -0.275 OA
ATOM      5  N   UNL     1      -0.192  -0.894  24.135  0.00  0.00    -0.287 N 
ATOM      6  N   UNL     1       2.504  -0.051  23.412  0.00  0.00    -0.298 N 
ATOM     12  C   UNL     1       0.035   0.268  23.265  0.00  0.00    +0.179 C 
ATOM     13  C   UNL     1       1.368   0.195  22.520  0.00  0.00    +0.139 C 
ATOM     15  C   UNL     1       0.979  -1.711  24.465  0.00  0.00    +0.127 C 
ATOM     17  C   UNL     1       2.256  -0.890  24.588  0.00  0.00    +0.127 C 
ATOM     18  C   UNL     1      -1.454  -1.349  24.532  0.00  0.00    +0.219 C 
ATOM     19  C   UNL     1       3.748   0.510  23.111  0.00  0.00    +0.219 C 
ENDROOT
BRANCH  18  14
ATOM      7  N   UNL     1      -5.129  -1.997  24.417  0.00  0.00    -0.316 NA
ATOM     14  C   UNL     1      -2.629  -0.484  24.167  0.00  0.00    +0.078 C 
ATOM     20  C   UNL     1      -3.370  -1.054  22.956  0.00  0.00    +0.028 C 
ATOM     21  C   UNL     1      -3.575  -0.320  25.359  0.00  0.00    +0.028 C 
ATOM     24  C   UNL     1      -4.210  -2.281  23.314  0.00  0.00    +0.081 C 
ATOM     25  C   UNL     1      -4.407  -1.577  25.617  0.00  0.00    +0.081 C 
ATOM     40  H   UNL     1      -5.673  -2.834  24.626  0.00  0.00    +0.122 HD
ENDBRANCH  18  14
BRANCH  19  16
ATOM      8  N   UNL     1       6.864  -1.520  22.799  0.00  0.00    -0.316 NA
ATOM     16  C   UNL     1       4.862   0.206  24.070  0.00  0.00    +0.078 C 
ATOM     22  C   UNL     1       6.196   0.741  23.545  0.00  0.00    +0.028 C 
ATOM     23  C   UNL     1       4.948  -1.297  24.348  0.00  0.00    +0.028 C 
ATOM     27  C   UNL     1       6.757  -0.116  22.409  0.00  0.00    +0.081 C 
ATOM     28  C   UNL     1       5.562  -2.068  23.177  0.00  0.00    +0.081 C 
ATOM     41  H   UNL     1       7.243  -2.059  22.021  0.00  0.00    +0.122 HD
ENDBRANCH  19  16
BRANCH  12  26
ATOM      3  O   UNL     1       0.603   2.521  23.817  0.00  0.00    -0.274 OA
ATOM      9  N   UNL     1      -0.769   1.320  25.263  0.00  0.00    -0.302 N 
ATOM     26  C   UNL     1      -0.005   1.500  24.123  0.00  0.00    +0.236 C 
ATOM     42  H   UNL     1      -1.287   0.453  25.379  0.00  0.00    +0.150 HD
BRANCH   9  29
ATOM     29  C   UNL     1      -0.949   2.347  26.264  0.00  0.00    +0.163 C 
BRANCH  29  32
ATOM      4  O   UNL     1       1.197   3.486  26.248  0.00  0.00    -0.274 OA
ATOM     11  N   UNL     1       0.714   2.077  27.996  0.00  0.00    -0.328 N 
ATOM     32  C   UNL     1       0.431   2.698  26.798  0.00  0.00    +0.231 C 
ATOM     44  H   UNL     1       1.599   2.235  28.469  0.00  0.00    +0.145 HD
ATOM     45  H   UNL     1       0.063   1.445  28.451  0.00  0.00    +0.145 HD
ENDBRANCH  29  32
BRANCH  29  30
ATOM     30  C   UNL     1      -1.636   3.595  25.698  0.00  0.00    +0.069 C 
BRANCH  30  31
ATOM     10  N   UNL     1      -4.119   2.937  23.058  0.00  0.00    -0.360 N 
ATOM     31  C   UNL     1      -2.829   3.264  24.835  0.00  0.00    -0.020 A 
ATOM     33  C   UNL     1      -4.115   2.856  25.287  0.00  0.00    +0.003 A 
ATOM     34  C   UNL     1      -2.862   3.304  23.460  0.00  0.00    +0.087 A 
ATOM     35  C   UNL     1      -4.905   2.657  24.152  0.00  0.00    +0.047 A 
ATOM     36  C   UNL     1      -4.685   2.635  26.556  0.00  0.00    +0.010 A 
ATOM     37  C   UNL     1      -6.241   2.248  24.224  0.00  0.00    +0.026 A 
ATOM     38  C   UNL     1      -6.021   2.226  26.644  0.00  0.00    +0.001 A 
ATOM     39  C   UNL     1      -6.785   2.036  25.494  0.00  0.00    +0.002 A 
ATOM     43  H   UNL     1      -4.425   2.880  22.096  0.00  0.00    +0.165 HD
ENDBRANCH  30  31
ENDBRANCH  29  30
ENDBRANCH   9  29
ENDBRANCH  12  26
TORSDOF 7
ENDMDL
MODEL 6
REMARK VINA RESULT:      15.3      1.261      6.312
REMARK  Name = 45361714
REMARK  7 active torsions:
REMARK  status: ('A' for Active; 'I' for Inactive)
REMARK    1  A    between atoms: N_9  and  C_29
REMARK    2  A    between atoms: C_12  and  C_26
REMARK    3  A    between atoms: C_14  and  C_18
REMARK    4  A    between atoms: C_16  and  C_19
REMARK    5  A    between atoms: C_29  and  C_30
REMARK    6  A    between atoms: C_29  and  C_32
REMARK    7  A    between atoms: C_30  and  C_31
REMARK                            x       y       z     vdW  Elec       q    Type
REMARK                         _______ _______ _______ _____ _____    ______ ____
ROOT
ATOM      1  O   UNL     1       3.784   2.238  22.798  0.00  0.00    -0.275 OA
ATOM      2  O   UNL     1      -3.529   2.032  23.248  0.00  0.00    -0.275 OA
ATOM      5  N   UNL     1       1.534   1.697  23.027  0.00  0.00    -0.287 N 
ATOM      6  N   UNL     1      -1.253   2.484  23.375  0.00  0.00    -0.298 N 
ATOM     12  C   UNL     1       0.449   0.709  22.960  0.00  0.00    +0.179 C 
ATOM     13  C   UNL     1      -0.889   1.327  22.553  0.00  0.00    +0.139 C 
ATOM     15  C   UNL     1       1.139   3.106  23.088  0.00  0.00    +0.127 C 
ATOM     17  C   UNL     1      -0.155   3.324  23.862  0.00  0.00    +0.127 C 
ATOM     18  C   UNL     1       2.891   1.391  22.880  0.00  0.00    +0.219 C 
ATOM     19  C   UNL     1      -2.599   2.732  23.654  0.00  0.00    +0.219 C 
ENDROOT
BRANCH  18  14
ATOM      7  N   UNL     1       6.083  -0.453  23.474  0.00  0.00    -0.316 NA
ATOM     14  C   UNL     1       3.252  -0.067  22.813  0.00  0.00    +0.078 C 
ATOM     20  C   UNL     1       4.318  -0.317  21.745  0.00  0.00    +0.028 C 
ATOM     21  C   UNL     1       3.715  -0.577  24.180  0.00  0.00    +0.028 C 
ATOM     24  C   UNL     1       5.706   0.145  22.193  0.00  0.00    +0.081 C 
ATOM     25  C   UNL     1       5.129  -0.104  24.525  0.00  0.00    +0.081 C 
ATOM     40  H   UNL     1       7.011  -0.126  23.738  0.00  0.00    +0.122 HD
ENDBRANCH  18  14
BRANCH  19  16
ATOM      8  N   UNL     1      -5.217   3.455  26.214  0.00  0.00    -0.316 NA
ATOM     16  C   UNL     1      -2.889   3.941  24.497  0.00  0.00    +0.078 C 
ATOM     22  C   UNL     1      -2.759   3.610  25.985  0.00  0.00    +0.028 C 
ATOM     23  C   UNL     1      -4.277   4.506  24.181  0.00  0.00    +0.028 C 
ATOM     27  C   UNL     1      -3.946   2.795  26.503  0.00  0.00    +0.081 C 
ATOM     28  C   UNL     1      -5.399   3.652  24.776  0.00  0.00    +0.081 C 
ATOM     41  H   UNL     1      -5.982   2.886  26.575  0.00  0.00    +0.122 HD
ENDBRANCH  19  16
BRANCH  12  26
ATOM      3  O   UNL     1       0.363  -1.150  24.458  0.00  0.00    -0.274 OA
ATOM      9  N   UNL     1       0.150   1.002  25.320  0.00  0.00    -0.302 N 
ATOM     26  C   UNL     1       0.326   0.069  24.313  0.00  0.00    +0.236 C 
ATOM     42  H   UNL     1       0.207   1.991  25.093  0.00  0.00    +0.150 HD
BRANCH   9  29
ATOM     29  C   UNL     1      -0.016   0.643  26.710  0.00  0.00    +0.163 C 
BRANCH  29  32
ATOM      4  O   UNL     1       0.236   1.924  28.760  0.00  0.00    -0.274 OA
ATOM     11  N   UNL     1       0.647   2.966  26.756  0.00  0.00    -0.328 N 
ATOM     32  C   UNL     1       0.277   1.889  27.532  0.00  0.00    +0.231 C 
ATOM     44  H   UNL     1       0.883   3.858  27.179  0.00  0.00    +0.145 HD
ATOM     45  H   UNL     1       0.699   2.917  25.743  0.00  0.00    +0.145 HD
ENDBRANCH  29  32
BRANCH  29  30
ATOM     30  C   UNL     1      -1.428   0.125  27.011  0.00  0.00    +0.069 C 
BRANCH  30  31
ATOM     10  N   UNL     1      -1.760  -3.060  25.191  0.00  0.00    -0.360 N 
ATOM     31  C   UNL     1      -1.806  -1.065  26.162  0.00  0.00    -0.020 A 
ATOM     33  C   UNL     1      -2.958  -1.184  25.337  0.00  0.00    +0.003 A 
ATOM     34  C   UNL     1      -1.089  -2.233  26.052  0.00  0.00    +0.087 A 
ATOM     35  C   UNL     1      -2.906  -2.446  24.740  0.00  0.00    +0.047 A 
ATOM     36  C   UNL     1      -4.046  -0.339  25.040  0.00  0.00    +0.010 A 
ATOM     37  C   UNL     1      -3.889  -2.905  23.856  0.00  0.00    +0.026 A 
ATOM     38  C   UNL     1      -5.037  -0.785  24.158  0.00  0.00    +0.001 A 
ATOM     39  C   UNL     1      -4.958  -2.048  23.576  0.00  0.00    +0.002 A 
ATOM     43  H   UNL     1      -1.458  -3.988  24.925  0.00  0.00    +0.165 HD
ENDBRANCH  30  31
ENDBRANCH  29  30
ENDBRANCH   9  29
ENDBRANCH  12  26
TORSDOF 7
ENDMDL
MODEL 7
REMARK VINA RESULT:      15.7      2.121      6.663
REMARK  Name = 45361714
REMARK  7 active torsions:
REMARK  status: ('A' for Active; 'I' for Inactive)
REMARK    1  A    between atoms: N_9  and  C_29
REMARK    2  A    between atoms: C_12  and  C_26
REMARK    3  A    between atoms: C_14  and  C_18
REMARK    4  A    between atoms: C_16  and  C_19
REMARK    5  A    between atoms: C_29  and  C_30
REMARK    6  A    between atoms: C_29  and  C_32
REMARK    7  A    between atoms: C_30  and  C_31
REMARK                            x       y       z     vdW  Elec       q    Type
REMARK                         _______ _______ _______ _____ _____    ______ ____
ROOT
ATOM      1  O   UNL     1       3.614   1.449  24.188  0.00  0.00    -0.275 OA
ATOM      2  O   UNL     1      -3.506   2.346  22.696  0.00  0.00    -0.275 OA
ATOM      5  N   UNL     1       1.395   1.291  23.512  0.00  0.00    -0.287 N 
ATOM      6  N   UNL     1      -1.367   2.225  23.597  0.00  0.00    -0.298 N 
ATOM     12  C   UNL     1       0.373   0.732  22.616  0.00  0.00    +0.179 C 
ATOM     13  C   UNL     1      -0.781   1.701  22.360  0.00  0.00    +0.139 C 
ATOM     15  C   UNL     1       1.006   2.456  24.310  0.00  0.00    +0.127 C 
ATOM     17  C   UNL     1      -0.457   2.424  24.730  0.00  0.00    +0.127 C 
ATOM     18  C   UNL     1       2.733   0.884  23.534  0.00  0.00    +0.219 C 
ATOM     19  C   UNL     1      -2.734   2.508  23.643  0.00  0.00    +0.219 C 
ENDROOT
BRANCH  18  14
ATOM      7  N   UNL     1       5.856  -1.138  23.217  0.00  0.00    -0.316 NA
ATOM     14  C   UNL     1       3.091  -0.311  22.696  0.00  0.00    +0.078 C 
ATOM     20  C   UNL     1       4.240   0.016  21.741  0.00  0.00    +0.028 C 
ATOM     21  C   UNL     1       3.438  -1.512  23.579  0.00  0.00    +0.028 C 
ATOM     24  C   UNL     1       5.589   0.085  22.460  0.00  0.00    +0.081 C 
ATOM     25  C   UNL     1       4.820  -1.379  24.221  0.00  0.00    +0.081 C 
ATOM     40  H   UNL     1       6.761  -1.057  23.679  0.00  0.00    +0.122 HD
ENDBRANCH  18  14
BRANCH  19  16
ATOM      8  N   UNL     1      -2.559   5.884  25.228  0.00  0.00    -0.316 NA
ATOM     16  C   UNL     1      -3.255   3.049  24.945  0.00  0.00    +0.078 C 
ATOM     22  C   UNL     1      -4.265   4.172  24.703  0.00  0.00    +0.028 C 
ATOM     23  C   UNL     1      -2.106   3.529  25.835  0.00  0.00    +0.028 C 
ATOM     27  C   UNL     1      -3.590   5.476  24.275  0.00  0.00    +0.081 C 
ATOM     28  C   UNL     1      -1.522   4.861  25.359  0.00  0.00    +0.081 C 
ATOM     41  H   UNL     1      -2.135   6.755  24.913  0.00  0.00    +0.122 HD
ENDBRANCH  19  16
BRANCH  12  26
ATOM      3  O   UNL     1      -0.095  -1.610  22.660  0.00  0.00    -0.274 OA
ATOM      9  N   UNL     1      -0.687  -0.309  24.497  0.00  0.00    -0.302 N 
ATOM     26  C   UNL     1      -0.147  -0.530  23.241  0.00  0.00    +0.236 C 
ATOM     42  H   UNL     1      -0.611   0.617  24.911  0.00  0.00    +0.150 HD
BRANCH   9  29
ATOM     29  C   UNL     1      -1.276  -1.356  25.300  0.00  0.00    +0.163 C 
BRANCH  29  32
ATOM      4  O   UNL     1       0.670  -2.674  25.921  0.00  0.00    -0.274 OA
ATOM     11  N   UNL     1      -0.246  -1.262  27.484  0.00  0.00    -0.328 N 
ATOM     32  C   UNL     1      -0.192  -1.859  26.242  0.00  0.00    +0.231 C 
ATOM     44  H   UNL     1       0.428  -1.498  28.205  0.00  0.00    +0.145 HD
ATOM     45  H   UNL     1      -0.951  -0.573  27.729  0.00  0.00    +0.145 HD
ENDBRANCH  29  32
BRANCH  29  30
ATOM     30  C   UNL     1      -2.490  -0.864  26.096  0.00  0.00    +0.069 C 
BRANCH  30  31
ATOM     10  N   UNL     1      -5.080  -0.501  23.502  0.00  0.00    -0.360 N 
ATOM     31  C   UNL     1      -3.667  -0.525  25.214  0.00  0.00    -0.020 A 
ATOM     33  C   UNL     1      -4.705   0.402  25.507  0.00  0.00    +0.003 A 
ATOM     34  C   UNL     1      -3.925  -1.064  23.975  0.00  0.00    +0.087 A 
ATOM     35  C   UNL     1      -5.579   0.398  24.417  0.00  0.00    +0.047 A 
ATOM     36  C   UNL     1      -4.988   1.247  26.598  0.00  0.00    +0.010 A 
ATOM     37  C   UNL     1      -6.724   1.200  24.364  0.00  0.00    +0.026 A 
ATOM     38  C   UNL     1      -6.131   2.055  26.559  0.00  0.00    +0.001 A 
ATOM     39  C   UNL     1      -6.984   2.030  25.458  0.00  0.00    +0.002 A 
ATOM     43  H   UNL     1      -5.505  -0.714  22.610  0.00  0.00    +0.165 HD
ENDBRANCH  30  31
ENDBRANCH  29  30
ENDBRANCH   9  29
ENDBRANCH  12  26
TORSDOF 7
ENDMDL
