MODEL 1
REMARK VINA RESULT:       4.9      0.000      0.000
REMARK  Name = 75537129
REMARK  3 active torsions:
REMARK  status: ('A' for Active; 'I' for Inactive)
REMARK    1  A    between atoms: N_4  and  C_11
REMARK    2  A    between atoms: N_5  and  C_10
REMARK    3  A    between atoms: C_24  and  C_25
REMARK                            x       y       z     vdW  Elec       q    Type
REMARK                         _______ _______ _______ _____ _____    ______ ____
ROOT
ATOM      1  O   UNL     1      -3.290  -0.481  26.125  0.00  0.00    -0.252 OA
ATOM      3  N   UNL     1      -1.819  -0.290  24.302  0.00  0.00    -0.278 N 
ATOM      4  N   UNL     1       0.543  -0.549  22.797  0.00  0.00    -0.296 NA
ATOM      5  N   UNL     1      -3.055   1.500  24.865  0.00  0.00    -0.281 N 
ATOM      7  C   UNL     1      -1.530   0.689  23.275  0.00  0.00    +0.109 C 
ATOM      8  C   UNL     1      -0.022   0.792  23.048  0.00  0.00    +0.108 C 
ATOM      9  C   UNL     1      -2.191   1.965  23.793  0.00  0.00    +0.133 C 
ATOM     12  C   UNL     1      -1.195  -1.595  24.234  0.00  0.00    +0.125 C 
ATOM     13  C   UNL     1       0.301  -1.445  23.946  0.00  0.00    +0.104 C 
ATOM     14  C   UNL     1      -2.788   0.159  25.211  0.00  0.00    +0.305 C 
ENDROOT
BRANCH   4  11
ATOM      2  O   UNL     1       6.301  -0.698  24.948  0.00  0.00    -0.276 OA
ATOM      6  N   UNL     1       4.686  -0.004  23.429  0.00  0.00    -0.302 N 
ATOM     11  C   UNL     1       1.974  -0.453  22.520  0.00  0.00    +0.060 C 
ATOM     17  C   UNL     1       2.738  -1.511  23.328  0.00  0.00    +0.038 C 
ATOM     18  C   UNL     1       2.485   0.953  22.861  0.00  0.00    +0.038 C 
ATOM     22  C   UNL     1       4.245  -1.367  23.127  0.00  0.00    +0.109 C 
ATOM     23  C   UNL     1       3.998   1.047  22.670  0.00  0.00    +0.109 C 
ATOM     24  C   UNL     1       5.713   0.206  24.348  0.00  0.00    +0.212 C 
ATOM     25  C   UNL     1       6.107   1.638  24.607  0.00  0.00    +0.109 C 
ENDBRANCH   4  11
BRANCH   5  10
ATOM     10  C   UNL     1      -3.954   2.387  25.562  0.00  0.00    +0.078 C 
ATOM     15  C   UNL     1      -3.530   3.846  25.375  0.00  0.00    +0.022 C 
ATOM     16  C   UNL     1      -5.396   2.162  25.099  0.00  0.00    +0.022 C 
ATOM     19  C   UNL     1      -4.499   4.805  26.059  0.00  0.00    +0.002 C 
ATOM     20  C   UNL     1      -6.363   3.125  25.782  0.00  0.00    +0.002 C 
ATOM     21  C   UNL     1      -5.936   4.578  25.597  0.00  0.00    +0.000 C 
ENDBRANCH   5  10
TORSDOF 2
ENDMDL
