MODEL 1
REMARK VINA RESULT:       8.5      0.000      0.000
REMARK  Name = 11912117
REMARK  3 active torsions:
REMARK  status: ('A' for Active; 'I' for Inactive)
REMARK    1  A    between atoms: N_7  and  C_18
REMARK    2  A    between atoms: N_8  and  C_26
REMARK    3  A    between atoms: N_9  and  C_29
REMARK                            x       y       z     vdW  Elec       q    Type
REMARK                         _______ _______ _______ _____ _____    ______ ____
ROOT
ATOM      2  O   UNL     1      -4.681  -0.536  23.632  0.00  0.00    -0.253 OA
ATOM      3  O   UNL     1      -0.148   2.749  25.916  0.00  0.00    -0.266 OA
ATOM      5  N   UNL     1      -4.910   1.305  25.028  0.00  0.00    -0.285 N 
ATOM      6  N   UNL     1      -2.263   3.146  25.006  0.00  0.00    -0.310 N 
ATOM      7  N   UNL     1      -4.342  -0.826  25.882  0.00  0.00    -0.296 N 
ATOM     10  C   UNL     1      -4.377   3.317  26.436  0.00  0.00    +0.027 C 
ATOM     11  C   UNL     1      -4.536   3.548  23.998  0.00  0.00    +0.054 C 
ATOM     12  C   UNL     1      -4.898   4.214  25.322  0.00  0.00    +0.018 C 
ATOM     13  C   UNL     1      -5.012   1.916  26.363  0.00  0.00    +0.114 C 
ATOM     14  C   UNL     1      -5.246   2.188  23.904  0.00  0.00    +0.119 C 
ATOM     15  C   UNL     1      -2.847   3.258  26.348  0.00  0.00    +0.130 C 
ATOM     16  C   UNL     1      -3.037   3.361  23.862  0.00  0.00    +0.027 A 
ATOM     17  C   UNL     1      -4.645  -0.052  24.768  0.00  0.00    +0.302 C 
ATOM     19  C   UNL     1      -2.460   3.373  22.649  0.00  0.00    +0.024 A 
ATOM     20  C   UNL     1      -0.873   2.923  24.936  0.00  0.00    +0.273 A 
ATOM     26  C   UNL     1      -0.273   2.918  23.564  0.00  0.00    +0.100 A 
ATOM     27  C   UNL     1      -1.050   3.144  22.500  0.00  0.00    +0.030 A 
ATOM     35  H   UNL     1      -4.461  -0.460  26.815  0.00  0.00    +0.151 HD
ENDROOT
BRANCH  26   8
ATOM      4  O   UNL     1       1.020   0.392  23.760  0.00  0.00    -0.252 OA
ATOM      8  N   UNL     1       1.067   2.690  23.453  0.00  0.00    -0.265 N 
ATOM      9  N   UNL     1       3.044   1.524  23.398  0.00  0.00    -0.269 N 
ATOM     28  C   UNL     1       1.657   1.423  23.557  0.00  0.00    +0.308 C 
ATOM     36  H   UNL     1       1.680   3.496  23.543  0.00  0.00    +0.157 HD
ATOM     37  H   UNL     1       3.415   2.457  23.232  0.00  0.00    +0.156 HD
BRANCH   9  29
ATOM      1  F   UNL     1       7.589   0.045  23.197  0.00  0.00    -0.205 F 
ATOM     29  C   UNL     1       4.000   0.483  23.433  0.00  0.00    +0.037 A 
ATOM     30  C   UNL     1       5.343   0.790  23.294  0.00  0.00    +0.061 A 
ATOM     31  C   UNL     1       3.573  -0.823  23.609  0.00  0.00    +0.023 A 
ATOM     32  C   UNL     1       6.287  -0.237  23.331  0.00  0.00    +0.125 A 
ATOM     33  C   UNL     1       4.517  -1.850  23.645  0.00  0.00    +0.005 A 
ATOM     34  C   UNL     1       5.873  -1.557  23.506  0.00  0.00    +0.038 A 
ENDBRANCH   9  29
ENDBRANCH  26   8
BRANCH   7  18
ATOM     18  C   UNL     1      -4.052  -2.240  25.782  0.00  0.00    +0.074 C 
ATOM     21  C   UNL     1      -2.760  -2.592  26.528  0.00  0.00    +0.022 C 
ATOM     22  C   UNL     1      -3.985  -2.685  24.316  0.00  0.00    +0.022 C 
ATOM     23  C   UNL     1      -1.512  -2.075  25.811  0.00  0.00    +0.002 C 
ATOM     24  C   UNL     1      -2.735  -2.169  23.604  0.00  0.00    +0.002 C 
ATOM     25  C   UNL     1      -1.463  -2.541  24.359  0.00  0.00    +0.000 C 
ENDBRANCH   7  18
TORSDOF 3
ENDMDL
