MODEL 1
REMARK VINA RESULT:      -6.3      0.000      0.000
REMARK  Name = 38027563
REMARK  11 active torsions:
REMARK  status: ('A' for Active; 'I' for Inactive)
REMARK    1  A    between atoms: N_4  and  C_11
REMARK    2  A    between atoms: N_5  and  C_23
REMARK    3  A    between atoms: C_6  and  C_10
REMARK    4  A    between atoms: C_7  and  C_11
REMARK    5  A    between atoms: C_9  and  C_17
REMARK    6  A    between atoms: C_10  and  C_19
REMARK    7  A    between atoms: C_10  and  C_20
REMARK    8  A    between atoms: C_12  and  C_21
REMARK    9  A    between atoms: C_13  and  C_18
REMARK   10  A    between atoms: C_17  and  C_22
REMARK   11  A    between atoms: C_23  and  C_24
REMARK                            x       y       z     vdW  Elec       q    Type
REMARK                         _______ _______ _______ _____ _____    ______ ____
ROOT
ATOM      6  C   UNL     1      -0.728   0.659  24.357  0.00  0.00    +0.000 C 
ATOM      7  C   UNL     1       0.267  -0.489  24.057  0.00  0.00    +0.032 C 
ATOM      8  C   UNL     1      -1.707   0.244  25.467  0.00  0.00    +0.012 C 
ATOM      9  C   UNL     1      -2.513  -1.015  25.093  0.00  0.00    +0.023 C 
ATOM     12  C   UNL     1      -1.624  -2.106  24.531  0.00  0.00    -0.073 C 
ATOM     14  C   UNL     1      -0.381  -1.855  24.085  0.00  0.00    -0.022 C 
ATOM     21  C   UNL     1      -2.182  -3.502  24.535  0.00  0.00    +0.039 C 
ENDROOT
BRANCH   6  10
ATOM     10  C   UNL     1      -0.005   1.947  24.760  0.00  0.00    -0.013 C 
ATOM     19  C   UNL     1      -0.284   2.280  26.221  0.00  0.00    +0.007 C 
ATOM     20  C   UNL     1      -0.425   3.100  23.853  0.00  0.00    +0.007 C 
ENDBRANCH   6  10
BRANCH   7  11
ATOM     11  C   UNL     1       0.960  -0.281  22.705  0.00  0.00    +0.112 C 
BRANCH  11   4
ATOM      2  O   UNL     1       3.050   1.725  22.946  0.00  0.00    -0.276 OA
ATOM      4  N   UNL     1       2.368  -0.499  22.818  0.00  0.00    -0.315 N 
ATOM     18  C   UNL     1       3.300   0.526  22.929  0.00  0.00    +0.216 C 
ATOM     30  H   UNL     1       2.703  -1.457  22.863  0.00  0.00    +0.149 HD
BRANCH  18  13
ATOM     13  C   UNL     1       4.717   0.068  23.037  0.00  0.00    +0.075 C 
ATOM     15  C   UNL     1       5.066  -0.998  24.033  0.00  0.00    +0.013 C 
ATOM     16  C   UNL     1       5.504   0.418  24.266  0.00  0.00    +0.013 C 
ENDBRANCH  18  13
ENDBRANCH  11   4
ENDBRANCH   7  11
BRANCH   9  17
ATOM     17  C   UNL     1      -3.647  -0.674  24.119  0.00  0.00    +0.103 C 
BRANCH  17  22
ATOM      3  O   UNL     1      -3.488   1.623  23.378  0.00  0.00    -0.276 OA
ATOM      5  N   UNL     1      -4.928   1.078  25.119  0.00  0.00    -0.311 N 
ATOM     22  C   UNL     1      -3.988   0.799  24.137  0.00  0.00    +0.214 C 
ATOM     31  H   UNL     1      -5.289   0.326  25.697  0.00  0.00    +0.149 HD
BRANCH   5  23
ATOM     23  C   UNL     1      -5.439   2.407  25.365  0.00  0.00    +0.139 C 
BRANCH  23  24
ATOM      1  F   UNL     1      -1.362   6.288  25.215  0.00  0.00    -0.205 F 
ATOM     24  C   UNL     1      -4.353   3.443  25.326  0.00  0.00    -0.030 A 
ATOM     25  C   UNL     1      -4.167   4.216  24.179  0.00  0.00    +0.008 A 
ATOM     26  C   UNL     1      -3.529   3.631  26.435  0.00  0.00    +0.008 A 
ATOM     27  C   UNL     1      -3.157   5.177  24.141  0.00  0.00    +0.038 A 
ATOM     28  C   UNL     1      -2.518   4.593  26.398  0.00  0.00    +0.038 A 
ATOM     29  C   UNL     1      -2.333   5.365  25.251  0.00  0.00    +0.123 A 
ENDBRANCH  23  24
ENDBRANCH   5  23
ENDBRANCH  17  22
ENDBRANCH   9  17
TORSDOF 8
ENDMDL
MODEL 2
REMARK VINA RESULT:      -3.9      2.537      6.987
REMARK  Name = 38027563
REMARK  11 active torsions:
REMARK  status: ('A' for Active; 'I' for Inactive)
REMARK    1  A    between atoms: N_4  and  C_11
REMARK    2  A    between atoms: N_5  and  C_23
REMARK    3  A    between atoms: C_6  and  C_10
REMARK    4  A    between atoms: C_7  and  C_11
REMARK    5  A    between atoms: C_9  and  C_17
REMARK    6  A    between atoms: C_10  and  C_19
REMARK    7  A    between atoms: C_10  and  C_20
REMARK    8  A    between atoms: C_12  and  C_21
REMARK    9  A    between atoms: C_13  and  C_18
REMARK   10  A    between atoms: C_17  and  C_22
REMARK   11  A    between atoms: C_23  and  C_24
REMARK                            x       y       z     vdW  Elec       q    Type
REMARK                         _______ _______ _______ _____ _____    ______ ____
ROOT
ATOM      6  C   UNL     1      -3.217   0.903  23.631  0.00  0.00    +0.000 C 
ATOM      7  C   UNL     1      -4.539   0.413  24.271  0.00  0.00    +0.032 C 
ATOM      8  C   UNL     1      -2.390  -0.290  23.127  0.00  0.00    +0.012 C 
ATOM      9  C   UNL     1      -2.047  -1.281  24.256  0.00  0.00    +0.023 C 
ATOM     12  C   UNL     1      -3.259  -1.606  25.106  0.00  0.00    -0.073 C 
ATOM     14  C   UNL     1      -4.368  -0.847  25.090  0.00  0.00    -0.022 C 
ATOM     21  C   UNL     1      -3.183  -2.855  25.942  0.00  0.00    +0.039 C 
ENDROOT
BRANCH   6  10
ATOM     10  C   UNL     1      -3.471   1.880  22.479  0.00  0.00    -0.013 C 
ATOM     19  C   UNL     1      -2.491   1.626  21.339  0.00  0.00    +0.007 C 
ATOM     20  C   UNL     1      -3.367   3.321  22.971  0.00  0.00    +0.007 C 
ENDBRANCH   6  10
BRANCH   7  11
ATOM     11  C   UNL     1      -5.170   1.506  25.141  0.00  0.00    +0.112 C 
BRANCH  11   4
ATOM      2  O   UNL     1      -5.309   4.386  25.508  0.00  0.00    -0.276 OA
ATOM      4  N   UNL     1      -4.165   2.363  25.687  0.00  0.00    -0.315 N 
ATOM     18  C   UNL     1      -4.318   3.739  25.825  0.00  0.00    +0.216 C 
ATOM     30  H   UNL     1      -3.309   1.941  26.033  0.00  0.00    +0.149 HD
BRANCH  18  13
ATOM     13  C   UNL     1      -3.142   4.438  26.421  0.00  0.00    +0.075 C 
ATOM     15  C   UNL     1      -2.163   5.123  25.514  0.00  0.00    +0.013 C 
ATOM     16  C   UNL     1      -1.772   3.860  26.222  0.00  0.00    +0.013 C 
ENDBRANCH  18  13
ENDBRANCH  11   4
ENDBRANCH   7  11
BRANCH   9  17
ATOM     17  C   UNL     1      -0.896  -0.754  25.121  0.00  0.00    +0.103 C 
BRANCH  17  22
ATOM      3  O   UNL     1       0.194   1.340  24.592  0.00  0.00    -0.276 OA
ATOM      5  N   UNL     1       0.663  -0.550  23.321  0.00  0.00    -0.311 N 
ATOM     22  C   UNL     1       0.033   0.149  24.342  0.00  0.00    +0.214 C 
ATOM     31  H   UNL     1       0.469  -1.538  23.195  0.00  0.00    +0.149 HD
BRANCH   5  23
ATOM     23  C   UNL     1       1.606   0.062  22.413  0.00  0.00    +0.139 C 
BRANCH  23  24
ATOM      1  F   UNL     1       6.906  -0.400  24.258  0.00  0.00    -0.205 F 
ATOM     24  C   UNL     1       3.020  -0.061  22.904  0.00  0.00    -0.030 A 
ATOM     25  C   UNL     1       3.456  -1.253  23.481  0.00  0.00    +0.008 A 
ATOM     26  C   UNL     1       3.896   1.017  22.784  0.00  0.00    +0.008 A 
ATOM     27  C   UNL     1       4.769  -1.369  23.938  0.00  0.00    +0.038 A 
ATOM     28  C   UNL     1       5.209   0.903  23.241  0.00  0.00    +0.038 A 
ATOM     29  C   UNL     1       5.645  -0.290  23.818  0.00  0.00    +0.123 A 
ENDBRANCH  23  24
ENDBRANCH   5  23
ENDBRANCH  17  22
ENDBRANCH   9  17
TORSDOF 8
ENDMDL
MODEL 3
REMARK VINA RESULT:      -3.8      2.625      7.001
REMARK  Name = 38027563
REMARK  11 active torsions:
REMARK  status: ('A' for Active; 'I' for Inactive)
REMARK    1  A    between atoms: N_4  and  C_11
REMARK    2  A    between atoms: N_5  and  C_23
REMARK    3  A    between atoms: C_6  and  C_10
REMARK    4  A    between atoms: C_7  and  C_11
REMARK    5  A    between atoms: C_9  and  C_17
REMARK    6  A    between atoms: C_10  and  C_19
REMARK    7  A    between atoms: C_10  and  C_20
REMARK    8  A    between atoms: C_12  and  C_21
REMARK    9  A    between atoms: C_13  and  C_18
REMARK   10  A    between atoms: C_17  and  C_22
REMARK   11  A    between atoms: C_23  and  C_24
REMARK                            x       y       z     vdW  Elec       q    Type
REMARK                         _______ _______ _______ _____ _____    ______ ____
ROOT
ATOM      6  C   UNL     1      -3.597   2.902  25.512  0.00  0.00    +0.000 C 
ATOM      7  C   UNL     1      -3.603   3.023  23.968  0.00  0.00    +0.032 C 
ATOM      8  C   UNL     1      -2.678   3.966  26.130  0.00  0.00    +0.012 C 
ATOM      9  C   UNL     1      -1.227   3.847  25.625  0.00  0.00    +0.023 C 
ATOM     12  C   UNL     1      -1.166   3.691  24.119  0.00  0.00    -0.073 C 
ATOM     14  C   UNL     1      -2.240   3.335  23.394  0.00  0.00    -0.022 C 
ATOM     21  C   UNL     1       0.151   3.998  23.460  0.00  0.00    +0.039 C 
ENDROOT
BRANCH   6  10
ATOM     10  C   UNL     1      -5.006   3.031  26.098  0.00  0.00    -0.013 C 
ATOM     19  C   UNL     1      -5.806   1.757  25.850  0.00  0.00    +0.007 C 
ATOM     20  C   UNL     1      -5.720   4.243  25.505  0.00  0.00    +0.007 C 
ENDBRANCH   6  10
BRANCH   7  11
ATOM     11  C   UNL     1      -4.152   1.749  23.315  0.00  0.00    +0.112 C 
BRANCH  11   4
ATOM      2  O   UNL     1      -5.152  -0.896  23.992  0.00  0.00    -0.276 OA
ATOM      4  N   UNL     1      -3.392   0.606  23.714  0.00  0.00    -0.315 N 
ATOM     18  C   UNL     1      -3.957  -0.626  24.021  0.00  0.00    +0.216 C 
ATOM     30  H   UNL     1      -2.380   0.686  23.733  0.00  0.00    +0.149 HD
BRANCH  18  13
ATOM     13  C   UNL     1      -2.975  -1.680  24.412  0.00  0.00    +0.075 C 
ATOM     15  C   UNL     1      -3.403  -3.118  24.400  0.00  0.00    +0.013 C 
ATOM     16  C   UNL     1      -3.170  -2.416  25.705  0.00  0.00    +0.013 C 
ENDBRANCH  18  13
ENDBRANCH  11   4
ENDBRANCH   7  11
BRANCH   9  17
ATOM     17  C   UNL     1      -0.491   2.698  26.326  0.00  0.00    +0.103 C 
BRANCH  17  22
ATOM      3  O   UNL     1      -1.232   0.511  25.606  0.00  0.00    -0.276 OA
ATOM      5  N   UNL     1       0.581   1.511  24.550  0.00  0.00    -0.311 N 
ATOM     22  C   UNL     1      -0.450   1.448  25.477  0.00  0.00    +0.214 C 
ATOM     31  H   UNL     1       1.175   2.333  24.516  0.00  0.00    +0.149 HD
BRANCH   5  23
ATOM     23  C   UNL     1       0.858   0.452  23.607  0.00  0.00    +0.139 C 
BRANCH  23  24
ATOM      1  F   UNL     1       6.387  -0.326  22.882  0.00  0.00    -0.205 F 
ATOM     24  C   UNL     1       2.333   0.245  23.412  0.00  0.00    -0.030 A 
ATOM     25  C   UNL     1       2.912  -0.984  23.730  0.00  0.00    +0.008 A 
ATOM     26  C   UNL     1       3.122   1.280  22.915  0.00  0.00    +0.008 A 
ATOM     27  C   UNL     1       4.281  -1.177  23.551  0.00  0.00    +0.038 A 
ATOM     28  C   UNL     1       4.493   1.088  22.735  0.00  0.00    +0.038 A 
ATOM     29  C   UNL     1       5.072  -0.141  23.053  0.00  0.00    +0.123 A 
ENDBRANCH  23  24
ENDBRANCH   5  23
ENDBRANCH  17  22
ENDBRANCH   9  17
TORSDOF 8
ENDMDL
MODEL 4
REMARK VINA RESULT:      -3.7      2.583      6.810
REMARK  Name = 38027563
REMARK  11 active torsions:
REMARK  status: ('A' for Active; 'I' for Inactive)
REMARK    1  A    between atoms: N_4  and  C_11
REMARK    2  A    between atoms: N_5  and  C_23
REMARK    3  A    between atoms: C_6  and  C_10
REMARK    4  A    between atoms: C_7  and  C_11
REMARK    5  A    between atoms: C_9  and  C_17
REMARK    6  A    between atoms: C_10  and  C_19
REMARK    7  A    between atoms: C_10  and  C_20
REMARK    8  A    between atoms: C_12  and  C_21
REMARK    9  A    between atoms: C_13  and  C_18
REMARK   10  A    between atoms: C_17  and  C_22
REMARK   11  A    between atoms: C_23  and  C_24
REMARK                            x       y       z     vdW  Elec       q    Type
REMARK                         _______ _______ _______ _____ _____    ______ ____
ROOT
ATOM      6  C   UNL     1      -3.913   2.571  25.340  0.00  0.00    +0.000 C 
ATOM      7  C   UNL     1      -4.476   1.430  24.457  0.00  0.00    +0.032 C 
ATOM      8  C   UNL     1      -3.224   3.634  24.470  0.00  0.00    +0.012 C 
ATOM      9  C   UNL     1      -2.070   3.046  23.635  0.00  0.00    +0.023 C 
ATOM     12  C   UNL     1      -2.474   1.760  22.942  0.00  0.00    -0.073 C 
ATOM     14  C   UNL     1      -3.559   1.060  23.314  0.00  0.00    -0.022 C 
ATOM     21  C   UNL     1      -1.626   1.323  21.780  0.00  0.00    +0.039 C 
ENDROOT
BRANCH   6  10
ATOM     10  C   UNL     1      -5.005   3.226  26.190  0.00  0.00    -0.013 C 
ATOM     19  C   UNL     1      -6.137   2.239  26.454  0.00  0.00    +0.007 C 
ATOM     20  C   UNL     1      -5.532   4.483  25.503  0.00  0.00    +0.007 C 
ENDBRANCH   6  10
BRANCH   7  11
ATOM     11  C   UNL     1      -4.781   0.182  25.293  0.00  0.00    +0.112 C 
BRANCH  11   4
ATOM      2  O   UNL     1      -4.675  -2.299  23.782  0.00  0.00    -0.276 OA
ATOM      4  N   UNL     1      -3.700  -0.750  25.225  0.00  0.00    -0.315 N 
ATOM     18  C   UNL     1      -3.737  -1.919  24.472  0.00  0.00    +0.216 C 
ATOM     30  H   UNL     1      -2.841  -0.527  25.719  0.00  0.00    +0.149 HD
BRANCH  18  13
ATOM     13  C   UNL     1      -2.495  -2.745  24.546  0.00  0.00    +0.075 C 
ATOM     15  C   UNL     1      -1.288  -2.188  25.241  0.00  0.00    +0.013 C 
ATOM     16  C   UNL     1      -1.295  -2.329  23.748  0.00  0.00    +0.013 C 
ENDBRANCH  18  13
ENDBRANCH  11   4
ENDBRANCH   7  11
BRANCH   9  17
ATOM     17  C   UNL     1      -0.819   2.835  24.496  0.00  0.00    +0.103 C 
BRANCH  17  22
ATOM      3  O   UNL     1      -0.799   0.572  25.350  0.00  0.00    -0.276 OA
ATOM      5  N   UNL     1       0.520   1.115  23.515  0.00  0.00    -0.311 N 
ATOM     22  C   UNL     1      -0.389   1.386  24.528  0.00  0.00    +0.214 C 
ATOM     31  H   UNL     1       0.797   1.855  22.878  0.00  0.00    +0.149 HD
BRANCH   5  23
ATOM     23  C   UNL     1       1.103  -0.191  23.307  0.00  0.00    +0.139 C 
BRANCH  23  24
ATOM      1  F   UNL     1       6.730  -0.003  23.259  0.00  0.00    -0.205 F 
ATOM     24  C   UNL     1       2.604  -0.141  23.294  0.00  0.00    -0.030 A 
ATOM     25  C   UNL     1       3.342  -1.238  23.738  0.00  0.00    +0.008 A 
ATOM     26  C   UNL     1       3.258   1.002  22.837  0.00  0.00    +0.008 A 
ATOM     27  C   UNL     1       4.736  -1.192  23.726  0.00  0.00    +0.038 A 
ATOM     28  C   UNL     1       4.653   1.049  22.825  0.00  0.00    +0.038 A 
ATOM     29  C   UNL     1       5.391  -0.047  23.270  0.00  0.00    +0.123 A 
ENDBRANCH  23  24
ENDBRANCH   5  23
ENDBRANCH  17  22
ENDBRANCH   9  17
TORSDOF 8
ENDMDL
MODEL 5
REMARK VINA RESULT:      -3.6      2.421      5.065
REMARK  Name = 38027563
REMARK  11 active torsions:
REMARK  status: ('A' for Active; 'I' for Inactive)
REMARK    1  A    between atoms: N_4  and  C_11
REMARK    2  A    between atoms: N_5  and  C_23
REMARK    3  A    between atoms: C_6  and  C_10
REMARK    4  A    between atoms: C_7  and  C_11
REMARK    5  A    between atoms: C_9  and  C_17
REMARK    6  A    between atoms: C_10  and  C_19
REMARK    7  A    between atoms: C_10  and  C_20
REMARK    8  A    between atoms: C_12  and  C_21
REMARK    9  A    between atoms: C_13  and  C_18
REMARK   10  A    between atoms: C_17  and  C_22
REMARK   11  A    between atoms: C_23  and  C_24
REMARK                            x       y       z     vdW  Elec       q    Type
REMARK                         _______ _______ _______ _____ _____    ______ ____
ROOT
ATOM      6  C   UNL     1      -2.290   2.194  23.639  0.00  0.00    +0.000 C 
ATOM      7  C   UNL     1      -0.916   2.852  23.918  0.00  0.00    +0.032 C 
ATOM      8  C   UNL     1      -3.339   3.264  23.300  0.00  0.00    +0.012 C 
ATOM      9  C   UNL     1      -3.511   4.292  24.435  0.00  0.00    +0.023 C 
ATOM     12  C   UNL     1      -2.176   4.791  24.950  0.00  0.00    -0.073 C 
ATOM     14  C   UNL     1      -1.026   4.142  24.698  0.00  0.00    -0.022 C 
ATOM     21  C   UNL     1      -2.188   6.081  25.723  0.00  0.00    +0.039 C 
ENDROOT
BRANCH   6  10
ATOM     10  C   UNL     1      -2.211   1.169  22.504  0.00  0.00    -0.013 C 
ATOM     19  C   UNL     1      -2.365   1.858  21.153  0.00  0.00    +0.007 C 
ATOM     20  C   UNL     1      -3.274   0.089  22.686  0.00  0.00    +0.007 C 
ENDBRANCH   6  10
BRANCH   7  11
ATOM     11  C   UNL     1       0.019   1.887  24.656  0.00  0.00    +0.112 C 
BRANCH  11   4
ATOM      2  O   UNL     1       0.576  -0.583  23.228  0.00  0.00    -0.276 OA
ATOM      4  N   UNL     1       1.165   1.582  23.857  0.00  0.00    -0.315 N 
ATOM     18  C   UNL     1       1.349   0.366  23.208  0.00  0.00    +0.216 C 
ATOM     30  H   UNL     1       1.863   2.307  23.721  0.00  0.00    +0.149 HD
BRANCH  18  13
ATOM     13  C   UNL     1       2.618   0.266  22.427  0.00  0.00    +0.075 C 
ATOM     15  C   UNL     1       3.847  -0.273  23.097  0.00  0.00    +0.013 C 
ATOM     16  C   UNL     1       3.755   1.186  22.761  0.00  0.00    +0.013 C 
ENDBRANCH  18  13
ENDBRANCH  11   4
ENDBRANCH   7  11
BRANCH   9  17
ATOM     17  C   UNL     1      -4.359   3.718  25.576  0.00  0.00    +0.103 C 
BRANCH  17  22
ATOM      3  O   UNL     1      -5.951   2.272  24.467  0.00  0.00    -0.276 OA
ATOM      5  N   UNL     1      -4.307   1.341  25.821  0.00  0.00    -0.311 N 
ATOM     22  C   UNL     1      -4.980   2.389  25.208  0.00  0.00    +0.214 C 
ATOM     31  H   UNL     1      -3.508   1.536  26.416  0.00  0.00    +0.149 HD
BRANCH   5  23
ATOM     23  C   UNL     1      -4.684  -0.044  25.650  0.00  0.00    +0.139 C 
BRANCH  23  24
ATOM      1  F   UNL     1      -0.190  -3.394  25.115  0.00  0.00    -0.205 F 
ATOM     24  C   UNL     1      -3.486  -0.938  25.508  0.00  0.00    -0.030 A 
ATOM     25  C   UNL     1      -2.247  -0.528  26.001  0.00  0.00    +0.008 A 
ATOM     26  C   UNL     1      -3.611  -2.178  24.882  0.00  0.00    +0.008 A 
ATOM     27  C   UNL     1      -1.133  -1.357  25.869  0.00  0.00    +0.038 A 
ATOM     28  C   UNL     1      -2.498  -3.008  24.750  0.00  0.00    +0.038 A 
ATOM     29  C   UNL     1      -1.259  -2.598  25.243  0.00  0.00    +0.123 A 
ENDBRANCH  23  24
ENDBRANCH   5  23
ENDBRANCH  17  22
ENDBRANCH   9  17
TORSDOF 8
ENDMDL
MODEL 6
REMARK VINA RESULT:      -2.6      1.822      2.294
REMARK  Name = 38027563
REMARK  11 active torsions:
REMARK  status: ('A' for Active; 'I' for Inactive)
REMARK    1  A    between atoms: N_4  and  C_11
REMARK    2  A    between atoms: N_5  and  C_23
REMARK    3  A    between atoms: C_6  and  C_10
REMARK    4  A    between atoms: C_7  and  C_11
REMARK    5  A    between atoms: C_9  and  C_17
REMARK    6  A    between atoms: C_10  and  C_19
REMARK    7  A    between atoms: C_10  and  C_20
REMARK    8  A    between atoms: C_12  and  C_21
REMARK    9  A    between atoms: C_13  and  C_18
REMARK   10  A    between atoms: C_17  and  C_22
REMARK   11  A    between atoms: C_23  and  C_24
REMARK                            x       y       z     vdW  Elec       q    Type
REMARK                         _______ _______ _______ _____ _____    ______ ____
ROOT
ATOM      6  C   UNL     1      -0.965   0.539  23.466  0.00  0.00    +0.000 C 
ATOM      7  C   UNL     1       0.534   0.319  23.784  0.00  0.00    +0.032 C 
ATOM      8  C   UNL     1      -1.836   0.122  24.662  0.00  0.00    +0.012 C 
ATOM      9  C   UNL     1      -1.630  -1.356  25.045  0.00  0.00    +0.023 C 
ATOM     12  C   UNL     1      -0.161  -1.720  25.116  0.00  0.00    -0.073 C 
ATOM     14  C   UNL     1       0.792  -0.954  24.559  0.00  0.00    -0.022 C 
ATOM     21  C   UNL     1       0.191  -2.965  25.883  0.00  0.00    +0.039 C 
ENDROOT
BRANCH   6  10
ATOM     10  C   UNL     1      -1.260   1.995  23.094  0.00  0.00    -0.013 C 
ATOM     19  C   UNL     1      -1.455   2.836  24.350  0.00  0.00    +0.007 C 
ATOM     20  C   UNL     1      -2.488   2.077  22.192  0.00  0.00    +0.007 C 
ENDBRANCH   6  10
BRANCH   7  11
ATOM     11  C   UNL     1       1.377   0.318  22.504  0.00  0.00    +0.112 C 
BRANCH  11   4
ATOM      2  O   UNL     1       3.791   1.937  22.568  0.00  0.00    -0.276 OA
ATOM      4  N   UNL     1       2.711  -0.118  22.776  0.00  0.00    -0.315 N 
ATOM     18  C   UNL     1       3.812   0.731  22.785  0.00  0.00    +0.216 C 
ATOM     30  H   UNL     1       2.858  -1.094  23.019  0.00  0.00    +0.149 HD
BRANCH  18  13
ATOM     13  C   UNL     1       5.110   0.062  23.095  0.00  0.00    +0.075 C 
ATOM     15  C   UNL     1       5.098  -1.281  23.764  0.00  0.00    +0.013 C 
ATOM     16  C   UNL     1       5.541  -0.067  24.526  0.00  0.00    +0.013 C 
ENDBRANCH  18  13
ENDBRANCH  11   4
ENDBRANCH   7  11
BRANCH   9  17
ATOM     17  C   UNL     1      -2.379  -2.285  24.082  0.00  0.00    +0.103 C 
BRANCH  17  22
ATOM      3  O   UNL     1      -4.714  -2.839  23.776  0.00  0.00    -0.276 OA
ATOM      5  N   UNL     1      -4.122  -0.679  24.394  0.00  0.00    -0.311 N 
ATOM     22  C   UNL     1      -3.864  -2.000  24.058  0.00  0.00    +0.214 C 
ATOM     31  H   UNL     1      -3.350  -0.058  24.618  0.00  0.00    +0.149 HD
BRANCH   5  23
ATOM     23  C   UNL     1      -5.456  -0.125  24.451  0.00  0.00    +0.139 C 
BRANCH  23  24
ATOM      1  F   UNL     1      -5.423   5.284  26.015  0.00  0.00    -0.205 F 
ATOM     24  C   UNL     1      -5.448   1.317  24.868  0.00  0.00    -0.030 A 
ATOM     25  C   UNL     1      -4.717   2.251  24.133  0.00  0.00    +0.008 A 
ATOM     26  C   UNL     1      -6.171   1.722  25.989  0.00  0.00    +0.008 A 
ATOM     27  C   UNL     1      -4.709   3.591  24.520  0.00  0.00    +0.038 A 
ATOM     28  C   UNL     1      -6.163   3.063  26.377  0.00  0.00    +0.038 A 
ATOM     29  C   UNL     1      -5.432   3.997  25.643  0.00  0.00    +0.123 A 
ENDBRANCH  23  24
ENDBRANCH   5  23
ENDBRANCH  17  22
ENDBRANCH   9  17
TORSDOF 8
ENDMDL
MODEL 7
REMARK VINA RESULT:      -2.4      2.448      7.748
REMARK  Name = 38027563
REMARK  11 active torsions:
REMARK  status: ('A' for Active; 'I' for Inactive)
REMARK    1  A    between atoms: N_4  and  C_11
REMARK    2  A    between atoms: N_5  and  C_23
REMARK    3  A    between atoms: C_6  and  C_10
REMARK    4  A    between atoms: C_7  and  C_11
REMARK    5  A    between atoms: C_9  and  C_17
REMARK    6  A    between atoms: C_10  and  C_19
REMARK    7  A    between atoms: C_10  and  C_20
REMARK    8  A    between atoms: C_12  and  C_21
REMARK    9  A    between atoms: C_13  and  C_18
REMARK   10  A    between atoms: C_17  and  C_22
REMARK   11  A    between atoms: C_23  and  C_24
REMARK                            x       y       z     vdW  Elec       q    Type
REMARK                         _______ _______ _______ _____ _____    ______ ____
ROOT
ATOM      6  C   UNL     1      -2.918  -1.306  24.501  0.00  0.00    +0.000 C 
ATOM      7  C   UNL     1      -3.490  -0.461  25.666  0.00  0.00    +0.032 C 
ATOM      8  C   UNL     1      -1.407  -1.520  24.685  0.00  0.00    +0.012 C 
ATOM      9  C   UNL     1      -0.634  -0.188  24.748  0.00  0.00    +0.023 C 
ATOM     12  C   UNL     1      -1.296   0.804  25.683  0.00  0.00    -0.073 C 
ATOM     14  C   UNL     1      -2.568   0.659  26.093  0.00  0.00    -0.022 C 
ATOM     21  C   UNL     1      -0.445   1.943  26.172  0.00  0.00    +0.039 C 
ENDROOT
BRANCH   6  10
ATOM     10  C   UNL     1      -3.622  -2.660  24.383  0.00  0.00    -0.013 C 
ATOM     19  C   UNL     1      -2.639  -3.733  23.928  0.00  0.00    +0.007 C 
ATOM     20  C   UNL     1      -4.802  -2.565  23.420  0.00  0.00    +0.007 C 
ENDBRANCH   6  10
BRANCH   7  11
ATOM     11  C   UNL     1      -4.863   0.118  25.308  0.00  0.00    +0.112 C 
BRANCH  11   4
ATOM      2  O   UNL     1      -6.077   2.363  26.701  0.00  0.00    -0.276 OA
ATOM      4  N   UNL     1      -4.760   1.505  24.980  0.00  0.00    -0.315 N 
ATOM     18  C   UNL     1      -5.378   2.517  25.706  0.00  0.00    +0.216 C 
ATOM     30  H   UNL     1      -4.167   1.771  24.199  0.00  0.00    +0.149 HD
BRANCH  18  13
ATOM     13  C   UNL     1      -5.133   3.895  25.186  0.00  0.00    +0.075 C 
ATOM     15  C   UNL     1      -4.184   4.084  24.039  0.00  0.00    +0.013 C 
ATOM     16  C   UNL     1      -3.795   4.534  25.417  0.00  0.00    +0.013 C 
ENDBRANCH  18  13
ENDBRANCH  11   4
ENDBRANCH   7  11
BRANCH   9  17
ATOM     17  C   UNL     1      -0.454   0.412  23.349  0.00  0.00    +0.103 C 
BRANCH  17  22
ATOM      3  O   UNL     1       1.617   1.608  23.713  0.00  0.00    -0.276 OA
ATOM      5  N   UNL     1       1.483   0.049  21.995  0.00  0.00    -0.311 N 
ATOM     22  C   UNL     1       0.987   0.776  23.068  0.00  0.00    +0.214 C 
ATOM     31  H   UNL     1       0.885  -0.623  21.525  0.00  0.00    +0.149 HD
BRANCH   5  23
ATOM     23  C   UNL     1       2.834   0.193  21.503  0.00  0.00    +0.139 C 
BRANCH  23  24
ATOM      1  F   UNL     1       6.659  -1.040  25.446  0.00  0.00    -0.205 F 
ATOM     24  C   UNL     1       3.853  -0.136  22.555  0.00  0.00    -0.030 A 
ATOM     25  C   UNL     1       4.787   0.824  22.946  0.00  0.00    +0.008 A 
ATOM     26  C   UNL     1       3.867  -1.401  23.141  0.00  0.00    +0.008 A 
ATOM     27  C   UNL     1       5.734   0.519  23.923  0.00  0.00    +0.038 A 
ATOM     28  C   UNL     1       4.815  -1.707  24.118  0.00  0.00    +0.038 A 
ATOM     29  C   UNL     1       5.748  -0.747  24.509  0.00  0.00    +0.123 A 
ENDBRANCH  23  24
ENDBRANCH   5  23
ENDBRANCH  17  22
ENDBRANCH   9  17
TORSDOF 8
ENDMDL
