MODEL 1
REMARK VINA RESULT:      -4.3      0.000      0.000
REMARK  Name = 75536361
REMARK  7 active torsions:
REMARK  status: ('A' for Active; 'I' for Inactive)
REMARK    1  A    between atoms: O_2  and  C_9
REMARK    2  A    between atoms: N_4  and  C_11
REMARK    3  A    between atoms: N_4  and  C_14
REMARK    4  A    between atoms: C_8  and  C_14
REMARK    5  A    between atoms: C_10  and  C_17
REMARK    6  A    between atoms: C_17  and  C_20
REMARK    7  A    between atoms: C_22  and  C_23
REMARK                            x       y       z     vdW  Elec       q    Type
REMARK                         _______ _______ _______ _____ _____    ______ ____
ROOT
ATOM      1  O   UNL     1      -3.673   2.241  25.793  0.00  0.00    -0.369 OA
ATOM      8  C   UNL     1      -4.871   1.554  25.408  0.00  0.00    +0.161 C 
ATOM      9  C   UNL     1      -6.122   2.356  25.786  0.00  0.00    +0.145 C 
ATOM     10  C   UNL     1      -3.543   3.569  25.277  0.00  0.00    +0.125 C 
ATOM     12  C   UNL     1      -6.043   3.810  25.322  0.00  0.00    +0.036 C 
ATOM     13  C   UNL     1      -4.714   4.439  25.730  0.00  0.00    +0.034 C 
ENDROOT
BRANCH   9   2
ATOM      2  O   UNL     1      -6.256   2.361  27.210  0.00  0.00    -0.389 OA
ATOM     30  H   UNL     1      -6.450   3.273  27.484  0.00  0.00    +0.210 HD
ENDBRANCH   9   2
BRANCH   8  14
ATOM     14  C   UNL     1      -4.834   1.166  23.931  0.00  0.00    +0.115 C 
BRANCH  14   4
ATOM      4  N   UNL     1      -3.467   0.934  23.490  0.00  0.00    -0.311 NA
ATOM     28  H   UNL     1      -3.389   1.202  22.509  0.00  0.00    +0.122 HD
BRANCH   4  11
ATOM      5  N   UNL     1      -2.995  -2.909  25.255  0.00  0.00    -0.316 NA
ATOM     11  C   UNL     1      -3.107  -0.475  23.624  0.00  0.00    +0.056 C 
ATOM     15  C   UNL     1      -2.084  -0.657  24.752  0.00  0.00    +0.034 C 
ATOM     16  C   UNL     1      -4.347  -1.336  23.894  0.00  0.00    +0.034 C 
ATOM     18  C   UNL     1      -1.780  -2.139  24.977  0.00  0.00    +0.082 C 
ATOM     19  C   UNL     1      -3.954  -2.791  24.154  0.00  0.00    +0.082 C 
ATOM     29  H   UNL     1      -2.749  -3.890  25.384  0.00  0.00    +0.122 HD
ENDBRANCH   4  11
ENDBRANCH  14   4
ENDBRANCH   8  14
BRANCH  10  17
ATOM     17  C   UNL     1      -2.221   4.131  25.787  0.00  0.00    +0.090 C 
BRANCH  17  20
ATOM      3  O   UNL     1       0.717   2.046  25.684  0.00  0.00    -0.353 OA
ATOM      6  N   UNL     1      -0.215   2.824  26.359  0.00  0.00    -0.083 NA
ATOM     20  C   UNL     1      -1.060   3.248  25.415  0.00  0.00    +0.087 A 
ATOM     21  C   UNL     1      -0.715   2.772  24.138  0.00  0.00    +0.077 A 
ATOM     22  C   UNL     1       0.409   2.022  24.362  0.00  0.00    +0.186 A 
BRANCH  22  23
ATOM      7  N   UNL     1       2.568   1.685  23.511  0.00  0.00    -0.252 NA
ATOM     23  C   UNL     1       1.288   1.252  23.532  0.00  0.00    +0.109 A 
ATOM     24  C   UNL     1       0.829   0.154  22.821  0.00  0.00    +0.031 A 
ATOM     25  C   UNL     1       1.744  -0.543  22.039  0.00  0.00    +0.004 A 
ATOM     26  C   UNL     1       3.428   0.983  22.741  0.00  0.00    +0.111 A 
ATOM     27  C   UNL     1       3.070  -0.127  21.993  0.00  0.00    +0.020 A 
ENDBRANCH  22  23
ENDBRANCH  17  20
ENDBRANCH  10  17
TORSDOF 7
ENDMDL
MODEL 2
REMARK VINA RESULT:      -2.9     14.344     17.215
REMARK  Name = 75536361
REMARK  7 active torsions:
REMARK  status: ('A' for Active; 'I' for Inactive)
REMARK    1  A    between atoms: O_2  and  C_9
REMARK    2  A    between atoms: N_4  and  C_11
REMARK    3  A    between atoms: N_4  and  C_14
REMARK    4  A    between atoms: C_8  and  C_14
REMARK    5  A    between atoms: C_10  and  C_17
REMARK    6  A    between atoms: C_17  and  C_20
REMARK    7  A    between atoms: C_22  and  C_23
REMARK                            x       y       z     vdW  Elec       q    Type
REMARK                         _______ _______ _______ _____ _____    ______ ____
ROOT
ATOM      1  O   UNL     1      -2.087 -10.781  13.755  0.00  0.00    -0.369 OA
ATOM      8  C   UNL     1      -2.174 -10.634  15.179  0.00  0.00    +0.161 C 
ATOM      9  C   UNL     1      -0.942  -9.915  15.742  0.00  0.00    +0.145 C 
ATOM     10  C   UNL     1      -1.890  -9.565  13.029  0.00  0.00    +0.125 C 
ATOM     12  C   UNL     1      -0.622  -8.628  14.985  0.00  0.00    +0.036 C 
ATOM     13  C   UNL     1      -0.604  -8.872  13.479  0.00  0.00    +0.034 C 
ENDROOT
BRANCH   9   2
ATOM      2  O   UNL     1       0.191 -10.781  15.627  0.00  0.00    -0.389 OA
ATOM     30  H   UNL     1       0.161 -11.404  16.373  0.00  0.00    +0.210 HD
ENDBRANCH   9   2
BRANCH   8  14
ATOM     14  C   UNL     1      -3.489  -9.970  15.584  0.00  0.00    +0.115 C 
BRANCH  14   4
ATOM      4  N   UNL     1      -4.568 -10.374  14.697  0.00  0.00    -0.311 NA
ATOM     28  H   UNL     1      -4.713  -9.640  14.002  0.00  0.00    +0.122 HD
BRANCH   4  11
ATOM      5  N   UNL     1      -8.210  -9.451  16.693  0.00  0.00    -0.316 NA
ATOM     11  C   UNL     1      -5.810 -10.573  15.439  0.00  0.00    +0.056 C 
ATOM     15  C   UNL     1      -5.758  -9.819  16.773  0.00  0.00    +0.034 C 
ATOM     16  C   UNL     1      -7.020 -10.112  14.619  0.00  0.00    +0.034 C 
ATOM     18  C   UNL     1      -7.093  -9.928  17.512  0.00  0.00    +0.082 C 
ATOM     19  C   UNL     1      -8.305 -10.209  15.443  0.00  0.00    +0.082 C 
ATOM     29  H   UNL     1      -9.079  -9.555  17.217  0.00  0.00    +0.122 HD
ENDBRANCH   4  11
ENDBRANCH  14   4
ENDBRANCH   8  14
BRANCH  10  17
ATOM     17  C   UNL     1      -1.825  -9.920  11.549  0.00  0.00    +0.090 C 
BRANCH  17  20
ATOM      3  O   UNL     1      -4.309  -8.649   9.267  0.00  0.00    -0.353 OA
ATOM      6  N   UNL     1      -2.992  -8.873   9.652  0.00  0.00    -0.083 NA
ATOM     20  C   UNL     1      -3.078  -9.510  10.823  0.00  0.00    +0.087 A 
ATOM     21  C   UNL     1      -4.411  -9.714  11.223  0.00  0.00    +0.077 A 
ATOM     22  C   UNL     1      -5.144  -9.154  10.210  0.00  0.00    +0.186 A 
BRANCH  22  23
ATOM      7  N   UNL     1      -7.356  -9.455  10.930  0.00  0.00    -0.252 NA
ATOM     23  C   UNL     1      -6.545  -8.999   9.949  0.00  0.00    +0.109 A 
ATOM     24  C   UNL     1      -6.999  -8.421   8.774  0.00  0.00    +0.031 A 
ATOM     25  C   UNL     1      -8.373  -8.304   8.595  0.00  0.00    +0.004 A 
ATOM     26  C   UNL     1      -8.684  -9.324  10.722  0.00  0.00    +0.111 A 
ATOM     27  C   UNL     1      -9.238  -8.762   9.583  0.00  0.00    +0.020 A 
ENDBRANCH  22  23
ENDBRANCH  17  20
ENDBRANCH  10  17
TORSDOF 7
ENDMDL
MODEL 3
REMARK VINA RESULT:      -2.9      1.851      3.826
REMARK  Name = 75536361
REMARK  7 active torsions:
REMARK  status: ('A' for Active; 'I' for Inactive)
REMARK    1  A    between atoms: O_2  and  C_9
REMARK    2  A    between atoms: N_4  and  C_11
REMARK    3  A    between atoms: N_4  and  C_14
REMARK    4  A    between atoms: C_8  and  C_14
REMARK    5  A    between atoms: C_10  and  C_17
REMARK    6  A    between atoms: C_17  and  C_20
REMARK    7  A    between atoms: C_22  and  C_23
REMARK                            x       y       z     vdW  Elec       q    Type
REMARK                         _______ _______ _______ _____ _____    ______ ____
ROOT
ATOM      1  O   UNL     1      -4.110   2.215  23.750  0.00  0.00    -0.369 OA
ATOM      8  C   UNL     1      -4.843   2.960  24.731  0.00  0.00    +0.161 C 
ATOM      9  C   UNL     1      -5.894   2.086  25.427  0.00  0.00    +0.145 C 
ATOM     10  C   UNL     1      -3.475   1.029  24.237  0.00  0.00    +0.125 C 
ATOM     12  C   UNL     1      -5.312   0.766  25.930  0.00  0.00    +0.036 C 
ATOM     13  C   UNL     1      -4.507   0.073  24.835  0.00  0.00    +0.034 C 
ENDROOT
BRANCH   9   2
ATOM      2  O   UNL     1      -6.930   1.776  24.490  0.00  0.00    -0.389 OA
ATOM     30  H   UNL     1      -7.782   1.917  24.936  0.00  0.00    +0.210 HD
ENDBRANCH   9   2
BRANCH   8  14
ATOM     14  C   UNL     1      -3.901   3.654  25.713  0.00  0.00    +0.115 C 
BRANCH  14   4
ATOM      4  N   UNL     1      -2.951   4.502  25.009  0.00  0.00    -0.311 NA
ATOM     28  H   UNL     1      -3.085   4.380  24.004  0.00  0.00    +0.122 HD
BRANCH   4  11
ATOM      5  N   UNL     1       0.528   2.112  25.545  0.00  0.00    -0.316 NA
ATOM     11  C   UNL     1      -1.577   4.143  25.349  0.00  0.00    +0.056 C 
ATOM     15  C   UNL     1      -1.563   3.085  26.458  0.00  0.00    +0.034 C 
ATOM     16  C   UNL     1      -0.824   3.625  24.118  0.00  0.00    +0.034 C 
ATOM     18  C   UNL     1      -0.136   2.619  26.748  0.00  0.00    +0.082 C 
ATOM     19  C   UNL     1       0.575   3.138  24.499  0.00  0.00    +0.082 C 
ATOM     29  H   UNL     1       1.478   1.827  25.779  0.00  0.00    +0.122 HD
ENDBRANCH   4  11
ENDBRANCH  14   4
ENDBRANCH   8  14
BRANCH  10  17
ATOM     17  C   UNL     1      -2.752   0.381  23.063  0.00  0.00    +0.090 C 
BRANCH  17  20
ATOM      3  O   UNL     1       0.341  -0.803  24.485  0.00  0.00    -0.353 OA
ATOM      6  N   UNL     1      -1.045  -0.702  24.467  0.00  0.00    -0.083 NA
ATOM     20  C   UNL     1      -1.322   0.055  23.401  0.00  0.00    +0.087 A 
ATOM     21  C   UNL     1      -0.162   0.456  22.716  0.00  0.00    +0.077 A 
ATOM     22  C   UNL     1       0.856  -0.109  23.437  0.00  0.00    +0.186 A 
BRANCH  22  23
ATOM      7  N   UNL     1       2.873  -1.265  23.745  0.00  0.00    -0.252 NA
ATOM     23  C   UNL     1       2.284  -0.123  23.323  0.00  0.00    +0.109 A 
ATOM     24  C   UNL     1       2.977   0.964  22.814  0.00  0.00    +0.031 A 
ATOM     25  C   UNL     1       4.363   0.873  22.733  0.00  0.00    +0.004 A 
ATOM     26  C   UNL     1       4.220  -1.317  23.652  0.00  0.00    +0.111 A 
ATOM     27  C   UNL     1       5.003  -0.286  23.159  0.00  0.00    +0.020 A 
ENDBRANCH  22  23
ENDBRANCH  17  20
ENDBRANCH  10  17
TORSDOF 7
ENDMDL
MODEL 4
REMARK VINA RESULT:      -2.6      2.174      4.340
REMARK  Name = 75536361
REMARK  7 active torsions:
REMARK  status: ('A' for Active; 'I' for Inactive)
REMARK    1  A    between atoms: O_2  and  C_9
REMARK    2  A    between atoms: N_4  and  C_11
REMARK    3  A    between atoms: N_4  and  C_14
REMARK    4  A    between atoms: C_8  and  C_14
REMARK    5  A    between atoms: C_10  and  C_17
REMARK    6  A    between atoms: C_17  and  C_20
REMARK    7  A    between atoms: C_22  and  C_23
REMARK                            x       y       z     vdW  Elec       q    Type
REMARK                         _______ _______ _______ _____ _____    ______ ____
ROOT
ATOM      1  O   UNL     1      -3.629   0.080  23.590  0.00  0.00    -0.369 OA
ATOM      8  C   UNL     1      -4.537  -0.423  24.578  0.00  0.00    +0.161 C 
ATOM      9  C   UNL     1      -3.917  -1.582  25.369  0.00  0.00    +0.145 C 
ATOM     10  C   UNL     1      -2.354   0.491  24.089  0.00  0.00    +0.125 C 
ATOM     12  C   UNL     1      -2.523  -1.248  25.894  0.00  0.00    +0.036 C 
ATOM     13  C   UNL     1      -1.647  -0.671  24.785  0.00  0.00    +0.034 C 
ENDROOT
BRANCH   9   2
ATOM      2  O   UNL     1      -3.798  -2.717  24.506  0.00  0.00    -0.389 OA
ATOM     30  H   UNL     1      -3.673  -3.501  25.067  0.00  0.00    +0.210 HD
ENDBRANCH   9   2
BRANCH   8  14
ATOM     14  C   UNL     1      -5.053   0.701  25.474  0.00  0.00    +0.115 C 
BRANCH  14   4
ATOM      4  N   UNL     1      -5.610   1.784  24.679  0.00  0.00    -0.311 NA
ATOM     28  H   UNL     1      -5.558   1.527  23.693  0.00  0.00    +0.122 HD
BRANCH   4  11
ATOM      5  N   UNL     1      -2.292   4.423  25.041  0.00  0.00    -0.316 NA
ATOM     11  C   UNL     1      -4.862   3.022  24.884  0.00  0.00    +0.056 C 
ATOM     15  C   UNL     1      -3.930   2.885  26.093  0.00  0.00    +0.034 C 
ATOM     16  C   UNL     1      -4.055   3.389  23.634  0.00  0.00    +0.034 C 
ATOM     18  C   UNL     1      -3.060   4.133  26.254  0.00  0.00    +0.082 C 
ATOM     19  C   UNL     1      -3.180   4.617  23.891  0.00  0.00    +0.082 C 
ATOM     29  H   UNL     1      -1.740   5.268  25.186  0.00  0.00    +0.122 HD
ENDBRANCH   4  11
ENDBRANCH  14   4
ENDBRANCH   8  14
BRANCH  10  17
ATOM     17  C   UNL     1      -1.536   0.992  22.905  0.00  0.00    +0.090 C 
BRANCH  17  20
ATOM      3  O   UNL     1       1.833   1.696  23.973  0.00  0.00    -0.353 OA
ATOM      6  N   UNL     1       0.485   2.015  23.867  0.00  0.00    -0.083 NA
ATOM     20  C   UNL     1      -0.062   0.990  23.206  0.00  0.00    +0.087 A 
ATOM     21  C   UNL     1       0.884   0.005  22.872  0.00  0.00    +0.077 A 
ATOM     22  C   UNL     1       2.059   0.496  23.377  0.00  0.00    +0.186 A 
BRANCH  22  23
ATOM      7  N   UNL     1       3.558  -1.265  23.763  0.00  0.00    -0.252 NA
ATOM     23  C   UNL     1       3.415   0.031  23.407  0.00  0.00    +0.109 A 
ATOM     24  C   UNL     1       4.471   0.870  23.090  0.00  0.00    +0.031 A 
ATOM     25  C   UNL     1       5.758   0.343  23.142  0.00  0.00    +0.004 A 
ATOM     26  C   UNL     1       4.822  -1.742  23.802  0.00  0.00    +0.111 A 
ATOM     27  C   UNL     1       5.944  -0.986  23.504  0.00  0.00    +0.020 A 
ENDBRANCH  22  23
ENDBRANCH  17  20
ENDBRANCH  10  17
TORSDOF 7
ENDMDL
MODEL 5
REMARK VINA RESULT:      -1.9      1.760      2.301
REMARK  Name = 75536361
REMARK  7 active torsions:
REMARK  status: ('A' for Active; 'I' for Inactive)
REMARK    1  A    between atoms: O_2  and  C_9
REMARK    2  A    between atoms: N_4  and  C_11
REMARK    3  A    between atoms: N_4  and  C_14
REMARK    4  A    between atoms: C_8  and  C_14
REMARK    5  A    between atoms: C_10  and  C_17
REMARK    6  A    between atoms: C_17  and  C_20
REMARK    7  A    between atoms: C_22  and  C_23
REMARK                            x       y       z     vdW  Elec       q    Type
REMARK                         _______ _______ _______ _____ _____    ______ ____
ROOT
ATOM      1  O   UNL     1      -3.256   2.072  25.538  0.00  0.00    -0.369 OA
ATOM      8  C   UNL     1      -4.545   1.458  25.672  0.00  0.00    +0.161 C 
ATOM      9  C   UNL     1      -5.653   2.357  25.110  0.00  0.00    +0.145 C 
ATOM     10  C   UNL     1      -2.904   2.463  24.208  0.00  0.00    +0.125 C 
ATOM     12  C   UNL     1      -5.332   2.869  23.707  0.00  0.00    +0.036 C 
ATOM     13  C   UNL     1      -3.924   3.455  23.651  0.00  0.00    +0.034 C 
ENDROOT
BRANCH   9   2
ATOM      2  O   UNL     1      -5.803   3.494  25.965  0.00  0.00    -0.389 OA
ATOM     30  H   UNL     1      -6.745   3.566  26.196  0.00  0.00    +0.210 HD
ENDBRANCH   9   2
BRANCH   8  14
ATOM     14  C   UNL     1      -4.552   0.055  25.068  0.00  0.00    +0.115 C 
BRANCH  14   4
ATOM      4  N   UNL     1      -4.271  -0.948  26.084  0.00  0.00    -0.311 NA
ATOM     28  H   UNL     1      -4.168  -0.481  26.986  0.00  0.00    +0.122 HD
BRANCH   4  11
ATOM      5  N   UNL     1      -0.618  -1.960  24.152  0.00  0.00    -0.316 NA
ATOM     11  C   UNL     1      -3.037  -1.668  25.782  0.00  0.00    +0.056 C 
ATOM     15  C   UNL     1      -3.077  -2.214  24.350  0.00  0.00    +0.034 C 
ATOM     16  C   UNL     1      -1.813  -0.763  25.967  0.00  0.00    +0.034 C 
ATOM     18  C   UNL     1      -1.748  -2.875  23.981  0.00  0.00    +0.082 C 
ATOM     19  C   UNL     1      -0.534  -1.481  25.535  0.00  0.00    +0.082 C 
ATOM     29  H   UNL     1       0.247  -2.444  23.911  0.00  0.00    +0.122 HD
ENDBRANCH   4  11
ENDBRANCH  14   4
ENDBRANCH   8  14
BRANCH  10  17
ATOM     17  C   UNL     1      -1.516   3.087  24.266  0.00  0.00    +0.090 C 
BRANCH  17  20
ATOM      3  O   UNL     1       0.436   0.367  22.930  0.00  0.00    -0.353 OA
ATOM      6  N   UNL     1      -0.761   1.049  23.110  0.00  0.00    -0.083 NA
ATOM     20  C   UNL     1      -0.447   2.107  23.864  0.00  0.00    +0.087 A 
ATOM     21  C   UNL     1       0.921   2.144  24.186  0.00  0.00    +0.077 A 
ATOM     22  C   UNL     1       1.431   1.029  23.576  0.00  0.00    +0.186 A 
BRANCH  22  23
ATOM      7  N   UNL     1       3.724   1.312  23.174  0.00  0.00    -0.252 NA
ATOM     23  C   UNL     1       2.735   0.442  23.478  0.00  0.00    +0.109 A 
ATOM     24  C   UNL     1       2.931  -0.914  23.685  0.00  0.00    +0.031 A 
ATOM     25  C   UNL     1       4.227  -1.408  23.574  0.00  0.00    +0.004 A 
ATOM     26  C   UNL     1       4.969   0.796  23.074  0.00  0.00    +0.111 A 
ATOM     27  C   UNL     1       5.270  -0.543  23.263  0.00  0.00    +0.020 A 
ENDBRANCH  22  23
ENDBRANCH  17  20
ENDBRANCH  10  17
TORSDOF 7
ENDMDL
MODEL 6
REMARK VINA RESULT:      -1.9      1.880      6.045
REMARK  Name = 75536361
REMARK  7 active torsions:
REMARK  status: ('A' for Active; 'I' for Inactive)
REMARK    1  A    between atoms: O_2  and  C_9
REMARK    2  A    between atoms: N_4  and  C_11
REMARK    3  A    between atoms: N_4  and  C_14
REMARK    4  A    between atoms: C_8  and  C_14
REMARK    5  A    between atoms: C_10  and  C_17
REMARK    6  A    between atoms: C_17  and  C_20
REMARK    7  A    between atoms: C_22  and  C_23
REMARK                            x       y       z     vdW  Elec       q    Type
REMARK                         _______ _______ _______ _____ _____    ______ ____
ROOT
ATOM      1  O   UNL     1       0.040   1.063  23.227  0.00  0.00    -0.369 OA
ATOM      8  C   UNL     1       0.171  -0.359  23.096  0.00  0.00    +0.161 C 
ATOM      9  C   UNL     1       1.471  -0.737  22.377  0.00  0.00    +0.145 C 
ATOM     10  C   UNL     1       1.134   1.715  23.878  0.00  0.00    +0.125 C 
ATOM     12  C   UNL     1       2.691  -0.037  22.974  0.00  0.00    +0.036 C 
ATOM     13  C   UNL     1       2.438   1.461  23.124  0.00  0.00    +0.034 C 
ENDROOT
BRANCH   9   2
ATOM      2  O   UNL     1       1.371  -0.346  21.005  0.00  0.00    -0.389 OA
ATOM     30  H   UNL     1       0.452  -0.491  20.724  0.00  0.00    +0.210 HD
ENDBRANCH   9   2
BRANCH   8  14
ATOM     14  C   UNL     1       0.012  -1.054  24.448  0.00  0.00    +0.115 C 
BRANCH  14   4
ATOM      4  N   UNL     1      -0.998  -0.389  25.257  0.00  0.00    -0.311 NA
ATOM     28  H   UNL     1      -0.677  -0.364  26.225  0.00  0.00    +0.122 HD
BRANCH   4  11
ATOM      5  N   UNL     1      -4.191  -2.720  23.684  0.00  0.00    -0.316 NA
ATOM     11  C   UNL     1      -2.270  -1.104  25.198  0.00  0.00    +0.056 C 
ATOM     15  C   UNL     1      -3.169  -0.500  24.113  0.00  0.00    +0.034 C 
ATOM     16  C   UNL     1      -2.049  -2.597  24.929  0.00  0.00    +0.034 C 
ATOM     18  C   UNL     1      -4.459  -1.307  23.964  0.00  0.00    +0.082 C 
ATOM     19  C   UNL     1      -3.383  -3.321  24.748  0.00  0.00    +0.082 C 
ATOM     29  H   UNL     1      -5.075  -3.222  23.608  0.00  0.00    +0.122 HD
ENDBRANCH   4  11
ENDBRANCH  14   4
ENDBRANCH   8  14
BRANCH  10  17
ATOM     17  C   UNL     1       0.817   3.205  23.924  0.00  0.00    +0.090 C 
BRANCH  17  20
ATOM      3  O   UNL     1      -2.179   4.509  25.447  0.00  0.00    -0.353 OA
ATOM      6  N   UNL     1      -0.833   4.594  25.111  0.00  0.00    -0.083 NA
ATOM     20  C   UNL     1      -0.570   3.463  24.450  0.00  0.00    +0.087 A 
ATOM     21  C   UNL     1      -1.700   2.635  24.340  0.00  0.00    +0.077 A 
ATOM     22  C   UNL     1      -2.684   3.338  24.982  0.00  0.00    +0.186 A 
BRANCH  22  23
ATOM      7  N   UNL     1      -4.805   4.230  25.437  0.00  0.00    -0.252 NA
ATOM     23  C   UNL     1      -4.073   3.108  25.254  0.00  0.00    +0.109 A 
ATOM     24  C   UNL     1      -4.593   1.825  25.314  0.00  0.00    +0.031 A 
ATOM     25  C   UNL     1      -5.951   1.685  25.581  0.00  0.00    +0.004 A 
ATOM     26  C   UNL     1      -6.120   4.055  25.694  0.00  0.00    +0.111 A 
ATOM     27  C   UNL     1      -6.735   2.817  25.776  0.00  0.00    +0.020 A 
ENDBRANCH  22  23
ENDBRANCH  17  20
ENDBRANCH  10  17
TORSDOF 7
ENDMDL
MODEL 7
REMARK VINA RESULT:      -1.1      1.827      5.259
REMARK  Name = 75536361
REMARK  7 active torsions:
REMARK  status: ('A' for Active; 'I' for Inactive)
REMARK    1  A    between atoms: O_2  and  C_9
REMARK    2  A    between atoms: N_4  and  C_11
REMARK    3  A    between atoms: N_4  and  C_14
REMARK    4  A    between atoms: C_8  and  C_14
REMARK    5  A    between atoms: C_10  and  C_17
REMARK    6  A    between atoms: C_17  and  C_20
REMARK    7  A    between atoms: C_22  and  C_23
REMARK                            x       y       z     vdW  Elec       q    Type
REMARK                         _______ _______ _______ _____ _____    ______ ____
ROOT
ATOM      1  O   UNL     1      -2.035   3.410  24.685  0.00  0.00    -0.369 OA
ATOM      8  C   UNL     1      -0.613   3.526  24.833  0.00  0.00    +0.161 C 
ATOM      9  C   UNL     1      -0.118   4.915  24.414  0.00  0.00    +0.145 C 
ATOM     10  C   UNL     1      -2.800   4.400  25.376  0.00  0.00    +0.125 C 
ATOM     12  C   UNL     1      -0.922   6.040  25.064  0.00  0.00    +0.036 C 
ATOM     13  C   UNL     1      -2.421   5.802  24.901  0.00  0.00    +0.034 C 
ENDROOT
BRANCH   9   2
ATOM      2  O   UNL     1      -0.256   5.046  22.996  0.00  0.00    -0.389 OA
ATOM     30  H   UNL     1      -0.259   4.150  22.617  0.00  0.00    +0.210 HD
ENDBRANCH   9   2
BRANCH   8  14
ATOM     14  C   UNL     1      -0.173   3.136  26.243  0.00  0.00    +0.115 C 
BRANCH  14   4
ATOM      4  N   UNL     1      -0.145   1.690  26.397  0.00  0.00    -0.311 NA
ATOM     28  H   UNL     1       0.743   1.422  26.822  0.00  0.00    +0.122 HD
BRANCH   4  11
ATOM      5  N   UNL     1       0.731  -0.936  23.166  0.00  0.00    -0.316 NA
ATOM     11  C   UNL     1      -0.269   1.024  25.103  0.00  0.00    +0.056 C 
ATOM     15  C   UNL     1       0.980   1.280  24.252  0.00  0.00    +0.034 C 
ATOM     16  C   UNL     1      -0.486  -0.483  25.280  0.00  0.00    +0.034 C 
ATOM     18  C   UNL     1       0.914   0.500  22.939  0.00  0.00    +0.082 C 
ATOM     19  C   UNL     1      -0.494  -1.195  23.926  0.00  0.00    +0.082 C 
ATOM     29  H   UNL     1       0.678  -1.415  22.268  0.00  0.00    +0.122 HD
ENDBRANCH   4  11
ENDBRANCH  14   4
ENDBRANCH   8  14
BRANCH  10  17
ATOM     17  C   UNL     1      -4.272   4.116  25.104  0.00  0.00    +0.090 C 
BRANCH  17  20
ATOM      3  O   UNL     1      -5.697   0.807  24.989  0.00  0.00    -0.353 OA
ATOM      6  N   UNL     1      -5.803   2.188  25.098  0.00  0.00    -0.083 NA
ATOM     20  C   UNL     1      -4.547   2.638  25.021  0.00  0.00    +0.087 A 
ATOM     21  C   UNL     1      -3.616   1.596  24.864  0.00  0.00    +0.077 A 
ATOM     22  C   UNL     1      -4.390   0.466  24.850  0.00  0.00    +0.186 A 
BRANCH  22  23
ATOM      7  N   UNL     1      -3.535  -1.498  25.804  0.00  0.00    -0.252 NA
ATOM     23  C   UNL     1      -4.122  -0.936  24.723  0.00  0.00    +0.109 A 
ATOM     24  C   UNL     1      -4.453  -1.631  23.571  0.00  0.00    +0.031 A 
ATOM     25  C   UNL     1      -4.163  -2.991  23.526  0.00  0.00    +0.004 A 
ATOM     26  C   UNL     1      -3.268  -2.820  25.723  0.00  0.00    +0.111 A 
ATOM     27  C   UNL     1      -3.558  -3.604  24.618  0.00  0.00    +0.020 A 
ENDBRANCH  22  23
ENDBRANCH  17  20
ENDBRANCH  10  17
TORSDOF 7
ENDMDL
