MODEL 1
REMARK VINA RESULT:      -3.4      0.000      0.000
REMARK  Name = 26742412
REMARK  6 active torsions:
REMARK  status: ('A' for Active; 'I' for Inactive)
REMARK    1  A    between atoms: N_5  and  C_15
REMARK    2  A    between atoms: C_9  and  C_16
REMARK    3  A    between atoms: C_10  and  C_15
REMARK    4  A    between atoms: C_18  and  C_21
REMARK    5  A    between atoms: C_19  and  C_22
REMARK    6  A    between atoms: C_20  and  C_23
REMARK                            x       y       z     vdW  Elec       q    Type
REMARK                         _______ _______ _______ _____ _____    ______ ____
ROOT
ATOM      4  N   UNL     1      -2.682  -2.113  23.723  0.00  0.00    -0.297 NA
ATOM      8  C   UNL     1      -2.830  -1.117  26.126  0.00  0.00    +0.002 C 
ATOM      9  C   UNL     1      -3.887  -0.457  25.197  0.00  0.00    +0.055 C 
ATOM     10  C   UNL     1      -1.330  -1.701  24.187  0.00  0.00    +0.074 C 
ATOM     11  C   UNL     1      -1.425  -0.922  25.517  0.00  0.00    +0.024 C 
ATOM     12  C   UNL     1      -3.119  -2.633  26.123  0.00  0.00    +0.019 C 
ATOM     13  C   UNL     1      -3.604  -0.951  23.749  0.00  0.00    +0.094 C 
ATOM     14  C   UNL     1      -3.195  -3.132  24.669  0.00  0.00    +0.085 C 
ENDROOT
BRANCH   9  16
ATOM      6  N   UNL     1      -5.311   1.505  25.518  0.00  0.00    -0.237 NA
ATOM      7  N   UNL     1      -4.445   3.752  25.404  0.00  0.00    -0.229 NA
ATOM     16  C   UNL     1      -4.065   1.053  25.268  0.00  0.00    +0.050 A 
ATOM     17  C   UNL     1      -2.974   1.875  25.076  0.00  0.00    +0.055 A 
ATOM     18  C   UNL     1      -3.226   3.230  25.156  0.00  0.00    +0.110 A 
ATOM     19  C   UNL     1      -5.428   2.846  25.572  0.00  0.00    +0.127 A 
ATOM     22  C   UNL     1      -6.790   3.386  25.848  0.00  0.00    +0.088 C 
BRANCH  18  21
ATOM      3  O   UNL     1      -1.000   3.708  24.513  0.00  0.00    -0.461 OA
ATOM     21  C   UNL     1      -2.180   4.201  24.976  0.00  0.00    +0.153 A 
ATOM     24  C   UNL     1      -2.092   5.560  25.170  0.00  0.00    +0.051 A 
ATOM     26  C   UNL     1      -0.775   5.926  24.804  0.00  0.00    +0.042 A 
ATOM     27  C   UNL     1      -0.151   4.763  24.411  0.00  0.00    +0.196 A 
ENDBRANCH  18  21
ENDBRANCH   9  16
BRANCH  10  15
ATOM     15  C   UNL     1      -0.562  -0.917  23.121  0.00  0.00    +0.123 C 
BRANCH  15   5
ATOM      2  O   UNL     1       1.605  -0.245  21.362  0.00  0.00    -0.270 OA
ATOM      5  N   UNL     1       0.818  -0.790  23.475  0.00  0.00    -0.309 N 
ATOM     20  C   UNL     1       1.810  -0.459  22.554  0.00  0.00    +0.251 C 
ATOM     30  H   UNL     1       1.081  -0.960  24.442  0.00  0.00    +0.149 HD
BRANCH  20  23
ATOM      1  S   UNL     1       4.151   0.989  22.741  0.00  0.00    -0.092 S 
ATOM     23  C   UNL     1       3.199  -0.394  23.076  0.00  0.00    +0.074 A 
ATOM     25  C   UNL     1       3.883  -1.323  23.829  0.00  0.00    +0.021 A 
ATOM     28  C   UNL     1       5.207  -0.894  24.134  0.00  0.00    +0.008 A 
ATOM     29  C   UNL     1       5.484   0.347  23.604  0.00  0.00    +0.046 A 
ENDBRANCH  20  23
ENDBRANCH  15   5
ENDBRANCH  10  15
TORSDOF 5
ENDMDL
MODEL 2
REMARK VINA RESULT:      -1.0      2.224      5.920
REMARK  Name = 26742412
REMARK  6 active torsions:
REMARK  status: ('A' for Active; 'I' for Inactive)
REMARK    1  A    between atoms: N_5  and  C_15
REMARK    2  A    between atoms: C_9  and  C_16
REMARK    3  A    between atoms: C_10  and  C_15
REMARK    4  A    between atoms: C_18  and  C_21
REMARK    5  A    between atoms: C_19  and  C_22
REMARK    6  A    between atoms: C_20  and  C_23
REMARK                            x       y       z     vdW  Elec       q    Type
REMARK                         _______ _______ _______ _____ _____    ______ ____
ROOT
ATOM      4  N   UNL     1      -4.112  -1.579  25.739  0.00  0.00    -0.297 NA
ATOM      8  C   UNL     1      -2.548  -1.744  23.663  0.00  0.00    +0.002 C 
ATOM      9  C   UNL     1      -1.726  -1.404  24.937  0.00  0.00    +0.055 C 
ATOM     10  C   UNL     1      -4.657  -0.757  24.626  0.00  0.00    +0.074 C 
ATOM     11  C   UNL     1      -3.644  -0.675  23.463  0.00  0.00    +0.024 C 
ATOM     12  C   UNL     1      -3.265  -3.082  23.939  0.00  0.00    +0.019 C 
ATOM     13  C   UNL     1      -2.741  -1.125  26.083  0.00  0.00    +0.094 C 
ATOM     14  C   UNL     1      -4.030  -2.983  25.270  0.00  0.00    +0.085 C 
ENDROOT
BRANCH   9  16
ATOM      6  N   UNL     1      -0.778   0.726  25.675  0.00  0.00    -0.237 NA
ATOM      7  N   UNL     1       1.228   1.644  24.704  0.00  0.00    -0.229 NA
ATOM     16  C   UNL     1      -0.657  -0.324  24.837  0.00  0.00    +0.050 A 
ATOM     17  C   UNL     1       0.362  -0.460  23.918  0.00  0.00    +0.055 A 
ATOM     18  C   UNL     1       1.285   0.565  23.895  0.00  0.00    +0.110 A 
ATOM     19  C   UNL     1       0.186   1.660  25.557  0.00  0.00    +0.127 A 
ATOM     22  C   UNL     1       0.089   2.837  26.467  0.00  0.00    +0.088 C 
BRANCH  18  21
ATOM      3  O   UNL     1       3.517   1.190  23.423  0.00  0.00    -0.461 OA
ATOM     21  C   UNL     1       2.399   0.553  22.985  0.00  0.00    +0.153 A 
ATOM     24  C   UNL     1       2.604   0.026  21.731  0.00  0.00    +0.051 A 
ATOM     26  C   UNL     1       3.931   0.362  21.374  0.00  0.00    +0.042 A 
ATOM     27  C   UNL     1       4.445   1.070  22.437  0.00  0.00    +0.196 A 
ENDBRANCH  18  21
ENDBRANCH   9  16
BRANCH  10  15
ATOM     15  C   UNL     1      -5.105   0.630  25.091  0.00  0.00    +0.123 C 
BRANCH  15   5
ATOM      2  O   UNL     1      -5.228   3.431  25.707  0.00  0.00    -0.270 OA
ATOM      5  N   UNL     1      -4.061   1.591  24.911  0.00  0.00    -0.309 N 
ATOM     20  C   UNL     1      -4.205   2.938  25.238  0.00  0.00    +0.251 C 
ATOM     30  H   UNL     1      -3.180   1.272  24.518  0.00  0.00    +0.149 HD
BRANCH  20  23
ATOM      1  S   UNL     1      -2.003   3.437  23.652  0.00  0.00    -0.092 S 
ATOM     23  C   UNL     1      -3.036   3.812  24.966  0.00  0.00    +0.074 A 
ATOM     25  C   UNL     1      -2.625   4.941  25.641  0.00  0.00    +0.021 A 
ATOM     28  C   UNL     1      -1.446   5.504  25.072  0.00  0.00    +0.008 A 
ATOM     29  C   UNL     1      -1.002   4.786  23.985  0.00  0.00    +0.046 A 
ENDBRANCH  20  23
ENDBRANCH  15   5
ENDBRANCH  10  15
TORSDOF 5
ENDMDL
MODEL 3
REMARK VINA RESULT:      -0.9      2.654      5.798
REMARK  Name = 26742412
REMARK  6 active torsions:
REMARK  status: ('A' for Active; 'I' for Inactive)
REMARK    1  A    between atoms: N_5  and  C_15
REMARK    2  A    between atoms: C_9  and  C_16
REMARK    3  A    between atoms: C_10  and  C_15
REMARK    4  A    between atoms: C_18  and  C_21
REMARK    5  A    between atoms: C_19  and  C_22
REMARK    6  A    between atoms: C_20  and  C_23
REMARK                            x       y       z     vdW  Elec       q    Type
REMARK                         _______ _______ _______ _____ _____    ______ ____
ROOT
ATOM      4  N   UNL     1      -5.120   3.257  24.021  0.00  0.00    -0.297 NA
ATOM      8  C   UNL     1      -3.824   3.899  26.188  0.00  0.00    +0.002 C 
ATOM      9  C   UNL     1      -2.849   3.788  24.983  0.00  0.00    +0.055 C 
ATOM     10  C   UNL     1      -5.489   2.333  25.126  0.00  0.00    +0.074 C 
ATOM     11  C   UNL     1      -4.582   2.565  26.355  0.00  0.00    +0.024 C 
ATOM     12  C   UNL     1      -4.870   4.971  25.816  0.00  0.00    +0.019 C 
ATOM     13  C   UNL     1      -3.656   3.210  23.785  0.00  0.00    +0.094 C 
ATOM     14  C   UNL     1      -5.476   4.633  24.442  0.00  0.00    +0.085 C 
ENDROOT
BRANCH   9  16
ATOM      6  N   UNL     1      -0.961   3.175  26.412  0.00  0.00    -0.237 NA
ATOM      7  N   UNL     1       0.844   1.783  25.628  0.00  0.00    -0.229 NA
ATOM     16  C   UNL     1      -1.527   3.062  25.193  0.00  0.00    +0.050 A 
ATOM     17  C   UNL     1      -0.976   2.340  24.154  0.00  0.00    +0.055 A 
ATOM     18  C   UNL     1       0.223   1.715  24.432  0.00  0.00    +0.110 A 
ATOM     19  C   UNL     1       0.207   2.519  26.558  0.00  0.00    +0.127 A 
ATOM     22  C   UNL     1       0.864   2.618  27.893  0.00  0.00    +0.088 C 
BRANCH  18  21
ATOM      3  O   UNL     1       2.246   1.148  23.345  0.00  0.00    -0.461 OA
ATOM     21  C   UNL     1       0.908   0.929  23.440  0.00  0.00    +0.153 A 
ATOM     24  C   UNL     1       0.508  -0.026  22.535  0.00  0.00    +0.051 A 
ATOM     26  C   UNL     1       1.676  -0.419  21.837  0.00  0.00    +0.042 A 
ATOM     27  C   UNL     1       2.706   0.324  22.367  0.00  0.00    +0.196 A 
ENDBRANCH  18  21
ENDBRANCH   9  16
BRANCH  10  15
ATOM     15  C   UNL     1      -5.488   0.867  24.685  0.00  0.00    +0.123 C 
BRANCH  15   5
ATOM      2  O   UNL     1      -4.659  -1.754  23.861  0.00  0.00    -0.270 OA
ATOM      5  N   UNL     1      -4.205   0.272  24.896  0.00  0.00    -0.309 N 
ATOM     20  C   UNL     1      -3.885  -1.013  24.461  0.00  0.00    +0.251 C 
ATOM     30  H   UNL     1      -3.503   0.812  25.395  0.00  0.00    +0.149 HD
BRANCH  20  23
ATOM      1  S   UNL     1      -1.647  -0.750  26.053  0.00  0.00    -0.092 S 
ATOM     23  C   UNL     1      -2.518  -1.496  24.782  0.00  0.00    +0.074 A 
ATOM     25  C   UNL     1      -1.797  -2.507  24.184  0.00  0.00    +0.021 A 
ATOM     28  C   UNL     1      -0.512  -2.671  24.778  0.00  0.00    +0.008 A 
ATOM     29  C   UNL     1      -0.300  -1.780  25.807  0.00  0.00    +0.046 A 
ENDBRANCH  20  23
ENDBRANCH  15   5
ENDBRANCH  10  15
TORSDOF 5
ENDMDL
MODEL 4
REMARK VINA RESULT:      -0.6      2.501      7.002
REMARK  Name = 26742412
REMARK  6 active torsions:
REMARK  status: ('A' for Active; 'I' for Inactive)
REMARK    1  A    between atoms: N_5  and  C_15
REMARK    2  A    between atoms: C_9  and  C_16
REMARK    3  A    between atoms: C_10  and  C_15
REMARK    4  A    between atoms: C_18  and  C_21
REMARK    5  A    between atoms: C_19  and  C_22
REMARK    6  A    between atoms: C_20  and  C_23
REMARK                            x       y       z     vdW  Elec       q    Type
REMARK                         _______ _______ _______ _____ _____    ______ ____
ROOT
ATOM      4  N   UNL     1      -2.475   4.503  23.918  0.00  0.00    -0.297 NA
ATOM      8  C   UNL     1      -1.173   3.255  25.797  0.00  0.00    +0.002 C 
ATOM      9  C   UNL     1      -0.402   3.168  24.451  0.00  0.00    +0.055 C 
ATOM     10  C   UNL     1      -3.387   3.573  24.636  0.00  0.00    +0.074 C 
ATOM     11  C   UNL     1      -2.592   2.677  25.611  0.00  0.00    +0.024 C 
ATOM     12  C   UNL     1      -1.334   4.756  26.121  0.00  0.00    +0.019 C 
ATOM     13  C   UNL     1      -1.329   3.753  23.347  0.00  0.00    +0.094 C 
ATOM     14  C   UNL     1      -1.947   5.474  24.906  0.00  0.00    +0.085 C 
ENDROOT
BRANCH   9  16
ATOM      6  N   UNL     1      -0.671   0.813  23.847  0.00  0.00    -0.237 NA
ATOM      7  N   UNL     1       1.210  -0.603  23.332  0.00  0.00    -0.229 NA
ATOM     16  C   UNL     1       0.196   1.826  24.050  0.00  0.00    +0.050 A 
ATOM     17  C   UNL     1       1.563   1.705  23.917  0.00  0.00    +0.055 A 
ATOM     18  C   UNL     1       2.019   0.454  23.553  0.00  0.00    +0.110 A 
ATOM     19  C   UNL     1      -0.105  -0.357  23.495  0.00  0.00    +0.127 A 
ATOM     22  C   UNL     1      -1.030  -1.502  23.259  0.00  0.00    +0.088 C 
BRANCH  18  21
ATOM      3  O   UNL     1       3.842  -1.029  23.819  0.00  0.00    -0.461 OA
ATOM     21  C   UNL     1       3.421   0.186  23.379  0.00  0.00    +0.153 A 
ATOM     24  C   UNL     1       4.473   0.900  22.851  0.00  0.00    +0.051 A 
ATOM     26  C   UNL     1       5.613   0.070  22.976  0.00  0.00    +0.042 A 
ATOM     27  C   UNL     1       5.177  -1.092  23.571  0.00  0.00    +0.196 A 
ENDBRANCH  18  21
ENDBRANCH   9  16
BRANCH  10  15
ATOM     15  C   UNL     1      -4.251   2.749  23.679  0.00  0.00    +0.123 C 
BRANCH  15   5
ATOM      2  O   UNL     1      -5.513   0.903  25.478  0.00  0.00    -0.270 OA
ATOM      5  N   UNL     1      -3.966   1.353  23.809  0.00  0.00    -0.309 N 
ATOM     20  C   UNL     1      -4.630   0.525  24.712  0.00  0.00    +0.251 C 
ATOM     30  H   UNL     1      -3.240   0.956  23.219  0.00  0.00    +0.149 HD
BRANCH  20  23
ATOM      1  S   UNL     1      -3.280  -1.459  26.075  0.00  0.00    -0.092 S 
ATOM     23  C   UNL     1      -4.199  -0.896  24.744  0.00  0.00    +0.074 A 
ATOM     25  C   UNL     1      -4.434  -1.890  23.819  0.00  0.00    +0.021 A 
ATOM     28  C   UNL     1      -3.851  -3.131  24.209  0.00  0.00    +0.008 A 
ATOM     29  C   UNL     1      -3.194  -3.038  25.416  0.00  0.00    +0.046 A 
ENDBRANCH  20  23
ENDBRANCH  15   5
ENDBRANCH  10  15
TORSDOF 5
ENDMDL
MODEL 5
REMARK VINA RESULT:       0.1      3.269      5.734
REMARK  Name = 26742412
REMARK  6 active torsions:
REMARK  status: ('A' for Active; 'I' for Inactive)
REMARK    1  A    between atoms: N_5  and  C_15
REMARK    2  A    between atoms: C_9  and  C_16
REMARK    3  A    between atoms: C_10  and  C_15
REMARK    4  A    between atoms: C_18  and  C_21
REMARK    5  A    between atoms: C_19  and  C_22
REMARK    6  A    between atoms: C_20  and  C_23
REMARK                            x       y       z     vdW  Elec       q    Type
REMARK                         _______ _______ _______ _____ _____    ______ ____
ROOT
ATOM      4  N   UNL     1      -5.279   3.102  24.115  0.00  0.00    -0.297 NA
ATOM      8  C   UNL     1      -3.944   3.880  26.211  0.00  0.00    +0.002 C 
ATOM      9  C   UNL     1      -2.994   3.710  24.993  0.00  0.00    +0.055 C 
ATOM     10  C   UNL     1      -5.613   2.238  25.279  0.00  0.00    +0.074 C 
ATOM     11  C   UNL     1      -4.682   2.550  26.472  0.00  0.00    +0.024 C 
ATOM     12  C   UNL     1      -5.011   4.918  25.802  0.00  0.00    +0.019 C 
ATOM     13  C   UNL     1      -3.820   3.056  23.849  0.00  0.00    +0.094 C 
ATOM     14  C   UNL     1      -5.643   4.496  24.464  0.00  0.00    +0.085 C 
ENDROOT
BRANCH   9  16
ATOM      6  N   UNL     1      -1.170   2.300  24.178  0.00  0.00    -0.237 NA
ATOM      7  N   UNL     1       0.729   1.735  25.550  0.00  0.00    -0.229 NA
ATOM     16  C   UNL     1      -1.659   3.011  25.214  0.00  0.00    +0.050 A 
ATOM     17  C   UNL     1      -1.024   3.129  26.432  0.00  0.00    +0.055 A 
ATOM     18  C   UNL     1       0.179   2.463  26.545  0.00  0.00    +0.110 A 
ATOM     19  C   UNL     1       0.012   1.697  24.411  0.00  0.00    +0.127 A 
ATOM     22  C   UNL     1       0.587   0.902  23.289  0.00  0.00    +0.088 C 
BRANCH  18  21
ATOM      3  O   UNL     1       2.174   3.077  27.657  0.00  0.00    -0.461 OA
ATOM     21  C   UNL     1       0.948   2.500  27.761  0.00  0.00    +0.153 A 
ATOM     24  C   UNL     1       0.722   2.073  29.049  0.00  0.00    +0.051 A 
ATOM     26  C   UNL     1       1.883   2.408  29.784  0.00  0.00    +0.042 A 
ATOM     27  C   UNL     1       2.737   3.017  28.893  0.00  0.00    +0.196 A 
ENDBRANCH  18  21
ENDBRANCH   9  16
BRANCH  10  15
ATOM     15  C   UNL     1      -5.604   0.750  24.923  0.00  0.00    +0.123 C 
BRANCH  15   5
ATOM      2  O   UNL     1      -4.625  -1.705  23.804  0.00  0.00    -0.270 OA
ATOM      5  N   UNL     1      -4.301   0.190  25.103  0.00  0.00    -0.309 N 
ATOM     20  C   UNL     1      -3.906  -1.013  24.520  0.00  0.00    +0.251 C 
ATOM     30  H   UNL     1      -3.641   0.692  25.690  0.00  0.00    +0.149 HD
BRANCH  20  23
ATOM      1  S   UNL     1      -1.696  -0.787  26.157  0.00  0.00    -0.092 S 
ATOM     23  C   UNL     1      -2.527  -1.473  24.826  0.00  0.00    +0.074 A 
ATOM     25  C   UNL     1      -1.766  -2.416  24.171  0.00  0.00    +0.021 A 
ATOM     28  C   UNL     1      -0.483  -2.578  24.770  0.00  0.00    +0.008 A 
ATOM     29  C   UNL     1      -0.314  -1.754  25.860  0.00  0.00    +0.046 A 
ENDBRANCH  20  23
ENDBRANCH  15   5
ENDBRANCH  10  15
TORSDOF 5
ENDMDL
