MODEL 1
REMARK VINA RESULT:       0.3      0.000      0.000
REMARK  Name = 45783989
REMARK  10 active torsions:
REMARK  status: ('A' for Active; 'I' for Inactive)
REMARK    1  A    between atoms: N_5  and  C_14
REMARK    2  A    between atoms: N_8  and  C_32
REMARK    3  A    between atoms: C_9  and  C_13
REMARK    4  A    between atoms: C_10  and  C_14
REMARK    5  A    between atoms: C_12  and  C_17
REMARK    6  A    between atoms: C_13  and  C_18
REMARK    7  A    between atoms: C_13  and  C_19
REMARK    8  A    between atoms: C_16  and  C_20
REMARK    9  A    between atoms: C_17  and  C_23
REMARK   10  A    between atoms: C_26  and  C_27
REMARK                            x       y       z     vdW  Elec       q    Type
REMARK                         _______ _______ _______ _____ _____    ______ ____
ROOT
ATOM      9  C   UNL     1      -3.258   2.970  24.232  0.00  0.00    +0.000 C 
ATOM     10  C   UNL     1      -4.023   3.821  25.270  0.00  0.00    +0.029 C 
ATOM     11  C   UNL     1      -3.187   1.505  24.684  0.00  0.00    +0.012 C 
ATOM     12  C   UNL     1      -4.575   0.876  24.941  0.00  0.00    +0.024 C 
ATOM     15  C   UNL     1      -5.274   3.142  25.768  0.00  0.00    -0.023 C 
ATOM     16  C   UNL     1      -5.544   1.832  25.620  0.00  0.00    -0.073 C 
ATOM     20  C   UNL     1      -6.863   1.273  26.078  0.00  0.00    +0.039 C 
ENDROOT
BRANCH   9  13
ATOM     13  C   UNL     1      -3.887   3.091  22.837  0.00  0.00    -0.013 C 
ATOM     18  C   UNL     1      -4.221   4.547  22.528  0.00  0.00    +0.007 C 
ATOM     19  C   UNL     1      -2.950   2.514  21.779  0.00  0.00    +0.007 C 
ENDBRANCH   9  13
BRANCH  10  14
ATOM     14  C   UNL     1      -3.139   4.185  26.467  0.00  0.00    +0.092 C 
BRANCH  14   5
ATOM      1  O   UNL     1       0.414   3.433  24.361  0.00  0.00    -0.377 OA
ATOM      5  N   UNL     1      -1.727   4.161  26.091  0.00  0.00    -0.297 NA
ATOM     21  C   UNL     1      -1.227   2.781  26.026  0.00  0.00    +0.112 C 
ATOM     22  C   UNL     1      -1.518   4.834  24.801  0.00  0.00    +0.112 C 
ATOM     24  C   UNL     1       0.245   2.782  25.621  0.00  0.00    +0.175 C 
ATOM     25  C   UNL     1      -0.041   4.785  24.423  0.00  0.00    +0.175 C 
ENDBRANCH  14   5
ENDBRANCH  10  14
BRANCH  12  17
ATOM     17  C   UNL     1      -4.383  -0.432  25.719  0.00  0.00    +0.105 C 
BRANCH  17  23
ATOM      2  O   UNL     1      -2.091  -0.484  24.880  0.00  0.00    -0.420 OA
ATOM      6  N   UNL     1      -3.058  -2.495  25.028  0.00  0.00    -0.112 NA
ATOM      7  N   UNL     1      -1.776  -2.673  24.544  0.00  0.00    -0.107 NA
ATOM     23  C   UNL     1      -3.199  -1.203  25.211  0.00  0.00    +0.218 A 
ATOM     26  C   UNL     1      -1.248  -1.472  24.474  0.00  0.00    +0.248 A 
BRANCH  26  27
ATOM     27  C   UNL     1       0.052  -1.050  24.043  0.00  0.00    +0.039 A 
ATOM     28  C   UNL     1       0.189   0.086  23.247  0.00  0.00    +0.015 A 
ATOM     29  C   UNL     1       1.182  -1.777  24.421  0.00  0.00    +0.015 A 
ATOM     30  C   UNL     1       1.454   0.497  22.828  0.00  0.00    +0.033 A 
ATOM     31  C   UNL     1       2.447  -1.367  24.002  0.00  0.00    +0.033 A 
ATOM     32  C   UNL     1       2.583  -0.230  23.205  0.00  0.00    +0.126 A 
BRANCH  32   8
ATOM      3  O   UNL     1       4.871  -0.118  23.475  0.00  0.00    -0.126 OA
ATOM      4  O   UNL     1       3.976   0.854  21.722  0.00  0.00    -0.126 OA
ATOM      8  N   UNL     1       3.872   0.189  22.780  0.00  0.00    +0.056 N 
ENDBRANCH  32   8
ENDBRANCH  26  27
ENDBRANCH  17  23
ENDBRANCH  12  17
TORSDOF 7
ENDMDL
MODEL 2
REMARK VINA RESULT:       0.9      1.989      4.144
REMARK  Name = 45783989
REMARK  10 active torsions:
REMARK  status: ('A' for Active; 'I' for Inactive)
REMARK    1  A    between atoms: N_5  and  C_14
REMARK    2  A    between atoms: N_8  and  C_32
REMARK    3  A    between atoms: C_9  and  C_13
REMARK    4  A    between atoms: C_10  and  C_14
REMARK    5  A    between atoms: C_12  and  C_17
REMARK    6  A    between atoms: C_13  and  C_18
REMARK    7  A    between atoms: C_13  and  C_19
REMARK    8  A    between atoms: C_16  and  C_20
REMARK    9  A    between atoms: C_17  and  C_23
REMARK   10  A    between atoms: C_26  and  C_27
REMARK                            x       y       z     vdW  Elec       q    Type
REMARK                         _______ _______ _______ _____ _____    ______ ____
ROOT
ATOM      9  C   UNL     1      -2.930   2.417  25.935  0.00  0.00    +0.000 C 
ATOM     10  C   UNL     1      -4.434   2.395  25.577  0.00  0.00    +0.029 C 
ATOM     11  C   UNL     1      -2.101   1.783  24.809  0.00  0.00    +0.012 C 
ATOM     12  C   UNL     1      -2.312   2.461  23.438  0.00  0.00    +0.024 C 
ATOM     15  C   UNL     1      -4.696   2.802  24.149  0.00  0.00    -0.023 C 
ATOM     16  C   UNL     1      -3.761   2.849  23.183  0.00  0.00    -0.073 C 
ATOM     20  C   UNL     1      -4.113   3.353  21.811  0.00  0.00    +0.039 C 
ENDROOT
BRANCH   9  13
ATOM     13  C   UNL     1      -2.449   3.841  26.245  0.00  0.00    -0.013 C 
ATOM     18  C   UNL     1      -1.301   4.228  25.318  0.00  0.00    +0.007 C 
ATOM     19  C   UNL     1      -3.603   4.832  26.118  0.00  0.00    +0.007 C 
ENDBRANCH   9  13
BRANCH  10  14
ATOM     14  C   UNL     1      -5.056   1.019  25.831  0.00  0.00    +0.092 C 
BRANCH  14   5
ATOM      1  O   UNL     1      -3.680  -2.760  24.627  0.00  0.00    -0.377 OA
ATOM      5  N   UNL     1      -4.229  -0.037  25.250  0.00  0.00    -0.297 NA
ATOM     21  C   UNL     1      -3.799  -0.990  26.283  0.00  0.00    +0.112 C 
ATOM     22  C   UNL     1      -4.953  -0.742  24.184  0.00  0.00    +0.112 C 
ATOM     24  C   UNL     1      -2.946  -2.088  25.651  0.00  0.00    +0.175 C 
ATOM     25  C   UNL     1      -4.075  -1.846  23.602  0.00  0.00    +0.175 C 
ENDBRANCH  14   5
ENDBRANCH  10  14
BRANCH  12  17
ATOM     17  C   UNL     1      -1.738   1.547  22.347  0.00  0.00    +0.105 C 
BRANCH  17  23
ATOM      2  O   UNL     1       0.580   0.870  22.699  0.00  0.00    -0.420 OA
ATOM      6  N   UNL     1      -0.926  -0.521  23.593  0.00  0.00    -0.112 NA
ATOM      7  N   UNL     1       0.332  -1.023  23.866  0.00  0.00    -0.107 NA
ATOM     23  C   UNL     1      -0.734   0.583  22.911  0.00  0.00    +0.218 A 
ATOM     26  C   UNL     1       1.181  -0.179  23.325  0.00  0.00    +0.248 A 
BRANCH  26  27
ATOM     27  C   UNL     1       2.614  -0.191  23.293  0.00  0.00    +0.039 A 
ATOM     28  C   UNL     1       3.313  -1.297  23.775  0.00  0.00    +0.015 A 
ATOM     29  C   UNL     1       3.310   0.904  22.780  0.00  0.00    +0.015 A 
ATOM     30  C   UNL     1       4.707  -1.310  23.744  0.00  0.00    +0.033 A 
ATOM     31  C   UNL     1       4.704   0.892  22.749  0.00  0.00    +0.033 A 
ATOM     32  C   UNL     1       5.402  -0.214  23.231  0.00  0.00    +0.126 A 
BRANCH  32   8
ATOM      3  O   UNL     1       7.404  -0.925  22.331  0.00  0.00    -0.126 OA
ATOM      4  O   UNL     1       7.456   0.458  24.035  0.00  0.00    -0.126 OA
ATOM      8  N   UNL     1       6.823  -0.228  23.197  0.00  0.00    +0.056 N 
ENDBRANCH  32   8
ENDBRANCH  26  27
ENDBRANCH  17  23
ENDBRANCH  12  17
TORSDOF 7
ENDMDL
MODEL 3
REMARK VINA RESULT:       1.3      1.974      4.332
REMARK  Name = 45783989
REMARK  10 active torsions:
REMARK  status: ('A' for Active; 'I' for Inactive)
REMARK    1  A    between atoms: N_5  and  C_14
REMARK    2  A    between atoms: N_8  and  C_32
REMARK    3  A    between atoms: C_9  and  C_13
REMARK    4  A    between atoms: C_10  and  C_14
REMARK    5  A    between atoms: C_12  and  C_17
REMARK    6  A    between atoms: C_13  and  C_18
REMARK    7  A    between atoms: C_13  and  C_19
REMARK    8  A    between atoms: C_16  and  C_20
REMARK    9  A    between atoms: C_17  and  C_23
REMARK   10  A    between atoms: C_26  and  C_27
REMARK                            x       y       z     vdW  Elec       q    Type
REMARK                         _______ _______ _______ _____ _____    ______ ____
ROOT
ATOM      9  C   UNL     1      -4.550   1.986  25.581  0.00  0.00    +0.000 C 
ATOM     10  C   UNL     1      -4.604   0.643  24.818  0.00  0.00    +0.029 C 
ATOM     11  C   UNL     1      -3.128   2.565  25.550  0.00  0.00    +0.012 C 
ATOM     12  C   UNL     1      -2.580   2.765  24.120  0.00  0.00    +0.024 C 
ATOM     15  C   UNL     1      -3.855   0.689  23.511  0.00  0.00    -0.023 C 
ATOM     16  C   UNL     1      -2.957   1.633  23.176  0.00  0.00    -0.073 C 
ATOM     20  C   UNL     1      -2.330   1.633  21.809  0.00  0.00    +0.039 C 
ENDROOT
BRANCH   9  13
ATOM     13  C   UNL     1      -5.570   2.988  25.023  0.00  0.00    -0.013 C 
ATOM     18  C   UNL     1      -6.964   2.368  24.995  0.00  0.00    +0.007 C 
ATOM     19  C   UNL     1      -5.565   4.270  25.852  0.00  0.00    +0.007 C 
ENDBRANCH   9  13
BRANCH  10  14
ATOM     14  C   UNL     1      -4.065  -0.512  25.667  0.00  0.00    +0.092 C 
BRANCH  14   5
ATOM      1  O   UNL     1      -0.656  -2.877  25.027  0.00  0.00    -0.377 OA
ATOM      5  N   UNL     1      -2.809  -1.016  25.115  0.00  0.00    -0.297 NA
ATOM     21  C   UNL     1      -1.753  -1.019  26.137  0.00  0.00    +0.112 C 
ATOM     22  C   UNL     1      -2.984  -2.369  24.569  0.00  0.00    +0.112 C 
ATOM     24  C   UNL     1      -0.456  -1.559  25.540  0.00  0.00    +0.175 C 
ATOM     25  C   UNL     1      -1.659  -2.879  24.010  0.00  0.00    +0.175 C 
ENDBRANCH  14   5
ENDBRANCH  10  14
BRANCH  12  17
ATOM     17  C   UNL     1      -1.066   2.993  24.204  0.00  0.00    +0.105 C 
BRANCH  17  23
ATOM      2  O   UNL     1       1.055   1.845  23.829  0.00  0.00    -0.420 OA
ATOM      6  N   UNL     1      -0.749   0.620  23.334  0.00  0.00    -0.112 NA
ATOM      7  N   UNL     1       0.371  -0.147  23.076  0.00  0.00    -0.107 NA
ATOM     23  C   UNL     1      -0.303   1.774  23.772  0.00  0.00    +0.218 A 
ATOM     26  C   UNL     1       1.401   0.608  23.379  0.00  0.00    +0.248 A 
BRANCH  26  27
ATOM     27  C   UNL     1       2.808   0.336  23.311  0.00  0.00    +0.039 A 
ATOM     28  C   UNL     1       3.294  -0.917  23.680  0.00  0.00    +0.015 A 
ATOM     29  C   UNL     1       3.689   1.326  22.875  0.00  0.00    +0.015 A 
ATOM     30  C   UNL     1       4.662  -1.182  23.614  0.00  0.00    +0.033 A 
ATOM     31  C   UNL     1       5.057   1.062  22.808  0.00  0.00    +0.033 A 
ATOM     32  C   UNL     1       5.543  -0.192  23.178  0.00  0.00    +0.126 A 
BRANCH  32   8
ATOM      3  O   UNL     1       7.702   0.074  23.944  0.00  0.00    -0.126 OA
ATOM      4  O   UNL     1       7.361  -1.230  22.212  0.00  0.00    -0.126 OA
ATOM      8  N   UNL     1       6.936  -0.462  23.108  0.00  0.00    +0.056 N 
ENDBRANCH  32   8
ENDBRANCH  26  27
ENDBRANCH  17  23
ENDBRANCH  12  17
TORSDOF 7
ENDMDL
MODEL 4
REMARK VINA RESULT:       2.5      2.231      5.096
REMARK  Name = 45783989
REMARK  10 active torsions:
REMARK  status: ('A' for Active; 'I' for Inactive)
REMARK    1  A    between atoms: N_5  and  C_14
REMARK    2  A    between atoms: N_8  and  C_32
REMARK    3  A    between atoms: C_9  and  C_13
REMARK    4  A    between atoms: C_10  and  C_14
REMARK    5  A    between atoms: C_12  and  C_17
REMARK    6  A    between atoms: C_13  and  C_18
REMARK    7  A    between atoms: C_13  and  C_19
REMARK    8  A    between atoms: C_16  and  C_20
REMARK    9  A    between atoms: C_17  and  C_23
REMARK   10  A    between atoms: C_26  and  C_27
REMARK                            x       y       z     vdW  Elec       q    Type
REMARK                         _______ _______ _______ _____ _____    ______ ____
ROOT
ATOM      9  C   UNL     1      -1.354   3.936  24.316  0.00  0.00    +0.000 C 
ATOM     10  C   UNL     1      -0.926   2.916  25.396  0.00  0.00    +0.029 C 
ATOM     11  C   UNL     1      -2.870   4.174  24.372  0.00  0.00    +0.012 C 
ATOM     12  C   UNL     1      -3.363   4.653  25.755  0.00  0.00    +0.024 C 
ATOM     15  C   UNL     1      -1.584   3.172  26.728  0.00  0.00    -0.023 C 
ATOM     16  C   UNL     1      -2.664   3.953  26.911  0.00  0.00    -0.073 C 
ATOM     20  C   UNL     1      -3.188   4.210  28.297  0.00  0.00    +0.039 C 
ENDROOT
BRANCH   9  13
ATOM     13  C   UNL     1      -0.580   5.254  24.453  0.00  0.00    -0.013 C 
ATOM     18  C   UNL     1       0.304   5.481  23.231  0.00  0.00    +0.007 C 
ATOM     19  C   UNL     1      -1.545   6.420  24.647  0.00  0.00    +0.007 C 
ENDBRANCH   9  13
BRANCH  10  14
ATOM     14  C   UNL     1      -1.215   1.476  24.960  0.00  0.00    +0.092 C 
BRANCH  14   5
ATOM      1  O   UNL     1       2.105  -0.266  23.074  0.00  0.00    -0.377 OA
ATOM      5  N   UNL     1      -0.270   1.048  23.931  0.00  0.00    -0.297 NA
ATOM     21  C   UNL     1       1.058   1.630  24.168  0.00  0.00    +0.112 C 
ATOM     22  C   UNL     1      -0.177  -0.418  23.884  0.00  0.00    +0.112 C 
ATOM     24  C   UNL     1       2.029   1.160  23.088  0.00  0.00    +0.175 C 
ATOM     25  C   UNL     1       0.824  -0.840  22.813  0.00  0.00    +0.175 C 
ENDBRANCH  14   5
ENDBRANCH  10  14
BRANCH  12  17
ATOM     17  C   UNL     1      -4.890   4.509  25.806  0.00  0.00    +0.105 C 
BRANCH  17  23
ATOM      2  O   UNL     1      -4.436   2.162  25.319  0.00  0.00    -0.420 OA
ATOM      6  N   UNL     1      -6.400   2.525  26.325  0.00  0.00    -0.112 NA
ATOM      7  N   UNL     1      -6.276   1.165  26.110  0.00  0.00    -0.107 NA
ATOM     23  C   UNL     1      -5.304   3.067  25.848  0.00  0.00    +0.218 A 
ATOM     26  C   UNL     1      -5.114   0.999  25.521  0.00  0.00    +0.248 A 
BRANCH  26  27
ATOM     27  C   UNL     1      -4.463  -0.195  25.066  0.00  0.00    +0.039 A 
ATOM     28  C   UNL     1      -4.736  -0.697  23.795  0.00  0.00    +0.015 A 
ATOM     29  C   UNL     1      -3.556  -0.854  25.896  0.00  0.00    +0.015 A 
ATOM     30  C   UNL     1      -4.103  -1.858  23.352  0.00  0.00    +0.033 A 
ATOM     31  C   UNL     1      -2.923  -2.015  25.455  0.00  0.00    +0.033 A 
ATOM     32  C   UNL     1      -3.196  -2.517  24.183  0.00  0.00    +0.126 A 
BRANCH  32   8
ATOM      3  O   UNL     1      -3.250  -4.675  23.368  0.00  0.00    -0.126 OA
ATOM      4  O   UNL     1      -1.296  -3.734  23.707  0.00  0.00    -0.126 OA
ATOM      8  N   UNL     1      -2.549  -3.699  23.731  0.00  0.00    +0.056 N 
ENDBRANCH  32   8
ENDBRANCH  26  27
ENDBRANCH  17  23
ENDBRANCH  12  17
TORSDOF 7
ENDMDL
MODEL 5
REMARK VINA RESULT:       2.8      1.627      4.797
REMARK  Name = 45783989
REMARK  10 active torsions:
REMARK  status: ('A' for Active; 'I' for Inactive)
REMARK    1  A    between atoms: N_5  and  C_14
REMARK    2  A    between atoms: N_8  and  C_32
REMARK    3  A    between atoms: C_9  and  C_13
REMARK    4  A    between atoms: C_10  and  C_14
REMARK    5  A    between atoms: C_12  and  C_17
REMARK    6  A    between atoms: C_13  and  C_18
REMARK    7  A    between atoms: C_13  and  C_19
REMARK    8  A    between atoms: C_16  and  C_20
REMARK    9  A    between atoms: C_17  and  C_23
REMARK   10  A    between atoms: C_26  and  C_27
REMARK                            x       y       z     vdW  Elec       q    Type
REMARK                         _______ _______ _______ _____ _____    ______ ____
ROOT
ATOM      9  C   UNL     1      -4.586   1.151  25.373  0.00  0.00    +0.000 C 
ATOM     10  C   UNL     1      -4.248   1.208  23.866  0.00  0.00    +0.029 C 
ATOM     11  C   UNL     1      -3.861   2.274  26.129  0.00  0.00    +0.012 C 
ATOM     12  C   UNL     1      -4.180   3.683  25.584  0.00  0.00    +0.024 C 
ATOM     15  C   UNL     1      -4.285   2.611  23.316  0.00  0.00    -0.023 C 
ATOM     16  C   UNL     1      -4.268   3.728  24.066  0.00  0.00    -0.073 C 
ATOM     20  C   UNL     1      -4.397   5.079  23.418  0.00  0.00    +0.039 C 
ENDROOT
BRANCH   9  13
ATOM     13  C   UNL     1      -6.102   1.211  25.609  0.00  0.00    -0.013 C 
ATOM     18  C   UNL     1      -6.427   2.198  26.727  0.00  0.00    +0.007 C 
ATOM     19  C   UNL     1      -6.826   1.593  24.322  0.00  0.00    +0.007 C 
ENDBRANCH   9  13
BRANCH  10  14
ATOM     14  C   UNL     1      -2.879   0.588  23.569  0.00  0.00    +0.092 C 
BRANCH  14   5
ATOM      1  O   UNL     1      -3.594  -3.297  24.989  0.00  0.00    -0.377 OA
ATOM      5  N   UNL     1      -2.944  -0.870  23.651  0.00  0.00    -0.297 NA
ATOM     21  C   UNL     1      -2.141  -1.366  24.777  0.00  0.00    +0.112 C 
ATOM     22  C   UNL     1      -4.335  -1.324  23.786  0.00  0.00    +0.112 C 
ATOM     24  C   UNL     1      -2.233  -2.888  24.848  0.00  0.00    +0.175 C 
ATOM     25  C   UNL     1      -4.377  -2.846  23.882  0.00  0.00    +0.175 C 
ENDBRANCH  14   5
ENDBRANCH  10  14
BRANCH  12  17
ATOM     17  C   UNL     1      -3.153   4.671  26.152  0.00  0.00    +0.105 C 
BRANCH  17  23
ATOM      2  O   UNL     1      -1.379   3.332  25.144  0.00  0.00    -0.420 OA
ATOM      6  N   UNL     1      -1.055   5.540  24.998  0.00  0.00    -0.112 NA
ATOM      7  N   UNL     1       0.016   4.911  24.393  0.00  0.00    -0.107 NA
ATOM     23  C   UNL     1      -1.844   4.581  25.422  0.00  0.00    +0.218 A 
ATOM     26  C   UNL     1      -0.215   3.623  24.501  0.00  0.00    +0.248 A 
BRANCH  26  27
ATOM     27  C   UNL     1       0.554   2.497  24.056  0.00  0.00    +0.039 A 
ATOM     28  C   UNL     1       0.016   1.214  24.125  0.00  0.00    +0.015 A 
ATOM     29  C   UNL     1       1.842   2.688  23.555  0.00  0.00    +0.015 A 
ATOM     30  C   UNL     1       0.764   0.119  23.692  0.00  0.00    +0.033 A 
ATOM     31  C   UNL     1       2.591   1.594  23.122  0.00  0.00    +0.033 A 
ATOM     32  C   UNL     1       2.052   0.310  23.191  0.00  0.00    +0.126 A 
BRANCH  32   8
ATOM      3  O   UNL     1       2.567  -1.301  21.622  0.00  0.00    -0.126 OA
ATOM      4  O   UNL     1       3.710  -1.263  23.496  0.00  0.00    -0.126 OA
ATOM      8  N   UNL     1       2.813  -0.805  22.748  0.00  0.00    +0.056 N 
ENDBRANCH  32   8
ENDBRANCH  26  27
ENDBRANCH  17  23
ENDBRANCH  12  17
TORSDOF 7
ENDMDL
MODEL 6
REMARK VINA RESULT:       4.1      1.486      2.420
REMARK  Name = 45783989
REMARK  10 active torsions:
REMARK  status: ('A' for Active; 'I' for Inactive)
REMARK    1  A    between atoms: N_5  and  C_14
REMARK    2  A    between atoms: N_8  and  C_32
REMARK    3  A    between atoms: C_9  and  C_13
REMARK    4  A    between atoms: C_10  and  C_14
REMARK    5  A    between atoms: C_12  and  C_17
REMARK    6  A    between atoms: C_13  and  C_18
REMARK    7  A    between atoms: C_13  and  C_19
REMARK    8  A    between atoms: C_16  and  C_20
REMARK    9  A    between atoms: C_17  and  C_23
REMARK   10  A    between atoms: C_26  and  C_27
REMARK                            x       y       z     vdW  Elec       q    Type
REMARK                         _______ _______ _______ _____ _____    ______ ____
ROOT
ATOM      9  C   UNL     1      -4.196   1.916  24.612  0.00  0.00    +0.000 C 
ATOM     10  C   UNL     1      -2.955   1.862  25.533  0.00  0.00    +0.029 C 
ATOM     11  C   UNL     1      -4.364   0.590  23.857  0.00  0.00    +0.012 C 
ATOM     12  C   UNL     1      -4.470  -0.636  24.791  0.00  0.00    +0.024 C 
ATOM     15  C   UNL     1      -2.853   0.564  26.292  0.00  0.00    -0.023 C 
ATOM     16  C   UNL     1      -3.529  -0.558  25.984  0.00  0.00    -0.073 C 
ATOM     20  C   UNL     1      -3.419  -1.775  26.861  0.00  0.00    +0.039 C 
ENDROOT
BRANCH   9  13
ATOM     13  C   UNL     1      -5.464   2.270  25.402  0.00  0.00    -0.013 C 
ATOM     18  C   UNL     1      -5.569   3.780  25.591  0.00  0.00    +0.007 C 
ATOM     19  C   UNL     1      -6.701   1.726  24.694  0.00  0.00    +0.007 C 
ENDBRANCH   9  13
BRANCH  10  14
ATOM     14  C   UNL     1      -1.659   2.091  24.749  0.00  0.00    +0.092 C 
BRANCH  14   5
ATOM      1  O   UNL     1      -0.460   6.113  24.815  0.00  0.00    -0.377 OA
ATOM      5  N   UNL     1      -1.511   3.501  24.395  0.00  0.00    -0.297 NA
ATOM     21  C   UNL     1      -2.008   4.365  25.475  0.00  0.00    +0.112 C 
ATOM     22  C   UNL     1      -0.108   3.821  24.100  0.00  0.00    +0.112 C 
ATOM     24  C   UNL     1      -1.833   5.831  25.086  0.00  0.00    +0.175 C 
ATOM     25  C   UNL     1       0.024   5.299  23.745  0.00  0.00    +0.175 C 
ENDBRANCH  14   5
ENDBRANCH  10  14
BRANCH  12  17
ATOM     17  C   UNL     1      -4.269  -1.906  23.955  0.00  0.00    +0.105 C 
BRANCH  17  23
ATOM      2  O   UNL     1      -1.913  -1.319  23.711  0.00  0.00    -0.420 OA
ATOM      6  N   UNL     1      -2.285  -3.501  24.036  0.00  0.00    -0.112 NA
ATOM      7  N   UNL     1      -0.920  -3.314  23.915  0.00  0.00    -0.107 NA
ATOM     23  C   UNL     1      -2.824  -2.311  23.911  0.00  0.00    +0.218 A 
ATOM     26  C   UNL     1      -0.749  -2.025  23.727  0.00  0.00    +0.248 A 
BRANCH  26  27
ATOM     27  C   UNL     1       0.450  -1.263  23.539  0.00  0.00    +0.039 A 
ATOM     28  C   UNL     1       1.691  -1.836  23.813  0.00  0.00    +0.015 A 
ATOM     29  C   UNL     1       0.375   0.054  23.082  0.00  0.00    +0.015 A 
ATOM     30  C   UNL     1       2.858  -1.095  23.630  0.00  0.00    +0.033 A 
ATOM     31  C   UNL     1       1.542   0.796  22.899  0.00  0.00    +0.033 A 
ATOM     32  C   UNL     1       2.783   0.221  23.173  0.00  0.00    +0.126 A 
BRANCH  32   8
ATOM      3  O   UNL     1       5.049   0.542  23.460  0.00  0.00    -0.126 OA
ATOM      4  O   UNL     1       3.912   2.055  22.348  0.00  0.00    -0.126 OA
ATOM      8  N   UNL     1       3.972   0.976  22.985  0.00  0.00    +0.056 N 
ENDBRANCH  32   8
ENDBRANCH  26  27
ENDBRANCH  17  23
ENDBRANCH  12  17
TORSDOF 7
ENDMDL
MODEL 7
REMARK VINA RESULT:       4.2      3.073      5.789
REMARK  Name = 45783989
REMARK  10 active torsions:
REMARK  status: ('A' for Active; 'I' for Inactive)
REMARK    1  A    between atoms: N_5  and  C_14
REMARK    2  A    between atoms: N_8  and  C_32
REMARK    3  A    between atoms: C_9  and  C_13
REMARK    4  A    between atoms: C_10  and  C_14
REMARK    5  A    between atoms: C_12  and  C_17
REMARK    6  A    between atoms: C_13  and  C_18
REMARK    7  A    between atoms: C_13  and  C_19
REMARK    8  A    between atoms: C_16  and  C_20
REMARK    9  A    between atoms: C_17  and  C_23
REMARK   10  A    between atoms: C_26  and  C_27
REMARK                            x       y       z     vdW  Elec       q    Type
REMARK                         _______ _______ _______ _____ _____    ______ ____
ROOT
ATOM      9  C   UNL     1      -4.557   2.466  25.460  0.00  0.00    +0.000 C 
ATOM     10  C   UNL     1      -4.250   1.059  24.897  0.00  0.00    +0.029 C 
ATOM     11  C   UNL     1      -3.392   3.425  25.177  0.00  0.00    +0.012 C 
ATOM     12  C   UNL     1      -3.042   3.537  23.677  0.00  0.00    +0.024 C 
ATOM     15  C   UNL     1      -3.652   1.107  23.513  0.00  0.00    -0.023 C 
ATOM     16  C   UNL     1      -3.120   2.204  22.947  0.00  0.00    -0.073 C 
ATOM     20  C   UNL     1      -2.629   2.163  21.526  0.00  0.00    +0.039 C 
ENDROOT
BRANCH   9  13
ATOM     13  C   UNL     1      -5.877   3.016  24.901  0.00  0.00    -0.013 C 
ATOM     18  C   UNL     1      -6.982   1.971  25.021  0.00  0.00    +0.007 C 
ATOM     19  C   UNL     1      -6.266   4.301  25.625  0.00  0.00    +0.007 C 
ENDBRANCH   9  13
BRANCH  10  14
ATOM     14  C   UNL     1      -3.316   0.271  25.821  0.00  0.00    +0.092 C 
BRANCH  14   5
ATOM      1  O   UNL     1      -0.684  -2.833  24.796  0.00  0.00    -0.377 OA
ATOM      5  N   UNL     1      -2.449  -0.614  25.047  0.00  0.00    -0.297 NA
ATOM     21  C   UNL     1      -1.067  -0.557  25.542  0.00  0.00    +0.112 C 
ATOM     22  C   UNL     1      -2.943  -1.998  25.091  0.00  0.00    +0.112 C 
ATOM     24  C   UNL     1      -0.185  -1.497  24.725  0.00  0.00    +0.175 C 
ATOM     25  C   UNL     1      -2.016  -2.905  24.286  0.00  0.00    +0.175 C 
ENDBRANCH  14   5
ENDBRANCH  10  14
BRANCH  12  17
ATOM     17  C   UNL     1      -1.671   4.212  23.544  0.00  0.00    +0.105 C 
BRANCH  17  23
ATOM      2  O   UNL     1      -0.624   3.507  25.633  0.00  0.00    -0.420 OA
ATOM      6  N   UNL     1       0.362   2.697  23.795  0.00  0.00    -0.112 NA
ATOM      7  N   UNL     1       1.052   2.222  24.895  0.00  0.00    -0.107 NA
ATOM     23  C   UNL     1      -0.608   3.442  24.273  0.00  0.00    +0.218 A 
ATOM     26  C   UNL     1       0.442   2.720  25.945  0.00  0.00    +0.248 A 
BRANCH  26  27
ATOM     27  C   UNL     1       0.719   2.566  27.344  0.00  0.00    +0.039 A 
ATOM     28  C   UNL     1      -0.324   2.348  28.242  0.00  0.00    +0.015 A 
ATOM     29  C   UNL     1       2.034   2.634  27.805  0.00  0.00    +0.015 A 
ATOM     30  C   UNL     1      -0.054   2.198  29.602  0.00  0.00    +0.033 A 
ATOM     31  C   UNL     1       2.305   2.485  29.165  0.00  0.00    +0.033 A 
ATOM     32  C   UNL     1       1.261   2.267  30.063  0.00  0.00    +0.126 A 
BRANCH  32   8
ATOM      3  O   UNL     1       0.730   2.586  32.285  0.00  0.00    -0.126 OA
ATOM      4  O   UNL     1       2.577   1.504  31.796  0.00  0.00    -0.126 OA
ATOM      8  N   UNL     1       1.536   2.112  31.448  0.00  0.00    +0.056 N 
ENDBRANCH  32   8
ENDBRANCH  26  27
ENDBRANCH  17  23
ENDBRANCH  12  17
TORSDOF 7
ENDMDL
