MODEL 1
REMARK VINA RESULT:      11.2      0.000      0.000
REMARK  Name = 45360397
REMARK  11 active torsions:
REMARK  status: ('A' for Active; 'I' for Inactive)
REMARK    1  A    between atoms: O_4  and  C_15
REMARK    2  A    between atoms: O_7  and  C_30
REMARK    3  A    between atoms: O_7  and  C_34
REMARK    4  A    between atoms: O_8  and  C_33
REMARK    5  A    between atoms: O_8  and  C_40
REMARK    6  A    between atoms: N_11  and  C_14
REMARK    7  A    between atoms: N_12  and  C_23
REMARK    8  A    between atoms: C_21  and  C_22
REMARK    9  A    between atoms: C_34  and  C_35
REMARK   10  A    between atoms: C_36  and  C_38
REMARK   11  A    between atoms: C_37  and  C_39
REMARK                            x       y       z     vdW  Elec       q    Type
REMARK                         _______ _______ _______ _____ _____    ______ ____
ROOT
ATOM      5  O   UNL     1      -3.641   4.835  26.737  0.00  0.00    -0.252 OA
ATOM     10  N   UNL     1      -4.615   3.940  24.842  0.00  0.00    -0.284 N 
ATOM     12  N   UNL     1      -2.278   3.806  25.162  0.00  0.00    -0.269 N 
ATOM     14  C   UNL     1      -4.681   1.649  23.799  0.00  0.00    +0.119 C 
ATOM     15  C   UNL     1      -5.617   1.165  24.922  0.00  0.00    +0.136 C 
ATOM     16  C   UNL     1      -6.905   1.972  25.108  0.00  0.00    +0.035 C 
ATOM     17  C   UNL     1      -4.585   3.166  23.594  0.00  0.00    +0.134 C 
ATOM     18  C   UNL     1      -6.716   3.225  25.967  0.00  0.00    +0.022 C 
ATOM     19  C   UNL     1      -5.950   4.350  25.281  0.00  0.00    +0.109 C 
ATOM     20  C   UNL     1      -3.504   4.240  25.666  0.00  0.00    +0.307 C 
ATOM     43  H   UNL     1      -2.188   3.697  24.158  0.00  0.00    +0.156 HD
ENDROOT
BRANCH  12  23
ATOM     23  C   UNL     1      -1.128   3.409  25.892  0.00  0.00    +0.035 A 
ATOM     26  C   UNL     1       0.140   3.800  25.461  0.00  0.00    +0.027 A 
ATOM     27  C   UNL     1      -1.265   2.628  27.040  0.00  0.00    +0.027 A 
ATOM     31  C   UNL     1       1.271   3.409  26.178  0.00  0.00    +0.048 A 
ATOM     32  C   UNL     1      -0.134   2.237  27.756  0.00  0.00    +0.048 A 
ATOM     33  C   UNL     1       1.134   2.628  27.325  0.00  0.00    +0.130 A 
BRANCH  33   8
ATOM      8  O   UNL     1       2.238   2.248  28.025  0.00  0.00    -0.406 OA
BRANCH   8  40
ATOM      1  F   UNL     1       3.177   3.517  29.639  0.00  0.00    -0.133 F 
ATOM      2  F   UNL     1       1.079   2.951  29.869  0.00  0.00    -0.133 F 
ATOM      3  F   UNL     1       2.677   1.446  30.122  0.00  0.00    -0.133 F 
ATOM     40  C   UNL     1       2.281   2.528  29.420  0.00  0.00    +0.575 C 
ENDBRANCH   8  40
ENDBRANCH  33   8
ENDBRANCH  12  23
BRANCH  14  11
ATOM      6  O   UNL     1      -3.967  -1.124  23.599  0.00  0.00    -0.270 OA
ATOM     11  N   UNL     1      -3.364   1.077  24.003  0.00  0.00    -0.305 N 
ATOM     21  C   UNL     1      -3.122  -0.279  23.883  0.00  0.00    +0.244 C 
ATOM     41  H   UNL     1      -2.610   1.726  24.198  0.00  0.00    +0.149 HD
BRANCH  21  22
ATOM     22  C   UNL     1      -1.726  -0.708  24.151  0.00  0.00    +0.037 A 
ATOM     24  C   UNL     1      -1.464  -2.018  24.554  0.00  0.00    +0.016 A 
ATOM     25  C   UNL     1      -0.677   0.199  24.001  0.00  0.00    +0.016 A 
ATOM     28  C   UNL     1      -0.153  -2.420  24.808  0.00  0.00    +0.046 A 
ATOM     29  C   UNL     1       0.634  -0.204  24.254  0.00  0.00    +0.046 A 
ATOM     30  C   UNL     1       0.896  -1.513  24.658  0.00  0.00    +0.121 A 
BRANCH  30   7
ATOM      7  O   UNL     1       2.176  -1.907  24.905  0.00  0.00    -0.487 OA
BRANCH   7  34
ATOM     34  C   UNL     1       3.011  -2.147  23.772  0.00  0.00    +0.269 C 
BRANCH  34  35
ATOM      9  O   UNL     1       4.817   0.974  22.991  0.00  0.00    -0.359 OA
ATOM     13  N   UNL     1       3.765   1.096  22.093  0.00  0.00    -0.083 NA
ATOM     35  C   UNL     1       3.550  -0.838  23.275  0.00  0.00    +0.054 A 
ATOM     36  C   UNL     1       4.679  -0.182  23.690  0.00  0.00    +0.141 A 
ATOM     37  C   UNL     1       3.022   0.002  22.280  0.00  0.00    +0.087 A 
ATOM     38  C   UNL     1       5.715  -0.467  24.692  0.00  0.00    +0.089 C 
ATOM     39  C   UNL     1       1.803  -0.197  21.477  0.00  0.00    +0.069 C 
ENDBRANCH  34  35
ENDBRANCH   7  34
ENDBRANCH  30   7
ENDBRANCH  21  22
ENDBRANCH  14  11
BRANCH  15   4
ATOM      4  O   UNL     1      -6.005  -0.181  24.616  0.00  0.00    -0.390 OA
ATOM     42  H   UNL     1      -6.902  -0.151  24.241  0.00  0.00    +0.210 HD
ENDBRANCH  15   4
TORSDOF 9
ENDMDL
MODEL 2
REMARK VINA RESULT:      11.9      3.183      5.011
REMARK  Name = 45360397
REMARK  11 active torsions:
REMARK  status: ('A' for Active; 'I' for Inactive)
REMARK    1  A    between atoms: O_4  and  C_15
REMARK    2  A    between atoms: O_7  and  C_30
REMARK    3  A    between atoms: O_7  and  C_34
REMARK    4  A    between atoms: O_8  and  C_33
REMARK    5  A    between atoms: O_8  and  C_40
REMARK    6  A    between atoms: N_11  and  C_14
REMARK    7  A    between atoms: N_12  and  C_23
REMARK    8  A    between atoms: C_21  and  C_22
REMARK    9  A    between atoms: C_34  and  C_35
REMARK   10  A    between atoms: C_36  and  C_38
REMARK   11  A    between atoms: C_37  and  C_39
REMARK                            x       y       z     vdW  Elec       q    Type
REMARK                         _______ _______ _______ _____ _____    ______ ____
ROOT
ATOM      5  O   UNL     1      -6.677   1.664  25.769  0.00  0.00    -0.252 OA
ATOM     10  N   UNL     1      -5.415   3.537  26.258  0.00  0.00    -0.284 N 
ATOM     12  N   UNL     1      -4.398   1.407  26.142  0.00  0.00    -0.269 N 
ATOM     14  C   UNL     1      -3.403   4.638  25.216  0.00  0.00    +0.119 C 
ATOM     15  C   UNL     1      -4.275   5.114  24.039  0.00  0.00    +0.136 C 
ATOM     16  C   UNL     1      -5.507   5.943  24.416  0.00  0.00    +0.035 C 
ATOM     17  C   UNL     1      -4.146   4.236  26.497  0.00  0.00    +0.134 C 
ATOM     18  C   UNL     1      -6.714   5.087  24.809  0.00  0.00    +0.022 C 
ATOM     19  C   UNL     1      -6.590   4.407  26.166  0.00  0.00    +0.109 C 
ATOM     20  C   UNL     1      -5.575   2.148  26.036  0.00  0.00    +0.307 C 
ATOM     43  H   UNL     1      -3.656   1.776  26.726  0.00  0.00    +0.156 HD
ENDROOT
BRANCH  12  23
ATOM     23  C   UNL     1      -4.059   0.210  25.462  0.00  0.00    +0.035 A 
ATOM     26  C   UNL     1      -4.078   0.171  24.067  0.00  0.00    +0.027 A 
ATOM     27  C   UNL     1      -3.706  -0.928  26.187  0.00  0.00    +0.027 A 
ATOM     31  C   UNL     1      -3.743  -1.006  23.399  0.00  0.00    +0.048 A 
ATOM     32  C   UNL     1      -3.372  -2.106  25.517  0.00  0.00    +0.048 A 
ATOM     33  C   UNL     1      -3.391  -2.145  24.123  0.00  0.00    +0.130 A 
BRANCH  33   8
ATOM      8  O   UNL     1      -3.065  -3.293  23.469  0.00  0.00    -0.406 OA
BRANCH   8  40
ATOM      1  F   UNL     1      -1.002  -2.693  22.777  0.00  0.00    -0.133 F 
ATOM      2  F   UNL     1      -1.173  -3.809  24.649  0.00  0.00    -0.133 F 
ATOM      3  F   UNL     1      -1.531  -4.812  22.713  0.00  0.00    -0.133 F 
ATOM     40  C   UNL     1      -1.693  -3.668  23.410  0.00  0.00    +0.575 C 
ENDBRANCH   8  40
ENDBRANCH  33   8
ENDBRANCH  12  23
BRANCH  14  11
ATOM      6  O   UNL     1      -1.276   3.403  26.695  0.00  0.00    -0.270 OA
ATOM     11  N   UNL     1      -2.546   3.561  24.763  0.00  0.00    -0.305 N 
ATOM     21  C   UNL     1      -1.544   3.033  25.555  0.00  0.00    +0.244 C 
ATOM     41  H   UNL     1      -2.742   3.177  23.845  0.00  0.00    +0.149 HD
BRANCH  21  22
ATOM     22  C   UNL     1      -0.737   1.951  24.934  0.00  0.00    +0.037 A 
ATOM     24  C   UNL     1       0.128   2.245  23.879  0.00  0.00    +0.016 A 
ATOM     25  C   UNL     1      -0.845   0.643  25.404  0.00  0.00    +0.016 A 
ATOM     28  C   UNL     1       0.884   1.230  23.294  0.00  0.00    +0.046 A 
ATOM     29  C   UNL     1      -0.089  -0.373  24.819  0.00  0.00    +0.046 A 
ATOM     30  C   UNL     1       0.776  -0.079  23.765  0.00  0.00    +0.121 A 
BRANCH  30   7
ATOM      7  O   UNL     1       1.515  -1.071  23.194  0.00  0.00    -0.487 OA
BRANCH   7  34
ATOM     34  C   UNL     1       2.489  -0.678  22.227  0.00  0.00    +0.269 C 
BRANCH  34  35
ATOM      9  O   UNL     1       5.457   0.939  23.705  0.00  0.00    -0.359 OA
ATOM     13  N   UNL     1       5.621  -0.340  24.220  0.00  0.00    -0.083 NA
ATOM     35  C   UNL     1       3.743  -0.261  22.936  0.00  0.00    +0.054 A 
ATOM     36  C   UNL     1       4.334   0.975  22.942  0.00  0.00    +0.141 A 
ATOM     37  C   UNL     1       4.586  -1.039  23.748  0.00  0.00    +0.087 A 
ATOM     38  C   UNL     1       4.011   2.263  22.316  0.00  0.00    +0.089 C 
ATOM     39  C   UNL     1       4.444  -2.462  24.103  0.00  0.00    +0.069 C 
ENDBRANCH  34  35
ENDBRANCH   7  34
ENDBRANCH  30   7
ENDBRANCH  21  22
ENDBRANCH  14  11
BRANCH  15   4
ATOM      4  O   UNL     1      -3.457   5.938  23.197  0.00  0.00    -0.390 OA
ATOM     42  H   UNL     1      -4.044   6.384  22.562  0.00  0.00    +0.210 HD
ENDBRANCH  15   4
TORSDOF 9
ENDMDL
MODEL 3
REMARK VINA RESULT:      15.2      3.237      8.344
REMARK  Name = 45360397
REMARK  11 active torsions:
REMARK  status: ('A' for Active; 'I' for Inactive)
REMARK    1  A    between atoms: O_4  and  C_15
REMARK    2  A    between atoms: O_7  and  C_30
REMARK    3  A    between atoms: O_7  and  C_34
REMARK    4  A    between atoms: O_8  and  C_33
REMARK    5  A    between atoms: O_8  and  C_40
REMARK    6  A    between atoms: N_11  and  C_14
REMARK    7  A    between atoms: N_12  and  C_23
REMARK    8  A    between atoms: C_21  and  C_22
REMARK    9  A    between atoms: C_34  and  C_35
REMARK   10  A    between atoms: C_36  and  C_38
REMARK   11  A    between atoms: C_37  and  C_39
REMARK                            x       y       z     vdW  Elec       q    Type
REMARK                         _______ _______ _______ _____ _____    ______ ____
ROOT
ATOM      5  O   UNL     1       2.405  -2.554  25.363  0.00  0.00    -0.252 OA
ATOM     10  N   UNL     1       3.364  -1.781  23.408  0.00  0.00    -0.284 N 
ATOM     12  N   UNL     1       1.014  -1.886  23.627  0.00  0.00    -0.269 N 
ATOM     14  C   UNL     1       3.222   0.363  22.093  0.00  0.00    +0.119 C 
ATOM     15  C   UNL     1       4.042   1.082  23.180  0.00  0.00    +0.136 C 
ATOM     16  C   UNL     1       5.403   0.460  23.509  0.00  0.00    +0.035 C 
ATOM     17  C   UNL     1       3.308  -1.168  22.074  0.00  0.00    +0.134 C 
ATOM     18  C   UNL     1       5.314  -0.696  24.508  0.00  0.00    +0.022 C 
ATOM     19  C   UNL     1       4.714  -1.976  23.940  0.00  0.00    +0.109 C 
ATOM     20  C   UNL     1       2.255  -2.110  24.222  0.00  0.00    +0.307 C 
ATOM     43  H   UNL     1       0.962  -1.907  22.615  0.00  0.00    +0.156 HD
ENDROOT
BRANCH  12  23
ATOM     23  C   UNL     1      -0.208  -1.544  24.262  0.00  0.00    +0.035 A 
ATOM     26  C   UNL     1      -1.400  -2.134  23.841  0.00  0.00    +0.027 A 
ATOM     27  C   UNL     1      -0.216  -0.618  25.305  0.00  0.00    +0.027 A 
ATOM     31  C   UNL     1      -2.601  -1.797  24.466  0.00  0.00    +0.048 A 
ATOM     32  C   UNL     1      -1.418  -0.281  25.928  0.00  0.00    +0.048 A 
ATOM     33  C   UNL     1      -2.611  -0.871  25.508  0.00  0.00    +0.130 A 
BRANCH  33   8
ATOM      8  O   UNL     1      -3.784  -0.544  26.118  0.00  0.00    -0.406 OA
BRANCH   8  40
ATOM      1  F   UNL     1      -4.389   0.925  24.514  0.00  0.00    -0.133 F 
ATOM      2  F   UNL     1      -5.334  -1.045  24.511  0.00  0.00    -0.133 F 
ATOM      3  F   UNL     1      -5.848   0.439  26.066  0.00  0.00    -0.133 F 
ATOM     40  C   UNL     1      -4.853  -0.067  25.308  0.00  0.00    +0.575 C 
ENDBRANCH   8  40
ENDBRANCH  33   8
ENDBRANCH  12  23
BRANCH  14  11
ATOM      6  O   UNL     1       1.958   1.618  24.343  0.00  0.00    -0.270 OA
ATOM     11  N   UNL     1       1.841   0.796  22.180  0.00  0.00    -0.305 N 
ATOM     21  C   UNL     1       1.325   1.394  23.315  0.00  0.00    +0.244 C 
ATOM     41  H   UNL     1       1.273   0.680  21.348  0.00  0.00    +0.149 HD
BRANCH  21  22
ATOM     22  C   UNL     1      -0.114   1.754  23.253  0.00  0.00    +0.037 A 
ATOM     24  C   UNL     1      -0.628   2.722  24.118  0.00  0.00    +0.016 A 
ATOM     25  C   UNL     1      -0.952   1.124  22.334  0.00  0.00    +0.016 A 
ATOM     28  C   UNL     1      -1.980   3.058  24.062  0.00  0.00    +0.046 A 
ATOM     29  C   UNL     1      -2.304   1.462  22.277  0.00  0.00    +0.046 A 
ATOM     30  C   UNL     1      -2.818   2.428  23.141  0.00  0.00    +0.121 A 
BRANCH  30   7
ATOM      7  O   UNL     1      -4.139   2.758  23.087  0.00  0.00    -0.487 OA
BRANCH   7  34
ATOM     34  C   UNL     1      -4.505   4.050  23.571  0.00  0.00    +0.269 C 
BRANCH  34  35
ATOM      9  O   UNL     1      -4.633   3.793  27.249  0.00  0.00    -0.359 OA
ATOM     13  N   UNL     1      -3.451   4.510  27.117  0.00  0.00    -0.083 NA
ATOM     35  C   UNL     1      -4.327   4.083  25.060  0.00  0.00    +0.054 A 
ATOM     36  C   UNL     1      -5.146   3.544  26.016  0.00  0.00    +0.141 A 
ATOM     37  C   UNL     1      -3.288   4.671  25.802  0.00  0.00    +0.087 A 
ATOM     38  C   UNL     1      -6.406   2.790  25.974  0.00  0.00    +0.089 C 
ATOM     39  C   UNL     1      -2.113   5.403  25.296  0.00  0.00    +0.069 C 
ENDBRANCH  34  35
ENDBRANCH   7  34
ENDBRANCH  30   7
ENDBRANCH  21  22
ENDBRANCH  14  11
BRANCH  15   4
ATOM      4  O   UNL     1       4.291   2.419  22.726  0.00  0.00    -0.390 OA
ATOM     42  H   UNL     1       5.114   2.725  23.144  0.00  0.00    +0.210 HD
ENDBRANCH  15   4
TORSDOF 9
ENDMDL
