MODEL 1
REMARK VINA RESULT:       1.7      0.000      0.000
REMARK  Name = 45783329
REMARK  5 active torsions:
REMARK  status: ('A' for Active; 'I' for Inactive)
REMARK    1  A    between atoms: N_4  and  C_17
REMARK    2  A    between atoms: C_10  and  C_20
REMARK    3  A    between atoms: C_14  and  C_22
REMARK    4  A    between atoms: C_17  and  C_23
REMARK    5  A    between atoms: C_24  and  C_26
REMARK                            x       y       z     vdW  Elec       q    Type
REMARK                         _______ _______ _______ _____ _____    ______ ____
ROOT
ATOM      5  N   UNL     1      16.407  -4.465  23.825  0.00  0.00    -0.315 N 
ATOM      8  N   UNL     1      17.140  -6.516  22.895  0.00  0.00    -0.240 NA
ATOM     14  C   UNL     1      15.816  -1.646  23.464  0.00  0.00    +0.078 C 
ATOM     15  C   UNL     1      15.130  -2.729  22.635  0.00  0.00    +0.031 C 
ATOM     16  C   UNL     1      16.318  -2.201  24.795  0.00  0.00    +0.031 C 
ATOM     18  C   UNL     1      15.971  -3.998  22.503  0.00  0.00    +0.107 C 
ATOM     19  C   UNL     1      17.127  -3.492  24.651  0.00  0.00    +0.107 C 
ATOM     21  C   UNL     1      16.685  -5.830  23.969  0.00  0.00    +0.122 A 
ATOM     25  C   UNL     1      16.471  -6.393  25.215  0.00  0.00    +0.055 A 
ATOM     26  C   UNL     1      16.741  -7.748  25.373  0.00  0.00    +0.027 A 
ATOM     28  C   UNL     1      17.209  -8.488  24.292  0.00  0.00    +0.031 A 
ATOM     29  C   UNL     1      17.391  -7.830  23.086  0.00  0.00    +0.113 A 
ENDROOT
BRANCH  26  24
ATOM      2  O   UNL     1      16.521  -9.822  28.223  0.00  0.00    -0.336 OA
ATOM      6  N   UNL     1      15.945  -7.725  27.685  0.00  0.00    -0.190 NA
ATOM      7  N   UNL     1      16.910  -9.641  26.890  0.00  0.00    -0.056 NA
ATOM     20  C   UNL     1      15.962  -8.647  28.615  0.00  0.00    +0.245 A 
ATOM     24  C   UNL     1      16.537  -8.381  26.646  0.00  0.00    +0.202 A 
BRANCH  20  10
ATOM      4  N   UNL     1      13.999  -8.341  30.112  0.00  0.00    -0.287 NA
ATOM     10  C   UNL     1      15.453  -8.584  30.040  0.00  0.00    +0.146 C 
ATOM     11  C   UNL     1      15.669  -9.901  30.807  0.00  0.00    +0.030 C 
ATOM     12  C   UNL     1      14.291 -10.290  31.325  0.00  0.00    +0.017 C 
ATOM     13  C   UNL     1      13.534  -8.978  31.345  0.00  0.00    +0.085 C 
BRANCH   4  17
ATOM     17  C   UNL     1      13.648  -6.927  30.058  0.00  0.00    +0.127 C 
BRANCH  17  23
ATOM      1  S   UNL     1      16.099  -5.661  30.405  0.00  0.00    -0.100 S 
ATOM     23  C   UNL     1      14.534  -6.095  30.946  0.00  0.00    +0.004 A 
ATOM     27  C   UNL     1      14.264  -5.600  32.204  0.00  0.00    +0.012 A 
ATOM     30  C   UNL     1      15.358  -4.854  32.730  0.00  0.00    +0.008 A 
ATOM     31  C   UNL     1      16.422  -4.807  31.855  0.00  0.00    +0.045 A 
ENDBRANCH  17  23
ENDBRANCH   4  17
ENDBRANCH  20  10
ENDBRANCH  26  24
BRANCH  14  22
ATOM      3  O   UNL     1      17.362  -1.501  21.645  0.00  0.00    -0.276 OA
ATOM      9  N   UNL     1      17.402   0.155  23.243  0.00  0.00    -0.329 N 
ATOM     22  C   UNL     1      16.925  -1.006  22.682  0.00  0.00    +0.214 C 
ATOM     32  H   UNL     1      18.151   0.674  22.799  0.00  0.00    +0.145 HD
ATOM     33  H   UNL     1      17.070   0.516  24.132  0.00  0.00    +0.145 HD
ENDBRANCH  14  22
TORSDOF 5
ENDMDL
MODEL 2
REMARK VINA RESULT:       4.8     18.100     19.893
REMARK  Name = 45783329
REMARK  5 active torsions:
REMARK  status: ('A' for Active; 'I' for Inactive)
REMARK    1  A    between atoms: N_4  and  C_17
REMARK    2  A    between atoms: C_10  and  C_20
REMARK    3  A    between atoms: C_14  and  C_22
REMARK    4  A    between atoms: C_17  and  C_23
REMARK    5  A    between atoms: C_24  and  C_26
REMARK                            x       y       z     vdW  Elec       q    Type
REMARK                         _______ _______ _______ _____ _____    ______ ____
ROOT
ATOM      5  N   UNL     1       0.877  -0.350  23.340  0.00  0.00    -0.315 N 
ATOM      8  N   UNL     1      -0.381  -2.297  23.822  0.00  0.00    -0.240 NA
ATOM     14  C   UNL     1       3.382   0.837  22.479  0.00  0.00    +0.078 C 
ATOM     15  C   UNL     1       2.621  -0.164  21.613  0.00  0.00    +0.031 C 
ATOM     16  C   UNL     1       2.450   1.544  23.459  0.00  0.00    +0.031 C 
ATOM     18  C   UNL     1       1.744  -1.111  22.431  0.00  0.00    +0.107 C 
ATOM     19  C   UNL     1       1.551   0.586  24.244  0.00  0.00    +0.107 C 
ATOM     21  C   UNL     1      -0.324  -0.949  23.739  0.00  0.00    +0.122 A 
ATOM     25  C   UNL     1      -1.388  -0.109  24.022  0.00  0.00    +0.055 A 
ATOM     26  C   UNL     1      -2.588  -0.689  24.417  0.00  0.00    +0.027 A 
ATOM     28  C   UNL     1      -2.687  -2.072  24.514  0.00  0.00    +0.031 A 
ATOM     29  C   UNL     1      -1.564  -2.825  24.209  0.00  0.00    +0.113 A 
ENDROOT
BRANCH  26  24
ATOM      2  O   UNL     1      -5.719   0.882  24.867  0.00  0.00    -0.336 OA
ATOM      6  N   UNL     1      -3.587   1.317  25.398  0.00  0.00    -0.190 NA
ATOM      7  N   UNL     1      -4.968  -0.191  24.373  0.00  0.00    -0.056 NA
ATOM     20  C   UNL     1      -4.830   1.724  25.457  0.00  0.00    +0.245 A 
ATOM     24  C   UNL     1      -3.722   0.138  24.724  0.00  0.00    +0.202 A 
BRANCH  20  10
ATOM      4  N   UNL     1      -4.622   4.187  25.736  0.00  0.00    -0.287 NA
ATOM     10  C   UNL     1      -5.401   2.981  26.079  0.00  0.00    +0.146 C 
ATOM     11  C   UNL     1      -6.830   3.288  25.594  0.00  0.00    +0.030 C 
ATOM     12  C   UNL     1      -6.770   4.709  25.051  0.00  0.00    +0.017 C 
ATOM     13  C   UNL     1      -5.565   5.306  25.749  0.00  0.00    +0.085 C 
BRANCH   4  17
ATOM     17  C   UNL     1      -3.490   4.412  26.627  0.00  0.00    +0.127 C 
BRANCH  17  23
ATOM      1  S   UNL     1      -1.160   3.000  26.073  0.00  0.00    -0.100 S 
ATOM     23  C   UNL     1      -2.178   4.364  25.891  0.00  0.00    +0.004 A 
ATOM     27  C   UNL     1      -1.637   5.305  25.042  0.00  0.00    +0.012 A 
ATOM     30  C   UNL     1      -0.369   4.900  24.535  0.00  0.00    +0.008 A 
ATOM     31  C   UNL     1       0.011   3.665  25.015  0.00  0.00    +0.045 A 
ENDBRANCH  17  23
ENDBRANCH   4  17
ENDBRANCH  20  10
ENDBRANCH  26  24
BRANCH  14  22
ATOM      3  O   UNL     1       5.562   0.752  23.460  0.00  0.00    -0.276 OA
ATOM      9  N   UNL     1       4.282  -1.160  23.485  0.00  0.00    -0.329 N 
ATOM     22  C   UNL     1       4.519   0.162  23.191  0.00  0.00    +0.214 C 
ATOM     32  H   UNL     1       4.981  -1.715  23.966  0.00  0.00    +0.145 HD
ATOM     33  H   UNL     1       3.439  -1.647  23.199  0.00  0.00    +0.145 HD
ENDBRANCH  14  22
TORSDOF 5
ENDMDL
MODEL 3
REMARK VINA RESULT:       5.5      1.460      1.800
REMARK  Name = 45783329
REMARK  5 active torsions:
REMARK  status: ('A' for Active; 'I' for Inactive)
REMARK    1  A    between atoms: N_4  and  C_17
REMARK    2  A    between atoms: C_10  and  C_20
REMARK    3  A    between atoms: C_14  and  C_22
REMARK    4  A    between atoms: C_17  and  C_23
REMARK    5  A    between atoms: C_24  and  C_26
REMARK                            x       y       z     vdW  Elec       q    Type
REMARK                         _______ _______ _______ _____ _____    ______ ____
ROOT
ATOM      5  N   UNL     1      16.209  -3.701  24.289  0.00  0.00    -0.315 N 
ATOM      8  N   UNL     1      16.653  -5.759  23.207  0.00  0.00    -0.240 NA
ATOM     14  C   UNL     1      15.624  -0.865  24.087  0.00  0.00    +0.078 C 
ATOM     15  C   UNL     1      14.737  -1.923  23.434  0.00  0.00    +0.031 C 
ATOM     16  C   UNL     1      16.405  -1.445  25.263  0.00  0.00    +0.031 C 
ATOM     18  C   UNL     1      15.492  -3.210  23.106  0.00  0.00    +0.107 C 
ATOM     19  C   UNL     1      17.125  -2.754  24.930  0.00  0.00    +0.107 C 
ATOM     21  C   UNL     1      16.477  -5.074  24.359  0.00  0.00    +0.122 A 
ATOM     25  C   UNL     1      16.542  -5.644  25.619  0.00  0.00    +0.055 A 
ATOM     26  C   UNL     1      16.805  -7.007  25.704  0.00  0.00    +0.027 A 
ATOM     28  C   UNL     1      16.992  -7.747  24.542  0.00  0.00    +0.031 A 
ATOM     29  C   UNL     1      16.907  -7.082  23.329  0.00  0.00    +0.113 A 
ENDROOT
BRANCH  26  24
ATOM      2  O   UNL     1      17.273  -9.074  28.529  0.00  0.00    -0.336 OA
ATOM      6  N   UNL     1      16.428  -7.041  28.120  0.00  0.00    -0.190 NA
ATOM      7  N   UNL     1      17.405  -8.868  27.150  0.00  0.00    -0.056 NA
ATOM     20  C   UNL     1      16.690  -7.951  29.024  0.00  0.00    +0.245 A 
ATOM     24  C   UNL     1      16.885  -7.648  26.987  0.00  0.00    +0.202 A 
BRANCH  20  10
ATOM      4  N   UNL     1      15.016  -7.685  30.845  0.00  0.00    -0.287 NA
ATOM     10  C   UNL     1      16.435  -7.925  30.516  0.00  0.00    +0.146 C 
ATOM     11  C   UNL     1      16.775  -9.261  31.202  0.00  0.00    +0.030 C 
ATOM     12  C   UNL     1      15.506  -9.664  31.939  0.00  0.00    +0.017 C 
ATOM     13  C   UNL     1      14.769  -8.352  32.123  0.00  0.00    +0.085 C 
BRANCH   4  17
ATOM     17  C   UNL     1      14.667  -6.270  30.888  0.00  0.00    +0.127 C 
BRANCH  17  23
ATOM      1  S   UNL     1      13.118  -4.822  32.688  0.00  0.00    -0.100 S 
ATOM     23  C   UNL     1      13.312  -6.045  31.505  0.00  0.00    +0.004 A 
ATOM     27  C   UNL     1      12.133  -6.711  31.250  0.00  0.00    +0.012 A 
ATOM     30  C   UNL     1      11.056  -6.211  32.037  0.00  0.00    +0.008 A 
ATOM     31  C   UNL     1      11.452  -5.181  32.863  0.00  0.00    +0.045 A 
ENDBRANCH  17  23
ENDBRANCH   4  17
ENDBRANCH  20  10
ENDBRANCH  26  24
BRANCH  14  22
ATOM      3  O   UNL     1      16.810  -0.802  22.011  0.00  0.00    -0.276 OA
ATOM      9  N   UNL     1      17.044   0.976  23.452  0.00  0.00    -0.329 N 
ATOM     22  C   UNL     1      16.539  -0.244  23.072  0.00  0.00    +0.214 C 
ATOM     32  H   UNL     1      17.673   1.488  22.843  0.00  0.00    +0.145 HD
ATOM     33  H   UNL     1      16.858   1.393  24.359  0.00  0.00    +0.145 HD
ENDBRANCH  14  22
TORSDOF 5
ENDMDL
