MODEL 1
REMARK VINA RESULT:      22.7      0.000      0.000
REMARK  Name = 71694373
REMARK  10 active torsions:
REMARK  status: ('A' for Active; 'I' for Inactive)
REMARK    1  A    between atoms: O_2  and  C_22
REMARK    2  A    between atoms: O_2  and  C_28
REMARK    3  A    between atoms: N_8  and  C_33
REMARK    4  A    between atoms: N_8  and  C_35
REMARK    5  A    between atoms: N_8  and  C_36
REMARK    6  A    between atoms: C_10  and  C_13
REMARK    7  A    between atoms: C_13  and  C_19
REMARK    8  A    between atoms: C_16  and  C_22
REMARK    9  A    between atoms: C_35  and  C_37
REMARK   10  A    between atoms: C_37  and  C_38
REMARK                            x       y       z     vdW  Elec       q    Type
REMARK                         _______ _______ _______ _____ _____    ______ ____
ROOT
ATOM      3  O   UNL     1      -2.451  -3.727  23.772  0.00  0.00    -0.274 OA
ATOM      4  O   UNL     1      -0.448   1.118  24.590  0.00  0.00    -0.488 OA
ATOM      6  N   UNL     1      -3.418  -2.039  25.027  0.00  0.00    -0.300 N 
ATOM      7  N   UNL     1      -0.261  -1.717  25.216  0.00  0.00    -0.304 NA
ATOM     10  C   UNL     1      -4.631   0.501  24.273  0.00  0.00    +0.008 C 
ATOM     11  C   UNL     1      -3.330   0.392  25.122  0.00  0.00    +0.032 C 
ATOM     12  C   UNL     1      -4.789  -0.780  23.420  0.00  0.00    +0.023 C 
ATOM     14  C   UNL     1      -3.326  -0.905  25.953  0.00  0.00    +0.115 C 
ATOM     15  C   UNL     1      -4.659  -2.060  24.249  0.00  0.00    +0.108 C 
ATOM     21  C   UNL     1      -3.053   1.595  25.984  0.00  0.00    -0.023 C 
ATOM     23  C   UNL     1      -2.377  -2.905  24.693  0.00  0.00    +0.229 C 
ATOM     24  C   UNL     1      -1.987   2.413  25.972  0.00  0.00    +0.010 C 
ATOM     25  C   UNL     1      -1.105  -2.868  25.520  0.00  0.00    +0.178 C 
ATOM     26  C   UNL     1      -0.713   2.393  25.165  0.00  0.00    +0.256 C 
ATOM     27  C   UNL     1       0.073  -1.549  23.804  0.00  0.00    +0.120 C 
ATOM     29  C   UNL     1       1.054  -0.409  23.587  0.00  0.00    +0.010 A 
ATOM     30  C   UNL     1       0.764   0.918  23.977  0.00  0.00    +0.125 A 
ATOM     31  C   UNL     1       2.278  -0.681  22.955  0.00  0.00    +0.031 A 
ATOM     32  C   UNL     1       1.694   1.935  23.725  0.00  0.00    +0.048 A 
ATOM     33  C   UNL     1       3.199   0.338  22.715  0.00  0.00    +0.030 A 
ATOM     34  C   UNL     1       2.906   1.642  23.098  0.00  0.00    +0.027 A 
ATOM     43  H   UNL     1       0.598  -1.794  25.761  0.00  0.00    +0.123 HD
ENDROOT
BRANCH  33   8
ATOM      8  N   UNL     1       4.424   0.046  22.080  0.00  0.00    -0.333 N 
ATOM     36  C   UNL     1       4.695   0.544  20.746  0.00  0.00    +0.129 C 
BRANCH   8  35
ATOM     35  C   UNL     1       5.430  -0.749  22.755  0.00  0.00    +0.111 C 
BRANCH  35  37
ATOM     37  C   UNL     1       6.232   0.104  23.737  0.00  0.00    +0.074 C 
BRANCH  37  38
ATOM      9  N   UNL     1       8.165  -0.841  22.594  0.00  0.00    -0.260 NA
ATOM     38  C   UNL     1       7.713   0.105  23.449  0.00  0.00    +0.043 A 
ATOM     39  C   UNL     1       8.523   1.051  24.057  0.00  0.00    +0.023 A 
ATOM     40  C   UNL     1       9.883   1.024  23.771  0.00  0.00    +0.003 A 
ATOM     41  C   UNL     1       9.493  -0.834  22.340  0.00  0.00    +0.111 A 
ATOM     42  C   UNL     1      10.385   0.067  22.896  0.00  0.00    +0.020 A 
ENDBRANCH  37  38
ENDBRANCH  35  37
ENDBRANCH   8  35
ENDBRANCH  33   8
BRANCH  10  13
ATOM     13  C   UNL     1      -5.904   0.768  25.086  0.00  0.00    +0.100 C 
BRANCH  13  19
ATOM      1  O   UNL     1      -6.288   2.312  26.858  0.00  0.00    -0.276 OA
ATOM      5  N   UNL     1      -5.206   3.112  24.975  0.00  0.00    -0.296 N 
ATOM     16  C   UNL     1      -5.129   4.509  25.408  0.00  0.00    +0.102 C 
ATOM     17  C   UNL     1      -4.786   5.270  24.124  0.00  0.00    +0.026 C 
ATOM     18  C   UNL     1      -4.643   2.941  23.637  0.00  0.00    +0.108 C 
ATOM     19  C   UNL     1      -5.824   2.129  25.730  0.00  0.00    +0.216 C 
ATOM     20  C   UNL     1      -3.961   4.265  23.330  0.00  0.00    +0.021 C 
BRANCH  16  22
ATOM     22  C   UNL     1      -4.070   4.701  26.492  0.00  0.00    +0.181 C 
BRANCH  22   2
ATOM      2  O   UNL     1      -3.202   5.744  26.092  0.00  0.00    -0.381 OA
ATOM     28  C   UNL     1      -1.973   5.239  25.578  0.00  0.00    +0.194 C 
ENDBRANCH  22   2
ENDBRANCH  16  22
ENDBRANCH  13  19
ENDBRANCH  10  13
TORSDOF 8
ENDMDL
