MODEL 1
REMARK VINA RESULT:      -4.0      0.000      0.000
REMARK  Name = 51138139
REMARK  10 active torsions:
REMARK  status: ('A' for Active; 'I' for Inactive)
REMARK    1  A    between atoms: N_4  and  C_10
REMARK    2  A    between atoms: N_5  and  C_24
REMARK    3  A    between atoms: C_7  and  C_10
REMARK    4  A    between atoms: C_11  and  C_17
REMARK    5  A    between atoms: C_12  and  C_18
REMARK    6  A    between atoms: C_17  and  C_20
REMARK    7  A    between atoms: C_20  and  C_26
REMARK    8  A    between atoms: C_20  and  C_27
REMARK    9  A    between atoms: C_24  and  C_28
REMARK   10  A    between atoms: C_30  and  C_31
REMARK                            x       y       z     vdW  Elec       q    Type
REMARK                         _______ _______ _______ _____ _____    ______ ____
ROOT
ATOM      3  N   UNL     1      -9.224 -10.430  14.002  0.00  0.00    -0.299 NA
ATOM      5  N   UNL     1      -4.185 -10.616  14.287  0.00  0.00    -0.340 N 
ATOM     11  C   UNL     1      -8.875  -9.817  15.292  0.00  0.00    +0.085 C 
ATOM     12  C   UNL     1      -8.592  -9.811  12.846  0.00  0.00    +0.145 C 
ATOM     13  C   UNL     1      -7.337 -10.570  12.420  0.00  0.00    +0.065 C 
ATOM     14  C   UNL     1      -7.403  -9.917  15.704  0.00  0.00    -0.021 A 
ATOM     15  C   UNL     1      -6.325 -10.231  14.826  0.00  0.00    +0.008 A 
ATOM     16  C   UNL     1      -6.232 -10.520  13.420  0.00  0.00    -0.020 A 
ATOM     19  C   UNL     1      -5.019 -10.277  15.328  0.00  0.00    +0.050 A 
ATOM     21  C   UNL     1      -4.903 -10.758  13.137  0.00  0.00    +0.091 A 
ATOM     22  C   UNL     1      -7.049  -9.600  17.040  0.00  0.00    +0.006 A 
ATOM     23  C   UNL     1      -4.696 -10.008  16.658  0.00  0.00    +0.026 A 
ATOM     25  C   UNL     1      -5.737  -9.654  17.508  0.00  0.00    +0.002 A 
ATOM     32  H   UNL     1      -9.057 -11.435  14.021  0.00  0.00    +0.123 HD
ENDROOT
BRANCH  12  18
ATOM      1  O   UNL     1     -10.575 -10.653  11.819  0.00  0.00    -0.274 OA
ATOM      4  N   UNL     1      -9.315  -9.052  10.693  0.00  0.00    -0.314 N 
ATOM     18  C   UNL     1      -9.612  -9.894  11.750  0.00  0.00    +0.230 C 
ATOM     33  H   UNL     1      -8.503  -8.443  10.752  0.00  0.00    +0.149 HD
BRANCH   4  10
ATOM     10  C   UNL     1     -10.128  -8.960   9.503  0.00  0.00    +0.107 C 
BRANCH  10   7
ATOM      7  C   UNL     1      -9.497  -8.069   8.487  0.00  0.00    +0.006 C 
ATOM      8  C   UNL     1      -9.586  -6.582   8.660  0.00  0.00    +0.005 C 
ATOM      9  C   UNL     1      -8.275  -7.283   8.859  0.00  0.00    +0.005 C 
ENDBRANCH  10   7
ENDBRANCH   4  10
ENDBRANCH  12  18
BRANCH  11  17
ATOM     17  C   UNL     1      -9.819 -10.486  16.308  0.00  0.00    +0.026 C 
BRANCH  17  20
ATOM     20  C   UNL     1     -10.688  -9.481  17.070  0.00  0.00    -0.015 C 
ATOM     26  C   UNL     1     -10.279  -8.060  16.675  0.00  0.00    +0.007 C 
ATOM     27  C   UNL     1     -10.588  -9.646  18.586  0.00  0.00    +0.007 C 
ENDBRANCH  17  20
ENDBRANCH  11  17
BRANCH   5  24
ATOM     24  C   UNL     1      -2.750 -10.781  14.378  0.00  0.00    +0.180 C 
BRANCH  24  28
ATOM      2  O   UNL     1      -1.476 -10.129  11.067  0.00  0.00    -0.360 OA
ATOM      6  N   UNL     1      -2.329 -10.781  11.952  0.00  0.00    -0.081 NA
ATOM     28  C   UNL     1      -2.014 -10.295  13.155  0.00  0.00    +0.103 A 
ATOM     29  C   UNL     1      -0.981  -9.342  13.093  0.00  0.00    +0.072 A 
ATOM     30  C   UNL     1      -0.679  -9.276  11.758  0.00  0.00    +0.135 A 
ATOM     31  C   UNL     1       0.288  -8.501  10.973  0.00  0.00    +0.089 C 
ENDBRANCH  24  28
ENDBRANCH   5  24
TORSDOF 7
ENDMDL
MODEL 2
REMARK VINA RESULT:      -2.5      1.544      2.206
REMARK  Name = 51138139
REMARK  10 active torsions:
REMARK  status: ('A' for Active; 'I' for Inactive)
REMARK    1  A    between atoms: N_4  and  C_10
REMARK    2  A    between atoms: N_5  and  C_24
REMARK    3  A    between atoms: C_7  and  C_10
REMARK    4  A    between atoms: C_11  and  C_17
REMARK    5  A    between atoms: C_12  and  C_18
REMARK    6  A    between atoms: C_17  and  C_20
REMARK    7  A    between atoms: C_20  and  C_26
REMARK    8  A    between atoms: C_20  and  C_27
REMARK    9  A    between atoms: C_24  and  C_28
REMARK   10  A    between atoms: C_30  and  C_31
REMARK                            x       y       z     vdW  Elec       q    Type
REMARK                         _______ _______ _______ _____ _____    ______ ____
ROOT
ATOM      3  N   UNL     1      -7.526 -10.255  14.763  0.00  0.00    -0.299 NA
ATOM      5  N   UNL     1      -2.905 -10.576  12.752  0.00  0.00    -0.340 N 
ATOM     11  C   UNL     1      -6.595  -9.928  15.852  0.00  0.00    +0.085 C 
ATOM     12  C   UNL     1      -7.391  -9.421  13.578  0.00  0.00    +0.145 C 
ATOM     13  C   UNL     1      -6.529 -10.095  12.512  0.00  0.00    +0.065 C 
ATOM     14  C   UNL     1      -5.108 -10.135  15.545  0.00  0.00    -0.021 A 
ATOM     15  C   UNL     1      -4.552 -10.278  14.241  0.00  0.00    +0.008 A 
ATOM     16  C   UNL     1      -5.103 -10.270  12.912  0.00  0.00    -0.020 A 
ATOM     19  C   UNL     1      -3.170 -10.447  14.095  0.00  0.00    +0.050 A 
ATOM     21  C   UNL     1      -4.057 -10.466  12.033  0.00  0.00    +0.091 A 
ATOM     22  C   UNL     1      -4.183 -10.108  16.620  0.00  0.00    +0.006 A 
ATOM     23  C   UNL     1      -2.280 -10.464  15.170  0.00  0.00    +0.026 A 
ATOM     25  C   UNL     1      -2.811 -10.278  16.440  0.00  0.00    +0.002 A 
ATOM     32  H   UNL     1      -7.475 -11.245  14.525  0.00  0.00    +0.123 HD
ENDROOT
BRANCH  12  18
ATOM      1  O   UNL     1      -9.672  -8.730  13.716  0.00  0.00    -0.274 OA
ATOM      4  N   UNL     1      -8.929  -9.784  11.778  0.00  0.00    -0.314 N 
ATOM     18  C   UNL     1      -8.786  -9.259  13.050  0.00  0.00    +0.230 C 
ATOM     33  H   UNL     1      -8.119 -10.175  11.305  0.00  0.00    +0.149 HD
BRANCH   4  10
ATOM     10  C   UNL     1     -10.179  -9.774  11.055  0.00  0.00    +0.107 C 
BRANCH  10   7
ATOM      7  C   UNL     1      -9.953  -9.903   9.586  0.00  0.00    +0.006 C 
ATOM      8  C   UNL     1      -9.847  -8.663   8.749  0.00  0.00    +0.005 C 
ATOM      9  C   UNL     1      -8.628  -9.499   9.010  0.00  0.00    +0.005 C 
ENDBRANCH  10   7
ENDBRANCH   4  10
ENDBRANCH  12  18
BRANCH  11  17
ATOM     17  C   UNL     1      -7.075 -10.778  17.042  0.00  0.00    +0.026 C 
BRANCH  17  20
ATOM     20  C   UNL     1      -8.491 -10.418  17.501  0.00  0.00    -0.015 C 
ATOM     26  C   UNL     1      -8.791  -8.967  17.122  0.00  0.00    +0.007 C 
ATOM     27  C   UNL     1      -8.689 -10.612  19.005  0.00  0.00    +0.007 C 
ENDBRANCH  17  20
ENDBRANCH  11  17
BRANCH   5  24
ATOM     24  C   UNL     1      -1.597 -10.780  12.168  0.00  0.00    +0.180 C 
BRANCH  24  28
ATOM      2  O   UNL     1       0.349  -7.973  11.006  0.00  0.00    -0.360 OA
ATOM      6  N   UNL     1      -0.297  -9.188  10.809  0.00  0.00    -0.081 NA
ATOM     28  C   UNL     1      -0.811  -9.503  12.002  0.00  0.00    +0.103 A 
ATOM     29  C   UNL     1      -0.525  -8.532  12.979  0.00  0.00    +0.072 A 
ATOM     30  C   UNL     1       0.206  -7.593  12.301  0.00  0.00    +0.135 A 
ATOM     31  C   UNL     1       0.832  -6.322  12.684  0.00  0.00    +0.089 C 
ENDBRANCH  24  28
ENDBRANCH   5  24
TORSDOF 7
ENDMDL
