MODEL 1
REMARK VINA RESULT:      -3.6      0.000      0.000
REMARK  Name = 11882434
REMARK  12 active torsions:
REMARK  status: ('A' for Active; 'I' for Inactive)
REMARK    1  A    between atoms: S_1  and  C_23
REMARK    2  A    between atoms: S_1  and  C_26
REMARK    3  A    between atoms: O_2  and  C_13
REMARK    4  A    between atoms: O_3  and  C_17
REMARK    5  A    between atoms: O_4  and  C_18
REMARK    6  A    between atoms: N_10  and  C_14
REMARK    7  A    between atoms: N_11  and  C_20
REMARK    8  A    between atoms: C_13  and  C_19
REMARK    9  A    between atoms: C_20  and  C_21
REMARK   10  A    between atoms: C_20  and  C_24
REMARK   11  A    between atoms: C_21  and  C_23
REMARK   12  A    between atoms: C_22  and  C_25
REMARK                            x       y       z     vdW  Elec       q    Type
REMARK                         _______ _______ _______ _____ _____    ______ ____
ROOT
ATOM     13  C   UNL     1      -4.130   0.611  24.607  0.00  0.00    +0.146 C 
ATOM     14  C   UNL     1      -4.107   3.150  24.536  0.00  0.00    +0.107 C 
ATOM     15  C   UNL     1      -3.265   1.869  24.513  0.00  0.00    +0.069 C 
ATOM     16  C   UNL     1      -5.049   0.657  25.825  0.00  0.00    +0.078 C 
ATOM     17  C   UNL     1      -5.049   3.193  25.745  0.00  0.00    +0.163 C 
ATOM     18  C   UNL     1      -5.902   1.926  25.856  0.00  0.00    +0.148 C 
ENDROOT
BRANCH  14  10
ATOM      6  O   UNL     1      -1.603   3.486  25.966  0.00  0.00    -0.276 OA
ATOM     10  N   UNL     1      -3.237   4.307  24.526  0.00  0.00    -0.310 N 
ATOM     22  C   UNL     1      -2.058   4.370  25.246  0.00  0.00    +0.210 C 
ATOM     25  C   UNL     1      -1.336   5.675  25.039  0.00  0.00    +0.109 C 
ATOM     27  H   UNL     1      -3.540   5.125  24.006  0.00  0.00    +0.149 HD
ENDBRANCH  14  10
BRANCH  13  19
ATOM      5  O   UNL     1      -3.678  -1.679  25.120  0.00  0.00    -0.273 OA
ATOM     11  N   UNL     1      -2.004  -0.391  24.140  0.00  0.00    -0.302 N 
ATOM     19  C   UNL     1      -3.270  -0.619  24.653  0.00  0.00    +0.245 C 
ATOM     29  H   UNL     1      -1.736   0.541  23.845  0.00  0.00    +0.150 HD
BRANCH  11  20
ATOM     20  C   UNL     1      -0.977  -1.407  24.091  0.00  0.00    +0.160 C 
BRANCH  20  24
ATOM      7  O   UNL     1       0.396  -2.425  25.818  0.00  0.00    -0.274 OA
ATOM     12  N   UNL     1      -0.888  -0.603  26.371  0.00  0.00    -0.328 N 
ATOM     24  C   UNL     1      -0.420  -1.563  25.499  0.00  0.00    +0.231 C 
ATOM     32  H   UNL     1      -0.582  -0.585  27.337  0.00  0.00    +0.145 HD
ATOM     33  H   UNL     1      -1.559   0.106  26.093  0.00  0.00    +0.145 HD
ENDBRANCH  20  24
BRANCH  20  21
ATOM     21  C   UNL     1       0.140  -1.048  23.109  0.00  0.00    +0.054 C 
BRANCH  21  23
ATOM     23  C   UNL     1       0.976   0.132  23.588  0.00  0.00    +0.168 C 
BRANCH  23   1
ATOM      1  S   UNL     1       2.509   0.227  22.718  0.00  0.00    -0.034 S 
ATOM      8  O   UNL     1       2.273  -0.157  21.337  0.00  0.00    -0.175 OA
ATOM      9  O   UNL     1       3.133   1.501  23.035  0.00  0.00    -0.175 OA
ATOM     26  C   UNL     1       3.488  -1.052  23.471  0.00  0.00    +0.194 C 
ENDBRANCH  23   1
ENDBRANCH  21  23
ENDBRANCH  20  21
ENDBRANCH  11  20
ENDBRANCH  13  19
BRANCH  13   2
ATOM      2  O   UNL     1      -4.922   0.461  23.433  0.00  0.00    -0.379 OA
ATOM     28  H   UNL     1      -5.180  -0.473  23.353  0.00  0.00    +0.211 HD
ENDBRANCH  13   2
BRANCH  17   3
ATOM      3  O   UNL     1      -5.941   4.302  25.605  0.00  0.00    -0.387 OA
ATOM     30  H   UNL     1      -5.515   4.960  25.028  0.00  0.00    +0.210 HD
ENDBRANCH  17   3
BRANCH  18   4
ATOM      4  O   UNL     1      -6.619   1.970  27.089  0.00  0.00    -0.389 OA
ATOM     31  H   UNL     1      -7.021   2.854  27.162  0.00  0.00    +0.210 HD
ENDBRANCH  18   4
TORSDOF 10
ENDMDL
MODEL 2
REMARK VINA RESULT:      -3.3      2.376      4.788
REMARK  Name = 11882434
REMARK  12 active torsions:
REMARK  status: ('A' for Active; 'I' for Inactive)
REMARK    1  A    between atoms: S_1  and  C_23
REMARK    2  A    between atoms: S_1  and  C_26
REMARK    3  A    between atoms: O_2  and  C_13
REMARK    4  A    between atoms: O_3  and  C_17
REMARK    5  A    between atoms: O_4  and  C_18
REMARK    6  A    between atoms: N_10  and  C_14
REMARK    7  A    between atoms: N_11  and  C_20
REMARK    8  A    between atoms: C_13  and  C_19
REMARK    9  A    between atoms: C_20  and  C_21
REMARK   10  A    between atoms: C_20  and  C_24
REMARK   11  A    between atoms: C_21  and  C_23
REMARK   12  A    between atoms: C_22  and  C_25
REMARK                            x       y       z     vdW  Elec       q    Type
REMARK                         _______ _______ _______ _____ _____    ______ ____
ROOT
ATOM     13  C   UNL     1      -0.593   2.538  25.420  0.00  0.00    +0.146 C 
ATOM     14  C   UNL     1      -2.976   3.142  26.061  0.00  0.00    +0.107 C 
ATOM     15  C   UNL     1      -2.057   2.094  25.424  0.00  0.00    +0.069 C 
ATOM     16  C   UNL     1      -0.429   3.904  24.758  0.00  0.00    +0.078 C 
ATOM     17  C   UNL     1      -2.800   4.523  25.417  0.00  0.00    +0.163 C 
ATOM     18  C   UNL     1      -1.334   4.963  25.391  0.00  0.00    +0.148 C 
ENDROOT
BRANCH  14  10
ATOM      6  O   UNL     1      -4.455   2.482  23.652  0.00  0.00    -0.276 OA
ATOM     10  N   UNL     1      -4.353   2.707  25.966  0.00  0.00    -0.310 N 
ATOM     22  C   UNL     1      -4.971   2.415  24.764  0.00  0.00    +0.210 C 
ATOM     25  C   UNL     1      -6.395   1.964  24.953  0.00  0.00    +0.109 C 
ATOM     27  H   UNL     1      -4.899   2.668  26.822  0.00  0.00    +0.149 HD
ENDBRANCH  14  10
BRANCH  13  19
ATOM      5  O   UNL     1       1.311   1.830  24.163  0.00  0.00    -0.273 OA
ATOM     11  N   UNL     1      -0.276   0.248  24.791  0.00  0.00    -0.302 N 
ATOM     19  C   UNL     1       0.265   1.521  24.727  0.00  0.00    +0.245 C 
ATOM     29  H   UNL     1      -1.185   0.104  25.218  0.00  0.00    +0.150 HD
BRANCH  11  20
ATOM     20  C   UNL     1       0.344  -0.907  24.182  0.00  0.00    +0.160 C 
BRANCH  20  24
ATOM      7  O   UNL     1       0.374  -0.117  21.885  0.00  0.00    -0.274 OA
ATOM     12  N   UNL     1       2.376  -0.384  22.978  0.00  0.00    -0.328 N 
ATOM     24  C   UNL     1       1.001  -0.445  22.890  0.00  0.00    +0.231 C 
ATOM     32  H   UNL     1       2.935  -0.076  22.190  0.00  0.00    +0.145 HD
ATOM     33  H   UNL     1       2.882  -0.655  23.816  0.00  0.00    +0.145 HD
ENDBRANCH  20  24
BRANCH  20  21
ATOM     21  C   UNL     1      -0.666  -2.021  23.902  0.00  0.00    +0.054 C 
BRANCH  21  23
ATOM     23  C   UNL     1      -1.674  -2.187  25.032  0.00  0.00    +0.168 C 
BRANCH  23   1
ATOM      1  S   UNL     1      -3.204  -1.393  24.648  0.00  0.00    -0.034 S 
ATOM      8  O   UNL     1      -3.828  -0.982  25.894  0.00  0.00    -0.175 OA
ATOM      9  O   UNL     1      -2.961  -0.428  23.589  0.00  0.00    -0.175 OA
ATOM     26  C   UNL     1      -4.187  -2.706  23.962  0.00  0.00    +0.194 C 
ENDBRANCH  23   1
ENDBRANCH  21  23
ENDBRANCH  20  21
ENDBRANCH  11  20
ENDBRANCH  13  19
BRANCH  13   2
ATOM      2  O   UNL     1      -0.088   2.602  26.749  0.00  0.00    -0.379 OA
ATOM     28  H   UNL     1       0.879   2.706  26.706  0.00  0.00    +0.211 HD
ENDBRANCH  13   2
BRANCH  17   3
ATOM      3  O   UNL     1      -3.528   5.491  26.178  0.00  0.00    -0.387 OA
ATOM     30  H   UNL     1      -2.893   6.141  26.524  0.00  0.00    +0.210 HD
ENDBRANCH  17   3
BRANCH  18   4
ATOM      4  O   UNL     1      -1.237   6.167  24.629  0.00  0.00    -0.389 OA
ATOM     31  H   UNL     1      -0.468   6.661  24.961  0.00  0.00    +0.210 HD
ENDBRANCH  18   4
TORSDOF 10
ENDMDL
MODEL 3
REMARK VINA RESULT:      -2.2      1.546      1.811
REMARK  Name = 11882434
REMARK  12 active torsions:
REMARK  status: ('A' for Active; 'I' for Inactive)
REMARK    1  A    between atoms: S_1  and  C_23
REMARK    2  A    between atoms: S_1  and  C_26
REMARK    3  A    between atoms: O_2  and  C_13
REMARK    4  A    between atoms: O_3  and  C_17
REMARK    5  A    between atoms: O_4  and  C_18
REMARK    6  A    between atoms: N_10  and  C_14
REMARK    7  A    between atoms: N_11  and  C_20
REMARK    8  A    between atoms: C_13  and  C_19
REMARK    9  A    between atoms: C_20  and  C_21
REMARK   10  A    between atoms: C_20  and  C_24
REMARK   11  A    between atoms: C_21  and  C_23
REMARK   12  A    between atoms: C_22  and  C_25
REMARK                            x       y       z     vdW  Elec       q    Type
REMARK                         _______ _______ _______ _____ _____    ______ ____
ROOT
ATOM     13  C   UNL     1      -4.408   0.752  24.944  0.00  0.00    +0.146 C 
ATOM     14  C   UNL     1      -4.324   3.280  24.701  0.00  0.00    +0.107 C 
ATOM     15  C   UNL     1      -3.512   1.984  24.798  0.00  0.00    +0.069 C 
ATOM     16  C   UNL     1      -5.369   0.901  26.121  0.00  0.00    +0.078 C 
ATOM     17  C   UNL     1      -5.309   3.426  25.868  0.00  0.00    +0.163 C 
ATOM     18  C   UNL     1      -6.193   2.187  26.032  0.00  0.00    +0.148 C 
ENDROOT
BRANCH  14  10
ATOM      6  O   UNL     1      -1.704   3.521  25.929  0.00  0.00    -0.276 OA
ATOM     10  N   UNL     1      -3.428   4.415  24.645  0.00  0.00    -0.310 N 
ATOM     22  C   UNL     1      -2.193   4.433  25.268  0.00  0.00    +0.210 C 
ATOM     25  C   UNL     1      -1.457   5.724  25.030  0.00  0.00    +0.109 C 
ATOM     27  H   UNL     1      -3.751   5.253  24.170  0.00  0.00    +0.149 HD
ENDBRANCH  14  10
BRANCH  13  19
ATOM      5  O   UNL     1      -3.646  -1.186  26.115  0.00  0.00    -0.273 OA
ATOM     11  N   UNL     1      -2.749  -0.710  24.021  0.00  0.00    -0.302 N 
ATOM     19  C   UNL     1      -3.579  -0.488  25.107  0.00  0.00    +0.245 C 
ATOM     29  H   UNL     1      -2.712  -0.034  23.265  0.00  0.00    +0.150 HD
BRANCH  11  20
ATOM     20  C   UNL     1      -1.834  -1.825  23.940  0.00  0.00    +0.160 C 
BRANCH  20  24
ATOM      7  O   UNL     1      -2.034  -3.611  25.573  0.00  0.00    -0.274 OA
ATOM     12  N   UNL     1      -3.723  -3.331  24.043  0.00  0.00    -0.328 N 
ATOM     24  C   UNL     1      -2.504  -3.017  24.606  0.00  0.00    +0.231 C 
ATOM     32  H   UNL     1      -4.281  -4.097  24.404  0.00  0.00    +0.145 HD
ATOM     33  H   UNL     1      -4.102  -2.829  23.246  0.00  0.00    +0.145 HD
ENDBRANCH  20  24
BRANCH  20  21
ATOM     21  C   UNL     1      -0.494  -1.518  24.612  0.00  0.00    +0.054 C 
BRANCH  21  23
ATOM     23  C   UNL     1      -0.415  -0.085  25.121  0.00  0.00    +0.168 C 
BRANCH  23   1
ATOM      1  S   UNL     1       0.123   1.018  23.852  0.00  0.00    -0.034 S 
ATOM      8  O   UNL     1      -1.029   1.378  23.043  0.00  0.00    -0.175 OA
ATOM      9  O   UNL     1       0.948   2.047  24.463  0.00  0.00    -0.175 OA
ATOM     26  C   UNL     1       1.186   0.004  22.850  0.00  0.00    +0.194 C 
ENDBRANCH  23   1
ENDBRANCH  21  23
ENDBRANCH  20  21
ENDBRANCH  11  20
ENDBRANCH  13  19
BRANCH  13   2
ATOM      2  O   UNL     1      -5.159   0.538  23.754  0.00  0.00    -0.379 OA
ATOM     28  H   UNL     1      -6.066   0.288  24.004  0.00  0.00    +0.211 HD
ENDBRANCH  13   2
BRANCH  17   3
ATOM      3  O   UNL     1      -6.169   4.541  25.618  0.00  0.00    -0.387 OA
ATOM     30  H   UNL     1      -7.089   4.229  25.668  0.00  0.00    +0.210 HD
ENDBRANCH  17   3
BRANCH  18   4
ATOM      4  O   UNL     1      -6.954   2.331  27.231  0.00  0.00    -0.389 OA
ATOM     31  H   UNL     1      -6.889   1.493  27.721  0.00  0.00    +0.210 HD
ENDBRANCH  18   4
TORSDOF 10
ENDMDL
MODEL 4
REMARK VINA RESULT:      -2.0      2.179      5.714
REMARK  Name = 11882434
REMARK  12 active torsions:
REMARK  status: ('A' for Active; 'I' for Inactive)
REMARK    1  A    between atoms: S_1  and  C_23
REMARK    2  A    between atoms: S_1  and  C_26
REMARK    3  A    between atoms: O_2  and  C_13
REMARK    4  A    between atoms: O_3  and  C_17
REMARK    5  A    between atoms: O_4  and  C_18
REMARK    6  A    between atoms: N_10  and  C_14
REMARK    7  A    between atoms: N_11  and  C_20
REMARK    8  A    between atoms: C_13  and  C_19
REMARK    9  A    between atoms: C_20  and  C_21
REMARK   10  A    between atoms: C_20  and  C_24
REMARK   11  A    between atoms: C_21  and  C_23
REMARK   12  A    between atoms: C_22  and  C_25
REMARK                            x       y       z     vdW  Elec       q    Type
REMARK                         _______ _______ _______ _____ _____    ______ ____
ROOT
ATOM     13  C   UNL     1      -3.646  -0.402  25.389  0.00  0.00    +0.146 C 
ATOM     14  C   UNL     1      -1.390  -1.451  24.872  0.00  0.00    +0.107 C 
ATOM     15  C   UNL     1      -2.179  -0.147  25.037  0.00  0.00    +0.069 C 
ATOM     16  C   UNL     1      -4.307  -1.333  24.375  0.00  0.00    +0.078 C 
ATOM     17  C   UNL     1      -2.060  -2.401  23.872  0.00  0.00    +0.163 C 
ATOM     18  C   UNL     1      -3.535  -2.643  24.207  0.00  0.00    +0.148 C 
ENDROOT
BRANCH  14  10
ATOM      6  O   UNL     1      -0.539   0.397  22.801  0.00  0.00    -0.276 OA
ATOM     10  N   UNL     1      -0.034  -1.154  24.463  0.00  0.00    -0.310 N 
ATOM     22  C   UNL     1       0.270  -0.252  23.459  0.00  0.00    +0.210 C 
ATOM     25  C   UNL     1       1.755  -0.114  23.252  0.00  0.00    +0.109 C 
ATOM     27  H   UNL     1       0.720  -1.674  24.901  0.00  0.00    +0.149 HD
ENDBRANCH  14  10
BRANCH  13  19
ATOM      5  O   UNL     1      -5.584   0.933  25.802  0.00  0.00    -0.273 OA
ATOM     11  N   UNL     1      -3.619   1.979  25.120  0.00  0.00    -0.302 N 
ATOM     19  C   UNL     1      -4.402   0.892  25.473  0.00  0.00    +0.245 C 
ATOM     29  H   UNL     1      -2.671   1.835  24.791  0.00  0.00    +0.150 HD
BRANCH  11  20
ATOM     20  C   UNL     1      -4.116   3.336  25.097  0.00  0.00    +0.160 C 
BRANCH  20  24
ATOM      7  O   UNL     1      -4.262   4.978  23.313  0.00  0.00    -0.274 OA
ATOM     12  N   UNL     1      -3.773   2.803  22.762  0.00  0.00    -0.328 N 
ATOM     24  C   UNL     1      -4.081   3.811  23.651  0.00  0.00    +0.231 C 
ATOM     32  H   UNL     1      -3.702   2.990  21.768  0.00  0.00    +0.145 HD
ATOM     33  H   UNL     1      -3.621   1.843  23.056  0.00  0.00    +0.145 HD
ENDBRANCH  20  24
BRANCH  20  21
ATOM     21  C   UNL     1      -3.290   4.266  25.988  0.00  0.00    +0.054 C 
BRANCH  21  23
ATOM     23  C   UNL     1      -2.015   3.603  26.493  0.00  0.00    +0.168 C 
BRANCH  23   1
ATOM      1  S   UNL     1      -0.736   3.665  25.278  0.00  0.00    -0.034 S 
ATOM      8  O   UNL     1       0.523   3.342  25.927  0.00  0.00    -0.175 OA
ATOM      9  O   UNL     1      -1.180   2.919  24.112  0.00  0.00    -0.175 OA
ATOM     26  C   UNL     1      -0.682   5.384  24.826  0.00  0.00    +0.194 C 
ENDBRANCH  23   1
ENDBRANCH  21  23
ENDBRANCH  20  21
ENDBRANCH  11  20
ENDBRANCH  13  19
BRANCH  13   2
ATOM      2  O   UNL     1      -3.755  -0.976  26.687  0.00  0.00    -0.379 OA
ATOM     28  H   UNL     1      -4.217  -1.829  26.608  0.00  0.00    +0.211 HD
ENDBRANCH  13   2
BRANCH  17   3
ATOM      3  O   UNL     1      -1.396  -3.667  23.911  0.00  0.00    -0.387 OA
ATOM     30  H   UNL     1      -2.065  -4.362  23.791  0.00  0.00    +0.210 HD
ENDBRANCH  17   3
BRANCH  18   4
ATOM      4  O   UNL     1      -4.123  -3.392  23.144  0.00  0.00    -0.389 OA
ATOM     31  H   UNL     1      -4.929  -2.923  22.867  0.00  0.00    +0.210 HD
ENDBRANCH  18   4
TORSDOF 10
ENDMDL
MODEL 5
REMARK VINA RESULT:      -1.6      2.524      5.969
REMARK  Name = 11882434
REMARK  12 active torsions:
REMARK  status: ('A' for Active; 'I' for Inactive)
REMARK    1  A    between atoms: S_1  and  C_23
REMARK    2  A    between atoms: S_1  and  C_26
REMARK    3  A    between atoms: O_2  and  C_13
REMARK    4  A    between atoms: O_3  and  C_17
REMARK    5  A    between atoms: O_4  and  C_18
REMARK    6  A    between atoms: N_10  and  C_14
REMARK    7  A    between atoms: N_11  and  C_20
REMARK    8  A    between atoms: C_13  and  C_19
REMARK    9  A    between atoms: C_20  and  C_21
REMARK   10  A    between atoms: C_20  and  C_24
REMARK   11  A    between atoms: C_21  and  C_23
REMARK   12  A    between atoms: C_22  and  C_25
REMARK                            x       y       z     vdW  Elec       q    Type
REMARK                         _______ _______ _______ _____ _____    ______ ____
ROOT
ATOM     13  C   UNL     1      -1.864   3.528  24.969  0.00  0.00    +0.146 C 
ATOM     14  C   UNL     1       0.463   2.637  24.475  0.00  0.00    +0.107 C 
ATOM     15  C   UNL     1      -0.999   2.698  24.020  0.00  0.00    +0.069 C 
ATOM     16  C   UNL     1      -1.746   3.031  26.408  0.00  0.00    +0.078 C 
ATOM     17  C   UNL     1       0.589   2.160  25.928  0.00  0.00    +0.163 C 
ATOM     18  C   UNL     1      -0.291   2.974  26.879  0.00  0.00    +0.148 C 
ENDROOT
BRANCH  14  10
ATOM      6  O   UNL     1       0.004  -0.179  23.941  0.00  0.00    -0.276 OA
ATOM     10  N   UNL     1       1.216   1.776  23.589  0.00  0.00    -0.310 N 
ATOM     22  C   UNL     1       0.917   0.439  23.401  0.00  0.00    +0.210 C 
ATOM     25  C   UNL     1       1.841  -0.215  22.410  0.00  0.00    +0.109 C 
ATOM     27  H   UNL     1       2.033   2.166  23.128  0.00  0.00    +0.149 HD
ENDBRANCH  14  10
BRANCH  13  19
ATOM      5  O   UNL     1      -3.768   4.376  23.801  0.00  0.00    -0.273 OA
ATOM     11  N   UNL     1      -3.993   2.432  25.061  0.00  0.00    -0.302 N 
ATOM     19  C   UNL     1      -3.300   3.507  24.531  0.00  0.00    +0.245 C 
ATOM     29  H   UNL     1      -3.535   1.807  25.716  0.00  0.00    +0.150 HD
BRANCH  11  20
ATOM     20  C   UNL     1      -5.397   2.196  24.811  0.00  0.00    +0.160 C 
BRANCH  20  24
ATOM      7  O   UNL     1      -6.632   2.280  26.901  0.00  0.00    -0.274 OA
ATOM     12  N   UNL     1      -6.288   4.238  25.752  0.00  0.00    -0.328 N 
ATOM     24  C   UNL     1      -6.181   2.875  25.925  0.00  0.00    +0.231 C 
ATOM     32  H   UNL     1      -6.774   4.812  26.432  0.00  0.00    +0.145 HD
ATOM     33  H   UNL     1      -5.907   4.717  24.942  0.00  0.00    +0.145 HD
ENDBRANCH  20  24
BRANCH  20  21
ATOM     21  C   UNL     1      -5.727   0.703  24.755  0.00  0.00    +0.054 C 
BRANCH  21  23
ATOM     23  C   UNL     1      -4.635  -0.156  25.379  0.00  0.00    +0.168 C 
BRANCH  23   1
ATOM      1  S   UNL     1      -3.728  -1.035  24.145  0.00  0.00    -0.034 S 
ATOM      8  O   UNL     1      -4.574  -2.097  23.629  0.00  0.00    -0.175 OA
ATOM      9  O   UNL     1      -3.127  -0.065  23.246  0.00  0.00    -0.175 OA
ATOM     26  C   UNL     1      -2.413  -1.798  25.068  0.00  0.00    +0.194 C 
ENDBRANCH  23   1
ENDBRANCH  21  23
ENDBRANCH  20  21
ENDBRANCH  11  20
ENDBRANCH  13  19
BRANCH  13   2
ATOM      2  O   UNL     1      -1.485   4.900  24.918  0.00  0.00    -0.379 OA
ATOM     28  H   UNL     1      -0.705   5.024  25.487  0.00  0.00    +0.211 HD
ENDBRANCH  13   2
BRANCH  17   3
ATOM      3  O   UNL     1       1.945   2.315  26.355  0.00  0.00    -0.387 OA
ATOM     30  H   UNL     1       2.524   1.988  25.645  0.00  0.00    +0.210 HD
ENDBRANCH  17   3
BRANCH  18   4
ATOM      4  O   UNL     1      -0.248   2.364  28.169  0.00  0.00    -0.389 OA
ATOM     31  H   UNL     1      -0.873   2.843  28.740  0.00  0.00    +0.210 HD
ENDBRANCH  18   4
TORSDOF 10
ENDMDL
MODEL 6
REMARK VINA RESULT:      -1.2      2.551      4.929
REMARK  Name = 11882434
REMARK  12 active torsions:
REMARK  status: ('A' for Active; 'I' for Inactive)
REMARK    1  A    between atoms: S_1  and  C_23
REMARK    2  A    between atoms: S_1  and  C_26
REMARK    3  A    between atoms: O_2  and  C_13
REMARK    4  A    between atoms: O_3  and  C_17
REMARK    5  A    between atoms: O_4  and  C_18
REMARK    6  A    between atoms: N_10  and  C_14
REMARK    7  A    between atoms: N_11  and  C_20
REMARK    8  A    between atoms: C_13  and  C_19
REMARK    9  A    between atoms: C_20  and  C_21
REMARK   10  A    between atoms: C_20  and  C_24
REMARK   11  A    between atoms: C_21  and  C_23
REMARK   12  A    between atoms: C_22  and  C_25
REMARK                            x       y       z     vdW  Elec       q    Type
REMARK                         _______ _______ _______ _____ _____    ______ ____
ROOT
ATOM     13  C   UNL     1      -0.613   2.016  25.426  0.00  0.00    +0.146 C 
ATOM     14  C   UNL     1      -2.191   3.944  25.922  0.00  0.00    +0.107 C 
ATOM     15  C   UNL     1      -2.054   2.430  25.729  0.00  0.00    +0.069 C 
ATOM     16  C   UNL     1      -0.054   2.786  24.232  0.00  0.00    +0.078 C 
ATOM     17  C   UNL     1      -1.610   4.725  24.736  0.00  0.00    +0.163 C 
ATOM     18  C   UNL     1      -0.175   4.299  24.415  0.00  0.00    +0.148 C 
ENDROOT
BRANCH  14  10
ATOM      6  O   UNL     1      -4.420   3.402  24.142  0.00  0.00    -0.276 OA
ATOM     10  N   UNL     1      -3.582   4.287  26.126  0.00  0.00    -0.310 N 
ATOM     22  C   UNL     1      -4.576   3.984  25.213  0.00  0.00    +0.210 C 
ATOM     25  C   UNL     1      -5.934   4.431  25.683  0.00  0.00    +0.109 C 
ATOM     27  H   UNL     1      -3.823   4.822  26.955  0.00  0.00    +0.149 HD
ENDBRANCH  14  10
BRANCH  13  19
ATOM      5  O   UNL     1       0.077   0.077  24.211  0.00  0.00    -0.273 OA
ATOM     11  N   UNL     1      -1.221  -0.194  26.124  0.00  0.00    -0.302 N 
ATOM     19  C   UNL     1      -0.530   0.538  25.174  0.00  0.00    +0.245 C 
ATOM     29  H   UNL     1      -1.755   0.283  26.843  0.00  0.00    +0.150 HD
BRANCH  11  20
ATOM     20  C   UNL     1      -1.315  -1.636  26.096  0.00  0.00    +0.160 C 
BRANCH  20  24
ATOM      7  O   UNL     1      -0.864  -2.278  23.796  0.00  0.00    -0.274 OA
ATOM     12  N   UNL     1       0.861  -2.343  25.311  0.00  0.00    -0.328 N 
ATOM     24  C   UNL     1      -0.451  -2.129  24.944  0.00  0.00    +0.231 C 
ATOM     32  H   UNL     1       1.546  -2.658  24.633  0.00  0.00    +0.145 HD
ATOM     33  H   UNL     1       1.190  -2.212  26.262  0.00  0.00    +0.145 HD
ENDBRANCH  20  24
BRANCH  20  21
ATOM     21  C   UNL     1      -2.759  -2.115  25.926  0.00  0.00    +0.054 C 
BRANCH  21  23
ATOM     23  C   UNL     1      -3.756  -0.964  25.938  0.00  0.00    +0.168 C 
BRANCH  23   1
ATOM      1  S   UNL     1      -4.292  -0.563  24.304  0.00  0.00    -0.034 S 
ATOM      8  O   UNL     1      -3.258   0.237  23.670  0.00  0.00    -0.175 OA
ATOM      9  O   UNL     1      -4.777  -1.780  23.674  0.00  0.00    -0.175 OA
ATOM     26  C   UNL     1      -5.695   0.494  24.580  0.00  0.00    +0.194 C 
ENDBRANCH  23   1
ENDBRANCH  21  23
ENDBRANCH  20  21
ENDBRANCH  11  20
ENDBRANCH  13  19
BRANCH  13   2
ATOM      2  O   UNL     1       0.220   2.243  26.558  0.00  0.00    -0.379 OA
ATOM     28  H   UNL     1       0.634   1.400  26.809  0.00  0.00    +0.211 HD
ENDBRANCH  13   2
BRANCH  17   3
ATOM      3  O   UNL     1      -1.585   6.118  25.061  0.00  0.00    -0.387 OA
ATOM     30  H   UNL     1      -1.927   6.612  24.296  0.00  0.00    +0.210 HD
ENDBRANCH  17   3
BRANCH  18   4
ATOM      4  O   UNL     1       0.227   4.944  23.206  0.00  0.00    -0.389 OA
ATOM     31  H   UNL     1      -0.086   4.397  22.465  0.00  0.00    +0.210 HD
ENDBRANCH  18   4
TORSDOF 10
ENDMDL
MODEL 7
REMARK VINA RESULT:      -0.3      2.561      6.995
REMARK  Name = 11882434
REMARK  12 active torsions:
REMARK  status: ('A' for Active; 'I' for Inactive)
REMARK    1  A    between atoms: S_1  and  C_23
REMARK    2  A    between atoms: S_1  and  C_26
REMARK    3  A    between atoms: O_2  and  C_13
REMARK    4  A    between atoms: O_3  and  C_17
REMARK    5  A    between atoms: O_4  and  C_18
REMARK    6  A    between atoms: N_10  and  C_14
REMARK    7  A    between atoms: N_11  and  C_20
REMARK    8  A    between atoms: C_13  and  C_19
REMARK    9  A    between atoms: C_20  and  C_21
REMARK   10  A    between atoms: C_20  and  C_24
REMARK   11  A    between atoms: C_21  and  C_23
REMARK   12  A    between atoms: C_22  and  C_25
REMARK                            x       y       z     vdW  Elec       q    Type
REMARK                         _______ _______ _______ _____ _____    ______ ____
ROOT
ATOM     13  C   UNL     1      -0.252   1.961  25.139  0.00  0.00    +0.146 C 
ATOM     14  C   UNL     1       1.243   0.244  24.011  0.00  0.00    +0.107 C 
ATOM     15  C   UNL     1       0.649   1.655  23.941  0.00  0.00    +0.069 C 
ATOM     16  C   UNL     1      -1.340   0.902  25.300  0.00  0.00    +0.078 C 
ATOM     17  C   UNL     1       0.158  -0.824  24.196  0.00  0.00    +0.163 C 
ATOM     18  C   UNL     1      -0.761  -0.512  25.380  0.00  0.00    +0.148 C 
ENDROOT
BRANCH  14  10
ATOM      6  O   UNL     1       3.873   1.283  23.353  0.00  0.00    -0.276 OA
ATOM     10  N   UNL     1       2.019  -0.020  22.818  0.00  0.00    -0.310 N 
ATOM     22  C   UNL     1       3.270   0.526  22.597  0.00  0.00    +0.210 C 
ATOM     25  C   UNL     1       3.866   0.070  21.291  0.00  0.00    +0.109 C 
ATOM     27  H   UNL     1       1.597  -0.591  22.093  0.00  0.00    +0.149 HD
ENDBRANCH  14  10
BRANCH  13  19
ATOM      5  O   UNL     1      -0.267   4.343  25.317  0.00  0.00    -0.273 OA
ATOM     11  N   UNL     1      -2.165   3.261  24.513  0.00  0.00    -0.302 N 
ATOM     19  C   UNL     1      -0.870   3.321  25.001  0.00  0.00    +0.245 C 
ATOM     29  H   UNL     1      -2.604   2.361  24.350  0.00  0.00    +0.150 HD
BRANCH  11  20
ATOM     20  C   UNL     1      -2.988   4.431  24.309  0.00  0.00    +0.160 C 
BRANCH  20  24
ATOM      7  O   UNL     1      -3.327   5.002  26.646  0.00  0.00    -0.274 OA
ATOM     12  N   UNL     1      -2.118   6.444  25.330  0.00  0.00    -0.328 N 
ATOM     24  C   UNL     1      -2.859   5.303  25.550  0.00  0.00    +0.231 C 
ATOM     32  H   UNL     1      -1.943   7.104  26.080  0.00  0.00    +0.145 HD
ATOM     33  H   UNL     1      -1.734   6.679  24.420  0.00  0.00    +0.145 HD
ENDBRANCH  20  24
BRANCH  20  21
ATOM     21  C   UNL     1      -4.453   4.067  24.059  0.00  0.00    +0.054 C 
BRANCH  21  23
ATOM     23  C   UNL     1      -4.652   2.570  23.860  0.00  0.00    +0.168 C 
BRANCH  23   1
ATOM      1  S   UNL     1      -5.647   1.879  25.144  0.00  0.00    -0.034 S 
ATOM      8  O   UNL     1      -5.527   2.726  26.318  0.00  0.00    -0.175 OA
ATOM      9  O   UNL     1      -6.953   1.566  24.588  0.00  0.00    -0.175 OA
ATOM     26  C   UNL     1      -4.837   0.339  25.509  0.00  0.00    +0.194 C 
ENDBRANCH  23   1
ENDBRANCH  21  23
ENDBRANCH  20  21
ENDBRANCH  11  20
ENDBRANCH  13  19
BRANCH  13   2
ATOM      2  O   UNL     1       0.515   2.025  26.336  0.00  0.00    -0.379 OA
ATOM     28  H   UNL     1       1.018   1.197  26.424  0.00  0.00    +0.211 HD
ENDBRANCH  13   2
BRANCH  17   3
ATOM      3  O   UNL     1       0.781  -2.085  24.454  0.00  0.00    -0.387 OA
ATOM     30  H   UNL     1       0.400  -2.740  23.843  0.00  0.00    +0.210 HD
ENDBRANCH  17   3
BRANCH  18   4
ATOM      4  O   UNL     1      -1.835  -1.452  25.379  0.00  0.00    -0.389 OA
ATOM     31  H   UNL     1      -2.666  -0.946  25.383  0.00  0.00    +0.210 HD
ENDBRANCH  18   4
TORSDOF 10
ENDMDL
MODEL 8
REMARK VINA RESULT:      -0.2      1.732      3.603
REMARK  Name = 11882434
REMARK  12 active torsions:
REMARK  status: ('A' for Active; 'I' for Inactive)
REMARK    1  A    between atoms: S_1  and  C_23
REMARK    2  A    between atoms: S_1  and  C_26
REMARK    3  A    between atoms: O_2  and  C_13
REMARK    4  A    between atoms: O_3  and  C_17
REMARK    5  A    between atoms: O_4  and  C_18
REMARK    6  A    between atoms: N_10  and  C_14
REMARK    7  A    between atoms: N_11  and  C_20
REMARK    8  A    between atoms: C_13  and  C_19
REMARK    9  A    between atoms: C_20  and  C_21
REMARK   10  A    between atoms: C_20  and  C_24
REMARK   11  A    between atoms: C_21  and  C_23
REMARK   12  A    between atoms: C_22  and  C_25
REMARK                            x       y       z     vdW  Elec       q    Type
REMARK                         _______ _______ _______ _____ _____    ______ ____
ROOT
ATOM     13  C   UNL     1      -1.006   2.638  25.269  0.00  0.00    +0.146 C 
ATOM     14  C   UNL     1      -3.397   3.309  25.805  0.00  0.00    +0.107 C 
ATOM     15  C   UNL     1      -2.486   2.283  25.121  0.00  0.00    +0.069 C 
ATOM     16  C   UNL     1      -0.723   4.056  24.776  0.00  0.00    +0.078 C 
ATOM     17  C   UNL     1      -3.103   4.739  25.332  0.00  0.00    +0.163 C 
ATOM     18  C   UNL     1      -1.618   5.092  25.458  0.00  0.00    +0.148 C 
ENDROOT
BRANCH  14  10
ATOM      6  O   UNL     1      -4.494   0.683  25.234  0.00  0.00    -0.276 OA
ATOM     10  N   UNL     1      -4.783   2.968  25.566  0.00  0.00    -0.310 N 
ATOM     22  C   UNL     1      -5.208   1.679  25.301  0.00  0.00    +0.210 C 
ATOM     25  C   UNL     1      -6.700   1.601  25.116  0.00  0.00    +0.109 C 
ATOM     27  H   UNL     1      -5.461   3.724  25.542  0.00  0.00    +0.149 HD
ENDBRANCH  14  10
BRANCH  13  19
ATOM      5  O   UNL     1       0.937   1.967  24.050  0.00  0.00    -0.273 OA
ATOM     11  N   UNL     1      -0.741   0.404  24.445  0.00  0.00    -0.302 N 
ATOM     19  C   UNL     1      -0.149   1.653  24.529  0.00  0.00    +0.245 C 
ATOM     29  H   UNL     1      -1.678   0.261  24.809  0.00  0.00    +0.150 HD
BRANCH  11  20
ATOM     20  C   UNL     1      -0.133  -0.716  23.764  0.00  0.00    +0.160 C 
BRANCH  20  24
ATOM      7  O   UNL     1      -1.503  -2.701  24.052  0.00  0.00    -0.274 OA
ATOM     12  N   UNL     1       0.149  -2.277  25.590  0.00  0.00    -0.328 N 
ATOM     24  C   UNL     1      -0.594  -1.985  24.466  0.00  0.00    +0.231 C 
ATOM     32  H   UNL     1      -0.045  -3.105  26.141  0.00  0.00    +0.145 HD
ATOM     33  H   UNL     1       0.901  -1.678  25.918  0.00  0.00    +0.145 HD
ENDBRANCH  20  24
BRANCH  20  21
ATOM     21  C   UNL     1       1.395  -0.627  23.764  0.00  0.00    +0.054 C 
BRANCH  21  23
ATOM     23  C   UNL     1       1.957  -0.297  22.387  0.00  0.00    +0.168 C 
BRANCH  23   1
ATOM      1  S   UNL     1       3.587   0.371  22.503  0.00  0.00    -0.034 S 
ATOM      8  O   UNL     1       4.194   0.321  21.184  0.00  0.00    -0.175 OA
ATOM      9  O   UNL     1       3.513   1.623  23.237  0.00  0.00    -0.175 OA
ATOM     26  C   UNL     1       4.439  -0.803  23.531  0.00  0.00    +0.194 C 
ENDBRANCH  23   1
ENDBRANCH  21  23
ENDBRANCH  20  21
ENDBRANCH  11  20
ENDBRANCH  13  19
BRANCH  13   2
ATOM      2  O   UNL     1      -0.600   2.529  26.629  0.00  0.00    -0.379 OA
ATOM     28  H   UNL     1      -0.227   1.642  26.768  0.00  0.00    +0.211 HD
ENDBRANCH  13   2
BRANCH  17   3
ATOM      3  O   UNL     1      -3.836   5.660  26.144  0.00  0.00    -0.387 OA
ATOM     30  H   UNL     1      -3.373   6.515  26.123  0.00  0.00    +0.210 HD
ENDBRANCH  17   3
BRANCH  18   4
ATOM      4  O   UNL     1      -1.403   6.363  24.844  0.00  0.00    -0.389 OA
ATOM     31  H   UNL     1      -0.589   6.298  24.317  0.00  0.00    +0.210 HD
ENDBRANCH  18   4
TORSDOF 10
ENDMDL
MODEL 9
REMARK VINA RESULT:      -0.1      2.609      6.842
REMARK  Name = 11882434
REMARK  12 active torsions:
REMARK  status: ('A' for Active; 'I' for Inactive)
REMARK    1  A    between atoms: S_1  and  C_23
REMARK    2  A    between atoms: S_1  and  C_26
REMARK    3  A    between atoms: O_2  and  C_13
REMARK    4  A    between atoms: O_3  and  C_17
REMARK    5  A    between atoms: O_4  and  C_18
REMARK    6  A    between atoms: N_10  and  C_14
REMARK    7  A    between atoms: N_11  and  C_20
REMARK    8  A    between atoms: C_13  and  C_19
REMARK    9  A    between atoms: C_20  and  C_21
REMARK   10  A    between atoms: C_20  and  C_24
REMARK   11  A    between atoms: C_21  and  C_23
REMARK   12  A    between atoms: C_22  and  C_25
REMARK                            x       y       z     vdW  Elec       q    Type
REMARK                         _______ _______ _______ _____ _____    ______ ____
ROOT
ATOM     13  C   UNL     1      -0.243   2.033  25.154  0.00  0.00    +0.146 C 
ATOM     14  C   UNL     1       1.425   0.548  23.943  0.00  0.00    +0.107 C 
ATOM     15  C   UNL     1       0.647   1.868  23.921  0.00  0.00    +0.069 C 
ATOM     16  C   UNL     1      -1.175   0.836  25.330  0.00  0.00    +0.078 C 
ATOM     17  C   UNL     1       0.499  -0.658  24.143  0.00  0.00    +0.163 C 
ATOM     18  C   UNL     1      -0.410  -0.489  25.364  0.00  0.00    +0.148 C 
ENDROOT
BRANCH  14  10
ATOM      6  O   UNL     1       4.288   0.886  23.600  0.00  0.00    -0.276 OA
ATOM     10  N   UNL     1       2.187   0.409  22.720  0.00  0.00    -0.310 N 
ATOM     22  C   UNL     1       3.556   0.591  22.659  0.00  0.00    +0.210 C 
ATOM     25  C   UNL     1       4.098   0.362  21.274  0.00  0.00    +0.109 C 
ATOM     27  H   UNL     1       1.677   0.219  21.862  0.00  0.00    +0.149 HD
ENDBRANCH  14  10
BRANCH  13  19
ATOM      5  O   UNL     1      -0.518   4.406  25.174  0.00  0.00    -0.273 OA
ATOM     11  N   UNL     1      -2.391   3.058  24.873  0.00  0.00    -0.302 N 
ATOM     19  C   UNL     1      -1.041   3.301  25.064  0.00  0.00    +0.245 C 
ATOM     29  H   UNL     1      -2.739   2.105  24.868  0.00  0.00    +0.150 HD
BRANCH  11  20
ATOM     20  C   UNL     1      -3.378   4.109  24.776  0.00  0.00    +0.160 C 
BRANCH  20  24
ATOM      7  O   UNL     1      -3.206   4.543  27.160  0.00  0.00    -0.274 OA
ATOM     12  N   UNL     1      -5.297   4.408  26.218  0.00  0.00    -0.328 N 
ATOM     24  C   UNL     1      -3.919   4.359  26.176  0.00  0.00    +0.231 C 
ATOM     32  H   UNL     1      -5.785   4.584  27.089  0.00  0.00    +0.145 HD
ATOM     33  H   UNL     1      -5.874   4.258  25.396  0.00  0.00    +0.145 HD
ENDBRANCH  20  24
BRANCH  20  21
ATOM     21  C   UNL     1      -4.514   3.744  23.818  0.00  0.00    +0.054 C 
BRANCH  21  23
ATOM     23  C   UNL     1      -4.435   2.296  23.350  0.00  0.00    +0.168 C 
BRANCH  23   1
ATOM      1  S   UNL     1      -5.043   1.189  24.583  0.00  0.00    -0.034 S 
ATOM      8  O   UNL     1      -4.908  -0.168  24.082  0.00  0.00    -0.175 OA
ATOM      9  O   UNL     1      -4.462   1.568  25.860  0.00  0.00    -0.175 OA
ATOM     26  C   UNL     1      -6.780   1.566  24.652  0.00  0.00    +0.194 C 
ENDBRANCH  23   1
ENDBRANCH  21  23
ENDBRANCH  20  21
ENDBRANCH  11  20
ENDBRANCH  13  19
BRANCH  13   2
ATOM      2  O   UNL     1       0.551   2.181  26.327  0.00  0.00    -0.379 OA
ATOM     28  H   UNL     1       0.566   3.122  26.571  0.00  0.00    +0.211 HD
ENDBRANCH  13   2
BRANCH  17   3
ATOM      3  O   UNL     1       1.293  -1.828  24.355  0.00  0.00    -0.387 OA
ATOM     30  H   UNL     1       0.981  -2.518  23.745  0.00  0.00    +0.210 HD
ENDBRANCH  17   3
BRANCH  18   4
ATOM      4  O   UNL     1      -1.350  -1.563  25.380  0.00  0.00    -0.389 OA
ATOM     31  H   UNL     1      -1.732  -1.630  24.488  0.00  0.00    +0.210 HD
ENDBRANCH  18   4
TORSDOF 10
ENDMDL
MODEL 10
REMARK VINA RESULT:      -0.1      2.329      6.137
REMARK  Name = 11882434
REMARK  12 active torsions:
REMARK  status: ('A' for Active; 'I' for Inactive)
REMARK    1  A    between atoms: S_1  and  C_23
REMARK    2  A    between atoms: S_1  and  C_26
REMARK    3  A    between atoms: O_2  and  C_13
REMARK    4  A    between atoms: O_3  and  C_17
REMARK    5  A    between atoms: O_4  and  C_18
REMARK    6  A    between atoms: N_10  and  C_14
REMARK    7  A    between atoms: N_11  and  C_20
REMARK    8  A    between atoms: C_13  and  C_19
REMARK    9  A    between atoms: C_20  and  C_21
REMARK   10  A    between atoms: C_20  and  C_24
REMARK   11  A    between atoms: C_21  and  C_23
REMARK   12  A    between atoms: C_22  and  C_25
REMARK                            x       y       z     vdW  Elec       q    Type
REMARK                         _______ _______ _______ _____ _____    ______ ____
ROOT
ATOM     13  C   UNL     1      -0.776   1.691  25.629  0.00  0.00    +0.146 C 
ATOM     14  C   UNL     1       0.769   0.117  24.367  0.00  0.00    +0.107 C 
ATOM     15  C   UNL     1       0.025   1.457  24.346  0.00  0.00    +0.069 C 
ATOM     16  C   UNL     1      -1.723   0.527  25.912  0.00  0.00    +0.078 C 
ATOM     17  C   UNL     1      -0.172  -1.055  24.674  0.00  0.00    +0.163 C 
ATOM     18  C   UNL     1      -0.992  -0.816  25.945  0.00  0.00    +0.148 C 
ENDROOT
BRANCH  14  10
ATOM      6  O   UNL     1       3.348   1.172  23.551  0.00  0.00    -0.276 OA
ATOM     10  N   UNL     1       1.442  -0.088  23.103  0.00  0.00    -0.310 N 
ATOM     22  C   UNL     1       2.677   0.461  22.808  0.00  0.00    +0.210 C 
ATOM     25  C   UNL     1       3.158   0.070  21.436  0.00  0.00    +0.109 C 
ATOM     27  H   UNL     1       0.955  -0.616  22.385  0.00  0.00    +0.149 HD
ENDBRANCH  14  10
BRANCH  13  19
ATOM      5  O   UNL     1      -1.001   4.069  25.673  0.00  0.00    -0.273 OA
ATOM     11  N   UNL     1      -2.898   2.764  25.333  0.00  0.00    -0.302 N 
ATOM     19  C   UNL     1      -1.546   2.976  25.544  0.00  0.00    +0.245 C 
ATOM     29  H   UNL     1      -3.265   1.819  25.314  0.00  0.00    +0.150 HD
BRANCH  11  20
ATOM     20  C   UNL     1      -3.861   3.837  25.237  0.00  0.00    +0.160 C 
BRANCH  20  24
ATOM      7  O   UNL     1      -5.423   2.083  25.858  0.00  0.00    -0.274 OA
ATOM     12  N   UNL     1      -6.172   4.253  25.817  0.00  0.00    -0.328 N 
ATOM     24  C   UNL     1      -5.214   3.276  25.650  0.00  0.00    +0.231 C 
ATOM     32  H   UNL     1      -7.114   4.015  26.107  0.00  0.00    +0.145 HD
ATOM     33  H   UNL     1      -5.985   5.236  25.646  0.00  0.00    +0.145 HD
ENDBRANCH  20  24
BRANCH  20  21
ATOM     21  C   UNL     1      -3.931   4.421  23.824  0.00  0.00    +0.054 C 
BRANCH  21  23
ATOM     23  C   UNL     1      -4.304   3.374  22.782  0.00  0.00    +0.168 C 
BRANCH  23   1
ATOM      1  S   UNL     1      -2.877   2.516  22.196  0.00  0.00    -0.034 S 
ATOM      8  O   UNL     1      -2.971   2.411  20.750  0.00  0.00    -0.175 OA
ATOM      9  O   UNL     1      -1.704   3.105  22.820  0.00  0.00    -0.175 OA
ATOM     26  C   UNL     1      -3.077   0.881  22.867  0.00  0.00    +0.194 C 
ENDBRANCH  23   1
ENDBRANCH  21  23
ENDBRANCH  20  21
ENDBRANCH  11  20
ENDBRANCH  13  19
BRANCH  13   2
ATOM      2  O   UNL     1       0.099   1.859  26.739  0.00  0.00    -0.379 OA
ATOM     28  H   UNL     1       0.316   0.980  27.095  0.00  0.00    +0.211 HD
ENDBRANCH  13   2
BRANCH  17   3
ATOM      3  O   UNL     1       0.604  -2.238  24.877  0.00  0.00    -0.387 OA
ATOM     30  H   UNL     1       1.081  -2.431  24.051  0.00  0.00    +0.210 HD
ENDBRANCH  17   3
BRANCH  18   4
ATOM      4  O   UNL     1      -1.955  -1.863  26.064  0.00  0.00    -0.389 OA
ATOM     31  H   UNL     1      -2.041  -2.074  27.010  0.00  0.00    +0.210 HD
ENDBRANCH  18   4
TORSDOF 10
ENDMDL
