MODEL 1
REMARK VINA RESULT:      16.5      0.000      0.000
REMARK  Name = 7155478
REMARK  4 active torsions:
REMARK  status: ('A' for Active; 'I' for Inactive)
REMARK    1  A    between atoms: N_6  and  C_18
REMARK    2  A    between atoms: C_17  and  C_20
REMARK    3  A    between atoms: C_24  and  C_28
REMARK    4  A    between atoms: C_36  and  C_37
REMARK                            x       y       z     vdW  Elec       q    Type
REMARK                         _______ _______ _______ _____ _____    ______ ____
ROOT
ATOM      1  O   UNL     1      -0.019   3.102  25.574  0.00  0.00    -0.266 OA
ATOM      2  O   UNL     1      -4.143   0.462  27.248  0.00  0.00    -0.270 OA
ATOM      4  N   UNL     1      -4.838   1.814  25.469  0.00  0.00    -0.297 N 
ATOM      5  N   UNL     1      -2.116   3.155  24.547  0.00  0.00    -0.310 N 
ATOM      8  C   UNL     1      -4.175   4.205  25.653  0.00  0.00    +0.027 C 
ATOM      9  C   UNL     1      -4.377   3.158  23.433  0.00  0.00    +0.054 C 
ATOM     10  C   UNL     1      -4.649   4.438  24.222  0.00  0.00    +0.018 C 
ATOM     11  C   UNL     1      -4.935   3.024  26.284  0.00  0.00    +0.113 C 
ATOM     12  C   UNL     1      -2.658   3.975  25.639  0.00  0.00    +0.130 C 
ATOM     13  C   UNL     1      -5.178   1.993  24.048  0.00  0.00    +0.117 C 
ATOM     14  C   UNL     1      -2.898   2.819  23.436  0.00  0.00    +0.027 A 
ATOM     15  C   UNL     1      -2.352   2.169  22.396  0.00  0.00    +0.024 A 
ATOM     16  C   UNL     1      -0.751   2.814  24.627  0.00  0.00    +0.273 A 
ATOM     17  C   UNL     1      -4.427   0.618  26.062  0.00  0.00    +0.247 C 
ATOM     18  C   UNL     1      -0.187   2.065  23.460  0.00  0.00    +0.099 A 
ATOM     19  C   UNL     1      -0.968   1.784  22.411  0.00  0.00    +0.030 A 
ENDROOT
BRANCH  17  20
ATOM     20  C   UNL     1      -4.299  -0.565  25.205  0.00  0.00    +0.037 A 
ATOM     21  C   UNL     1      -3.066  -1.202  25.083  0.00  0.00    +0.021 A 
ATOM     22  C   UNL     1      -5.408  -1.045  24.518  0.00  0.00    +0.013 A 
ATOM     23  C   UNL     1      -2.927  -2.336  24.265  0.00  0.00    -0.017 A 
ATOM     25  C   UNL     1      -5.288  -2.170  23.703  0.00  0.00    +0.009 A 
ATOM     26  C   UNL     1      -4.054  -2.827  23.565  0.00  0.00    -0.018 A 
ATOM     27  C   UNL     1      -1.694  -2.993  24.129  0.00  0.00    +0.008 A 
ATOM     29  C   UNL     1      -3.915  -3.961  22.748  0.00  0.00    +0.008 A 
ATOM     30  C   UNL     1      -1.573  -4.119  23.313  0.00  0.00    +0.001 A 
ATOM     31  C   UNL     1      -2.682  -4.602  22.624  0.00  0.00    +0.001 A 
ENDBRANCH  17  20
BRANCH  18   6
ATOM      3  O   UNL     1       0.895  -0.447  22.643  0.00  0.00    -0.270 OA
ATOM      6  N   UNL     1       1.126   1.700  23.508  0.00  0.00    -0.277 N 
ATOM     24  C   UNL     1       1.591   0.459  23.094  0.00  0.00    +0.248 C 
ATOM     38  H   UNL     1       1.734   2.341  24.006  0.00  0.00    +0.155 HD
BRANCH  24  28
ATOM     28  C   UNL     1       3.059   0.253  23.201  0.00  0.00    +0.037 A 
ATOM     32  C   UNL     1       3.530  -0.976  23.615  0.00  0.00    +0.014 A 
ATOM     33  C   UNL     1       3.903   1.296  22.883  0.00  0.00    +0.014 A 
ATOM     34  C   UNL     1       4.907  -1.170  23.716  0.00  0.00    +0.019 A 
ATOM     35  C   UNL     1       5.280   1.102  22.984  0.00  0.00    +0.019 A 
ATOM     36  C   UNL     1       5.782  -0.130  23.400  0.00  0.00    +0.052 A 
BRANCH  36  37
ATOM      7  N   UNL     1       8.341  -0.488  23.589  0.00  0.00    -0.191 NA
ATOM     37  C   UNL     1       7.194  -0.328  23.504  0.00  0.00    +0.099 C 
ENDBRANCH  36  37
ENDBRANCH  24  28
ENDBRANCH  18   6
TORSDOF 4
ENDMDL
MODEL 2
REMARK VINA RESULT:      17.9      1.947      5.205
REMARK  Name = 7155478
REMARK  4 active torsions:
REMARK  status: ('A' for Active; 'I' for Inactive)
REMARK    1  A    between atoms: N_6  and  C_18
REMARK    2  A    between atoms: C_17  and  C_20
REMARK    3  A    between atoms: C_24  and  C_28
REMARK    4  A    between atoms: C_36  and  C_37
REMARK                            x       y       z     vdW  Elec       q    Type
REMARK                         _______ _______ _______ _____ _____    ______ ____
ROOT
ATOM      1  O   UNL     1       0.034  -2.631  23.175  0.00  0.00    -0.266 OA
ATOM      2  O   UNL     1      -3.912   0.409  21.774  0.00  0.00    -0.270 OA
ATOM      4  N   UNL     1      -4.435  -0.520  23.856  0.00  0.00    -0.297 N 
ATOM      5  N   UNL     1      -1.808  -2.163  24.533  0.00  0.00    -0.310 N 
ATOM      8  C   UNL     1      -4.172  -2.991  23.994  0.00  0.00    +0.027 C 
ATOM      9  C   UNL     1      -3.785  -1.606  25.992  0.00  0.00    +0.054 C 
ATOM     10  C   UNL     1      -4.387  -2.922  25.503  0.00  0.00    +0.018 C 
ATOM     11  C   UNL     1      -4.862  -1.803  23.298  0.00  0.00    +0.113 C 
ATOM     12  C   UNL     1      -2.665  -3.030  23.711  0.00  0.00    +0.130 C 
ATOM     13  C   UNL     1      -4.514  -0.424  25.323  0.00  0.00    +0.117 C 
ATOM     14  C   UNL     1      -2.302  -1.535  25.681  0.00  0.00    +0.027 A 
ATOM     15  C   UNL     1      -1.475  -0.842  26.481  0.00  0.00    +0.024 A 
ATOM     16  C   UNL     1      -0.450  -2.081  24.165  0.00  0.00    +0.273 A 
ATOM     17  C   UNL     1      -3.979   0.484  22.999  0.00  0.00    +0.247 C 
ATOM     18  C   UNL     1       0.433  -1.277  25.068  0.00  0.00    +0.099 A 
ATOM     19  C   UNL     1      -0.080  -0.711  26.165  0.00  0.00    +0.030 A 
ENDROOT
BRANCH  17  20
ATOM     20  C   UNL     1      -3.517   1.741  23.597  0.00  0.00    +0.037 A 
ATOM     21  C   UNL     1      -2.170   2.086  23.530  0.00  0.00    +0.021 A 
ATOM     22  C   UNL     1      -4.427   2.581  24.228  0.00  0.00    +0.013 A 
ATOM     23  C   UNL     1      -1.711   3.285  24.099  0.00  0.00    -0.017 A 
ATOM     25  C   UNL     1      -3.989   3.776  24.798  0.00  0.00    +0.009 A 
ATOM     26  C   UNL     1      -2.635   4.144  24.742  0.00  0.00    -0.018 A 
ATOM     27  C   UNL     1      -0.357   3.652  24.042  0.00  0.00    +0.008 A 
ATOM     29  C   UNL     1      -2.177   5.344  25.310  0.00  0.00    +0.008 A 
ATOM     30  C   UNL     1       0.080   4.849  24.612  0.00  0.00    +0.001 A 
ATOM     31  C   UNL     1      -0.827   5.693  25.244  0.00  0.00    +0.001 A 
ENDBRANCH  17  20
BRANCH  18   6
ATOM      3  O   UNL     1       1.493   0.246  22.899  0.00  0.00    -0.270 OA
ATOM      6  N   UNL     1       1.750  -1.159  24.736  0.00  0.00    -0.277 N 
ATOM     24  C   UNL     1       2.204  -0.400  23.665  0.00  0.00    +0.248 C 
ATOM     38  H   UNL     1       2.377  -1.782  25.232  0.00  0.00    +0.155 HD
BRANCH  24  28
ATOM     28  C   UNL     1       3.677  -0.374  23.473  0.00  0.00    +0.037 A 
ATOM     32  C   UNL     1       4.249   0.718  22.853  0.00  0.00    +0.014 A 
ATOM     33  C   UNL     1       4.426  -1.442  23.921  0.00  0.00    +0.014 A 
ATOM     34  C   UNL     1       5.631   0.742  22.672  0.00  0.00    +0.019 A 
ATOM     35  C   UNL     1       5.808  -1.417  23.740  0.00  0.00    +0.019 A 
ATOM     36  C   UNL     1       6.411  -0.326  23.116  0.00  0.00    +0.052 A 
BRANCH  36  37
ATOM      7  N   UNL     1       8.980  -0.283  22.779  0.00  0.00    -0.191 NA
ATOM     37  C   UNL     1       7.828  -0.302  22.930  0.00  0.00    +0.099 C 
ENDBRANCH  36  37
ENDBRANCH  24  28
ENDBRANCH  18   6
TORSDOF 4
ENDMDL
