MODEL 1
REMARK VINA RESULT:       6.4      0.000      0.000
REMARK  Name = 71694004
REMARK  8 active torsions:
REMARK  status: ('A' for Active; 'I' for Inactive)
REMARK    1  A    between atoms: O_1  and  C_11
REMARK    2  A    between atoms: O_2  and  C_13
REMARK    3  A    between atoms: O_5  and  C_27
REMARK    4  A    between atoms: O_5  and  C_30
REMARK    5  A    between atoms: N_6  and  C_10
REMARK    6  A    between atoms: N_8  and  C_19
REMARK    7  A    between atoms: C_9  and  C_14
REMARK    8  A    between atoms: C_17  and  C_20
REMARK                            x       y       z     vdW  Elec       q    Type
REMARK                         _______ _______ _______ _____ _____    ______ ____
ROOT
ATOM      9  C   UNL     1      -1.989  -1.070  23.928  0.00  0.00    +0.046 C 
ATOM     10  C   UNL     1      -2.535  -0.723  25.332  0.00  0.00    +0.112 C 
ATOM     11  C   UNL     1      -3.736  -1.654  25.486  0.00  0.00    +0.164 C 
ATOM     12  C   UNL     1      -2.489  -2.506  23.623  0.00  0.00    +0.044 C 
ATOM     13  C   UNL     1      -3.245  -2.959  24.871  0.00  0.00    +0.145 C 
ENDROOT
BRANCH   9  14
ATOM      7  N   UNL     1       1.725  -1.556  24.518  0.00  0.00    -0.240 NA
ATOM     14  C   UNL     1      -0.490  -0.894  23.814  0.00  0.00    -0.024 A 
ATOM     15  C   UNL     1       0.058   0.048  22.950  0.00  0.00    +0.009 A 
ATOM     16  C   UNL     1       0.378  -1.664  24.569  0.00  0.00    +0.116 A 
ATOM     18  C   UNL     1       1.439   0.187  22.868  0.00  0.00    +0.044 A 
ATOM     19  C   UNL     1       2.222  -0.631  23.667  0.00  0.00    +0.121 A 
BRANCH  19   8
ATOM      4  O   UNL     1       6.373  -0.244  23.122  0.00  0.00    -0.377 OA
ATOM      8  N   UNL     1       3.610  -0.478  23.575  0.00  0.00    -0.311 N 
ATOM     21  C   UNL     1       4.133   0.596  22.721  0.00  0.00    +0.134 C 
ATOM     22  C   UNL     1       4.485  -1.647  23.716  0.00  0.00    +0.134 C 
ATOM     23  C   UNL     1       5.562   0.931  23.134  0.00  0.00    +0.178 C 
ATOM     24  C   UNL     1       5.896  -1.192  24.075  0.00  0.00    +0.178 C 
ENDBRANCH  19   8
ENDBRANCH   9  14
BRANCH  10   6
ATOM      3  O   UNL     1      -5.081   0.420  24.656  0.00  0.00    -0.270 OA
ATOM      6  N   UNL     1      -2.911   0.664  25.438  0.00  0.00    -0.305 N 
ATOM     17  C   UNL     1      -4.172   1.125  25.085  0.00  0.00    +0.244 C 
ATOM     31  H   UNL     1      -2.200   1.309  25.763  0.00  0.00    +0.149 HD
BRANCH  17  20
ATOM     20  C   UNL     1      -4.394   2.588  25.227  0.00  0.00    +0.040 A 
ATOM     25  C   UNL     1      -3.308   3.463  25.209  0.00  0.00    +0.058 A 
ATOM     26  C   UNL     1      -5.689   3.085  25.377  0.00  0.00    +0.013 A 
ATOM     27  C   UNL     1      -3.517   4.836  25.342  0.00  0.00    +0.121 A 
ATOM     28  C   UNL     1      -5.898   4.458  25.510  0.00  0.00    +0.004 A 
ATOM     29  C   UNL     1      -4.812   5.333  25.491  0.00  0.00    +0.045 A 
BRANCH  27   5
ATOM      5  O   UNL     1      -2.458   5.691  25.325  0.00  0.00    -0.495 OA
ATOM     30  C   UNL     1      -1.172   5.125  25.074  0.00  0.00    +0.277 C 
ENDBRANCH  27   5
ENDBRANCH  17  20
ENDBRANCH  10   6
BRANCH  11   1
ATOM      1  O   UNL     1      -4.104  -1.835  26.841  0.00  0.00    -0.387 OA
ATOM     32  H   UNL     1      -3.304  -1.711  27.380  0.00  0.00    +0.210 HD
ENDBRANCH  11   1
BRANCH  13   2
ATOM      2  O   UNL     1      -2.334  -3.622  25.741  0.00  0.00    -0.389 OA
ATOM     33  H   UNL     1      -2.343  -3.148  26.590  0.00  0.00    +0.210 HD
ENDBRANCH  13   2
TORSDOF 7
ENDMDL
MODEL 2
REMARK VINA RESULT:       6.7      1.171      1.950
REMARK  Name = 71694004
REMARK  8 active torsions:
REMARK  status: ('A' for Active; 'I' for Inactive)
REMARK    1  A    between atoms: O_1  and  C_11
REMARK    2  A    between atoms: O_2  and  C_13
REMARK    3  A    between atoms: O_5  and  C_27
REMARK    4  A    between atoms: O_5  and  C_30
REMARK    5  A    between atoms: N_6  and  C_10
REMARK    6  A    between atoms: N_8  and  C_19
REMARK    7  A    between atoms: C_9  and  C_14
REMARK    8  A    between atoms: C_17  and  C_20
REMARK                            x       y       z     vdW  Elec       q    Type
REMARK                         _______ _______ _______ _____ _____    ______ ____
ROOT
ATOM      9  C   UNL     1      -1.808  -1.046  23.810  0.00  0.00    +0.046 C 
ATOM     10  C   UNL     1      -2.380  -0.576  25.167  0.00  0.00    +0.112 C 
ATOM     11  C   UNL     1      -3.613  -1.457  25.357  0.00  0.00    +0.164 C 
ATOM     12  C   UNL     1      -2.344  -2.485  23.600  0.00  0.00    +0.044 C 
ATOM     13  C   UNL     1      -3.147  -2.820  24.856  0.00  0.00    +0.145 C 
ENDROOT
BRANCH   9  14
ATOM      7  N   UNL     1       1.873  -1.598  24.539  0.00  0.00    -0.240 NA
ATOM     14  C   UNL     1      -0.302  -0.923  23.727  0.00  0.00    -0.024 A 
ATOM     15  C   UNL     1       0.299  -0.063  22.814  0.00  0.00    +0.009 A 
ATOM     16  C   UNL     1       0.522  -1.662  24.559  0.00  0.00    +0.116 A 
ATOM     18  C   UNL     1       1.685   0.030  22.762  0.00  0.00    +0.044 A 
ATOM     19  C   UNL     1       2.420  -0.752  23.639  0.00  0.00    +0.121 A 
BRANCH  19   8
ATOM      4  O   UNL     1       6.593  -0.507  23.180  0.00  0.00    -0.377 OA
ATOM      8  N   UNL     1       3.814  -0.647  23.576  0.00  0.00    -0.311 N 
ATOM     21  C   UNL     1       4.392   0.415  22.742  0.00  0.00    +0.134 C 
ATOM     22  C   UNL     1       4.645  -1.847  23.725  0.00  0.00    +0.134 C 
ATOM     23  C   UNL     1       5.824   0.696  23.186  0.00  0.00    +0.178 C 
ATOM     24  C   UNL     1       6.063  -1.445  24.115  0.00  0.00    +0.178 C 
ENDBRANCH  19   8
ENDBRANCH   9  14
BRANCH  10   6
ATOM      3  O   UNL     1      -0.578   1.621  25.585  0.00  0.00    -0.270 OA
ATOM      6  N   UNL     1      -2.715   0.825  25.157  0.00  0.00    -0.305 N 
ATOM     17  C   UNL     1      -1.771   1.820  25.370  0.00  0.00    +0.244 C 
ATOM     31  H   UNL     1      -3.689   1.063  25.010  0.00  0.00    +0.149 HD
BRANCH  17  20
ATOM     20  C   UNL     1      -2.282   3.216  25.356  0.00  0.00    +0.040 A 
ATOM     25  C   UNL     1      -3.653   3.458  25.441  0.00  0.00    +0.058 A 
ATOM     26  C   UNL     1      -1.389   4.284  25.259  0.00  0.00    +0.013 A 
ATOM     27  C   UNL     1      -4.131   4.768  25.428  0.00  0.00    +0.121 A 
ATOM     28  C   UNL     1      -1.867   5.594  25.246  0.00  0.00    +0.004 A 
ATOM     29  C   UNL     1      -3.239   5.836  25.331  0.00  0.00    +0.045 A 
BRANCH  27   5
ATOM      5  O   UNL     1      -5.469   5.006  25.511  0.00  0.00    -0.495 OA
ATOM     30  C   UNL     1      -6.324   3.868  25.622  0.00  0.00    +0.277 C 
ENDBRANCH  27   5
ENDBRANCH  17  20
ENDBRANCH  10   6
BRANCH  11   1
ATOM      1  O   UNL     1      -4.023  -1.524  26.710  0.00  0.00    -0.387 OA
ATOM     32  H   UNL     1      -3.279  -1.218  27.256  0.00  0.00    +0.210 HD
ENDBRANCH  11   1
BRANCH  13   2
ATOM      2  O   UNL     1      -2.280  -3.441  25.800  0.00  0.00    -0.389 OA
ATOM     33  H   UNL     1      -2.815  -3.674  26.578  0.00  0.00    +0.210 HD
ENDBRANCH  13   2
TORSDOF 7
ENDMDL
MODEL 3
REMARK VINA RESULT:       7.6      1.900      7.816
REMARK  Name = 71694004
REMARK  8 active torsions:
REMARK  status: ('A' for Active; 'I' for Inactive)
REMARK    1  A    between atoms: O_1  and  C_11
REMARK    2  A    between atoms: O_2  and  C_13
REMARK    3  A    between atoms: O_5  and  C_27
REMARK    4  A    between atoms: O_5  and  C_30
REMARK    5  A    between atoms: N_6  and  C_10
REMARK    6  A    between atoms: N_8  and  C_19
REMARK    7  A    between atoms: C_9  and  C_14
REMARK    8  A    between atoms: C_17  and  C_20
REMARK                            x       y       z     vdW  Elec       q    Type
REMARK                         _______ _______ _______ _____ _____    ______ ____
ROOT
ATOM      9  C   UNL     1      -2.146  -1.326  25.431  0.00  0.00    +0.046 C 
ATOM     10  C   UNL     1      -1.485  -1.818  24.124  0.00  0.00    +0.112 C 
ATOM     11  C   UNL     1      -1.592  -3.339  24.223  0.00  0.00    +0.164 C 
ATOM     12  C   UNL     1      -3.084  -2.472  25.889  0.00  0.00    +0.044 C 
ATOM     13  C   UNL     1      -2.982  -3.551  24.812  0.00  0.00    +0.145 C 
ENDROOT
BRANCH   9  14
ATOM      7  N   UNL     1      -2.656   2.427  25.221  0.00  0.00    -0.240 NA
ATOM     14  C   UNL     1      -2.830   0.016  25.281  0.00  0.00    -0.024 A 
ATOM     15  C   UNL     1      -4.203   0.103  25.077  0.00  0.00    +0.009 A 
ATOM     16  C   UNL     1      -2.108   1.197  25.344  0.00  0.00    +0.116 A 
ATOM     18  C   UNL     1      -4.803   1.350  24.943  0.00  0.00    +0.044 A 
ATOM     19  C   UNL     1      -3.992   2.471  25.023  0.00  0.00    +0.121 A 
BRANCH  19   8
ATOM      4  O   UNL     1      -6.048   6.097  24.466  0.00  0.00    -0.377 OA
ATOM      8  N   UNL     1      -4.611   3.720  24.888  0.00  0.00    -0.311 N 
ATOM     21  C   UNL     1      -5.927   3.912  25.511  0.00  0.00    +0.134 C 
ATOM     22  C   UNL     1      -4.358   4.536  23.696  0.00  0.00    +0.134 C 
ATOM     23  C   UNL     1      -6.193   5.401  25.704  0.00  0.00    +0.178 C 
ATOM     24  C   UNL     1      -4.709   5.991  23.985  0.00  0.00    +0.178 C 
ENDBRANCH  19   8
ENDBRANCH   9  14
BRANCH  10   6
ATOM      3  O   UNL     1      -0.516   0.411  22.596  0.00  0.00    -0.270 OA
ATOM      6  N   UNL     1      -0.116  -1.381  24.013  0.00  0.00    -0.305 N 
ATOM     17  C   UNL     1       0.258  -0.286  23.246  0.00  0.00    +0.244 C 
ATOM     31  H   UNL     1       0.582  -1.927  24.505  0.00  0.00    +0.149 HD
BRANCH  17  20
ATOM     20  C   UNL     1       1.712   0.019  23.212  0.00  0.00    +0.040 A 
ATOM     25  C   UNL     1       2.639  -0.966  23.553  0.00  0.00    +0.058 A 
ATOM     26  C   UNL     1       2.150   1.290  22.839  0.00  0.00    +0.013 A 
ATOM     27  C   UNL     1       4.004  -0.679  23.520  0.00  0.00    +0.121 A 
ATOM     28  C   UNL     1       3.514   1.577  22.807  0.00  0.00    +0.004 A 
ATOM     29  C   UNL     1       4.442   0.592  23.147  0.00  0.00    +0.045 A 
BRANCH  27   5
ATOM      5  O   UNL     1       4.911  -1.639  23.852  0.00  0.00    -0.495 OA
ATOM     30  C   UNL     1       6.198  -1.194  24.280  0.00  0.00    +0.277 C 
ENDBRANCH  27   5
ENDBRANCH  17  20
ENDBRANCH  10   6
BRANCH  11   1
ATOM      1  O   UNL     1      -1.471  -3.968  22.961  0.00  0.00    -0.387 OA
ATOM     32  H   UNL     1      -0.808  -3.475  22.450  0.00  0.00    +0.210 HD
ENDBRANCH  11   1
BRANCH  13   2
ATOM      2  O   UNL     1      -3.991  -3.317  23.835  0.00  0.00    -0.389 OA
ATOM     33  H   UNL     1      -4.787  -3.014  24.305  0.00  0.00    +0.210 HD
ENDBRANCH  13   2
TORSDOF 7
ENDMDL
