MODEL 1
REMARK VINA RESULT:      16.2      0.000      0.000
REMARK  Name = 7135474
REMARK  6 active torsions:
REMARK  status: ('A' for Active; 'I' for Inactive)
REMARK    1  A    between atoms: O_3  and  C_21
REMARK    2  A    between atoms: C_10  and  C_15
REMARK    3  A    between atoms: C_10  and  C_16
REMARK    4  A    between atoms: C_15  and  C_17
REMARK    5  A    between atoms: C_16  and  C_21
REMARK    6  A    between atoms: C_29  and  C_31
REMARK                            x       y       z     vdW  Elec       q    Type
REMARK                         _______ _______ _______ _____ _____    ______ ____
ROOT
ATOM      2  O   UNL     1      -3.337   0.590  26.128  0.00  0.00    -0.276 OA
ATOM      5  O   UNL     1      -0.802  -1.050  23.585  0.00  0.00    -0.273 OA
ATOM      6  O   UNL     1       2.799   2.739  22.778  0.00  0.00    -0.270 OA
ATOM      7  N   UNL     1      -1.679   1.539  24.803  0.00  0.00    -0.298 N 
ATOM      8  N   UNL     1       1.063   1.656  23.856  0.00  0.00    -0.283 N 
ATOM      9  N   UNL     1       1.429  -1.196  23.158  0.00  0.00    -0.283 N 
ATOM     17  C   UNL     1      -3.003   1.300  25.177  0.00  0.00    +0.216 C 
ATOM     18  C   UNL     1      -0.591   0.922  25.565  0.00  0.00    +0.139 C 
ATOM     19  C   UNL     1       0.619   0.553  24.697  0.00  0.00    +0.180 C 
ATOM     20  C   UNL     1      -1.294   2.385  23.670  0.00  0.00    +0.127 C 
ATOM     22  C   UNL     1       0.166   2.806  23.730  0.00  0.00    +0.128 C 
ATOM     23  C   UNL     1       0.335  -0.603  23.752  0.00  0.00    +0.239 C 
ATOM     24  C   UNL     1       2.347   1.732  23.327  0.00  0.00    +0.249 C 
ATOM     25  C   UNL     1       3.225   0.532  23.390  0.00  0.00    +0.059 A 
ATOM     26  C   UNL     1       2.777  -0.786  23.208  0.00  0.00    +0.046 A 
ATOM     27  C   UNL     1       4.607   0.788  23.460  0.00  0.00    +0.023 A 
ATOM     28  C   UNL     1       3.727  -1.807  23.029  0.00  0.00    +0.024 A 
ATOM     29  C   UNL     1       5.534  -0.245  23.330  0.00  0.00    -0.017 A 
ATOM     30  C   UNL     1       5.094  -1.542  23.100  0.00  0.00    +0.010 A 
ATOM     35  H   UNL     1       1.252  -2.093  22.712  0.00  0.00    +0.155 HD
ENDROOT
BRANCH  29  31
ATOM      1  S   UNL     1       9.117   1.234  24.068  0.00  0.00    -0.104 S 
ATOM     31  C   UNL     1       6.940   0.035  23.407  0.00  0.00    -0.011 A 
ATOM     32  C   UNL     1       8.001  -0.697  22.793  0.00  0.00    +0.016 A 
ATOM     33  C   UNL     1       7.410   1.111  24.130  0.00  0.00    +0.053 A 
ATOM     34  C   UNL     1       9.236  -0.154  23.072  0.00  0.00    +0.046 A 
ENDBRANCH  29  31
BRANCH  17  15
ATOM     15  C   UNL     1      -4.063   1.976  24.341  0.00  0.00    +0.103 C 
BRANCH  15  10
ATOM     10  C   UNL     1      -4.364   3.370  24.906  0.00  0.00    -0.011 C 
ATOM     11  C   UNL     1      -3.948   4.468  23.901  0.00  0.00    +0.008 C 
ATOM     12  C   UNL     1      -3.512   3.635  26.170  0.00  0.00    +0.008 C 
ATOM     13  C   UNL     1      -2.637   5.025  24.437  0.00  0.00    +0.001 C 
ATOM     14  C   UNL     1      -2.842   4.984  25.941  0.00  0.00    +0.001 C 
BRANCH  10  16
ATOM     16  C   UNL     1      -5.861   3.471  25.221  0.00  0.00    +0.127 C 
BRANCH  16  21
ATOM      4  O   UNL     1      -6.781   1.265  24.738  0.00  0.00    -0.251 OA
ATOM     21  C   UNL     1      -6.445   2.126  25.538  0.00  0.00    +0.305 C 
BRANCH  21   3
ATOM      3  O   UNL     1      -6.553   1.987  26.885  0.00  0.00    -0.481 OA
ATOM     36  H   UNL     1      -6.830   2.822  27.318  0.00  0.00    +0.295 HD
ENDBRANCH  21   3
ENDBRANCH  16  21
ENDBRANCH  10  16
ENDBRANCH  15  10
ENDBRANCH  17  15
TORSDOF 6
ENDMDL
MODEL 2
REMARK VINA RESULT:      17.4      1.475      2.423
REMARK  Name = 7135474
REMARK  6 active torsions:
REMARK  status: ('A' for Active; 'I' for Inactive)
REMARK    1  A    between atoms: O_3  and  C_21
REMARK    2  A    between atoms: C_10  and  C_15
REMARK    3  A    between atoms: C_10  and  C_16
REMARK    4  A    between atoms: C_15  and  C_17
REMARK    5  A    between atoms: C_16  and  C_21
REMARK    6  A    between atoms: C_29  and  C_31
REMARK                            x       y       z     vdW  Elec       q    Type
REMARK                         _______ _______ _______ _____ _____    ______ ____
ROOT
ATOM      2  O   UNL     1      -2.785   2.879  26.914  0.00  0.00    -0.276 OA
ATOM      5  O   UNL     1      -1.056   0.171  24.620  0.00  0.00    -0.273 OA
ATOM      6  O   UNL     1       2.922   2.808  22.340  0.00  0.00    -0.270 OA
ATOM      7  N   UNL     1      -1.258   3.105  25.176  0.00  0.00    -0.298 N 
ATOM      8  N   UNL     1       1.251   2.411  23.889  0.00  0.00    -0.283 N 
ATOM      9  N   UNL     1       1.006  -0.537  23.967  0.00  0.00    -0.283 N 
ATOM     17  C   UNL     1      -2.513   3.247  25.768  0.00  0.00    +0.216 C 
ATOM     18  C   UNL     1      -0.168   2.482  25.933  0.00  0.00    +0.139 C 
ATOM     19  C   UNL     1       0.788   1.667  25.052  0.00  0.00    +0.180 C 
ATOM     20  C   UNL     1      -0.947   3.546  23.813  0.00  0.00    +0.127 C 
ATOM     22  C   UNL     1       0.551   3.655  23.566  0.00  0.00    +0.128 C 
ATOM     23  C   UNL     1       0.150   0.399  24.509  0.00  0.00    +0.239 C 
ATOM     24  C   UNL     1       2.414   2.084  23.199  0.00  0.00    +0.249 C 
ATOM     25  C   UNL     1       3.076   0.782  23.478  0.00  0.00    +0.059 A 
ATOM     26  C   UNL     1       2.391  -0.417  23.727  0.00  0.00    +0.046 A 
ATOM     27  C   UNL     1       4.472   0.754  23.297  0.00  0.00    +0.023 A 
ATOM     28  C   UNL     1       3.109  -1.625  23.717  0.00  0.00    +0.024 A 
ATOM     29  C   UNL     1       5.175  -0.449  23.339  0.00  0.00    -0.017 A 
ATOM     30  C   UNL     1       4.492  -1.641  23.536  0.00  0.00    +0.010 A 
ATOM     35  H   UNL     1       0.605  -1.459  23.813  0.00  0.00    +0.155 HD
ENDROOT
BRANCH  29  31
ATOM      1  S   UNL     1       9.056   0.263  23.393  0.00  0.00    -0.104 S 
ATOM     31  C   UNL     1       6.599  -0.457  23.154  0.00  0.00    -0.011 A 
ATOM     32  C   UNL     1       7.361  -1.369  22.363  0.00  0.00    +0.016 A 
ATOM     33  C   UNL     1       7.400   0.482  23.768  0.00  0.00    +0.053 A 
ATOM     34  C   UNL     1       8.710  -1.092  22.405  0.00  0.00    +0.046 A 
ENDBRANCH  29  31
BRANCH  17  15
ATOM     15  C   UNL     1      -3.579   3.901  24.922  0.00  0.00    +0.103 C 
BRANCH  15  10
ATOM     10  C   UNL     1      -4.442   2.827  24.247  0.00  0.00    -0.011 C 
ATOM     11  C   UNL     1      -5.929   3.002  24.628  0.00  0.00    +0.008 C 
ATOM     12  C   UNL     1      -4.054   1.421  24.762  0.00  0.00    +0.008 C 
ATOM     13  C   UNL     1      -6.203   1.927  25.671  0.00  0.00    +0.001 C 
ATOM     14  C   UNL     1      -5.361   0.761  25.185  0.00  0.00    +0.001 C 
BRANCH  10  16
ATOM     16  C   UNL     1      -4.263   2.923  22.727  0.00  0.00    +0.127 C 
BRANCH  16  21
ATOM      4  O   UNL     1      -2.885   0.912  22.738  0.00  0.00    -0.251 OA
ATOM     21  C   UNL     1      -3.200   1.983  22.240  0.00  0.00    +0.305 C 
BRANCH  21   3
ATOM      3  O   UNL     1      -2.614   2.500  21.131  0.00  0.00    -0.481 OA
ATOM     36  H   UNL     1      -2.083   1.830  20.651  0.00  0.00    +0.295 HD
ENDBRANCH  21   3
ENDBRANCH  16  21
ENDBRANCH  10  16
ENDBRANCH  15  10
ENDBRANCH  17  15
TORSDOF 6
ENDMDL
MODEL 3
REMARK VINA RESULT:      18.3      1.265      1.801
REMARK  Name = 7135474
REMARK  6 active torsions:
REMARK  status: ('A' for Active; 'I' for Inactive)
REMARK    1  A    between atoms: O_3  and  C_21
REMARK    2  A    between atoms: C_10  and  C_15
REMARK    3  A    between atoms: C_10  and  C_16
REMARK    4  A    between atoms: C_15  and  C_17
REMARK    5  A    between atoms: C_16  and  C_21
REMARK    6  A    between atoms: C_29  and  C_31
REMARK                            x       y       z     vdW  Elec       q    Type
REMARK                         _______ _______ _______ _____ _____    ______ ____
ROOT
ATOM      2  O   UNL     1      -2.945   3.035  26.880  0.00  0.00    -0.276 OA
ATOM      5  O   UNL     1      -1.244   0.354  24.534  0.00  0.00    -0.273 OA
ATOM      6  O   UNL     1       2.837   2.957  22.402  0.00  0.00    -0.270 OA
ATOM      7  N   UNL     1      -1.383   3.274  25.176  0.00  0.00    -0.298 N 
ATOM      8  N   UNL     1       1.130   2.556  23.910  0.00  0.00    -0.283 N 
ATOM      9  N   UNL     1       0.811  -0.386  23.894  0.00  0.00    -0.283 N 
ATOM     17  C   UNL     1      -2.644   3.429  25.751  0.00  0.00    +0.216 C 
ATOM     18  C   UNL     1      -0.322   2.602  25.931  0.00  0.00    +0.139 C 
ATOM     19  C   UNL     1       0.629   1.789  25.043  0.00  0.00    +0.180 C 
ATOM     20  C   UNL     1      -1.037   3.747  23.832  0.00  0.00    +0.127 C 
ATOM     22  C   UNL     1       0.466   3.826  23.613  0.00  0.00    +0.128 C 
ATOM     23  C   UNL     1      -0.031   0.554  24.451  0.00  0.00    +0.239 C 
ATOM     24  C   UNL     1       2.297   2.221  23.230  0.00  0.00    +0.249 C 
ATOM     25  C   UNL     1       2.922   0.894  23.481  0.00  0.00    +0.059 A 
ATOM     26  C   UNL     1       2.202  -0.294  23.682  0.00  0.00    +0.046 A 
ATOM     27  C   UNL     1       4.319   0.836  23.321  0.00  0.00    +0.023 A 
ATOM     28  C   UNL     1       2.891  -1.519  23.647  0.00  0.00    +0.024 A 
ATOM     29  C   UNL     1       4.992  -0.384  23.339  0.00  0.00    -0.017 A 
ATOM     30  C   UNL     1       4.276  -1.565  23.488  0.00  0.00    +0.010 A 
ATOM     35  H   UNL     1       0.390  -1.292  23.706  0.00  0.00    +0.155 HD
ENDROOT
BRANCH  29  31
ATOM      1  S   UNL     1       8.888   0.227  23.480  0.00  0.00    -0.104 S 
ATOM     31  C   UNL     1       6.418  -0.423  23.177  0.00  0.00    -0.011 A 
ATOM     32  C   UNL     1       7.170  -1.329  22.371  0.00  0.00    +0.016 A 
ATOM     33  C   UNL     1       7.231   0.476  23.834  0.00  0.00    +0.053 A 
ATOM     34  C   UNL     1       8.525  -1.087  22.444  0.00  0.00    +0.046 A 
ENDBRANCH  29  31
BRANCH  17  15
ATOM     15  C   UNL     1      -3.678   4.135  24.908  0.00  0.00    +0.103 C 
BRANCH  15  10
ATOM     10  C   UNL     1      -4.322   3.142  23.931  0.00  0.00    -0.011 C 
ATOM     11  C   UNL     1      -3.475   1.854  23.823  0.00  0.00    +0.008 C 
ATOM     12  C   UNL     1      -4.347   3.732  22.501  0.00  0.00    +0.008 C 
ATOM     13  C   UNL     1      -2.728   1.978  22.503  0.00  0.00    +0.001 C 
ATOM     14  C   UNL     1      -3.741   2.661  21.602  0.00  0.00    +0.001 C 
BRANCH  10  16
ATOM     16  C   UNL     1      -5.740   2.813  24.414  0.00  0.00    +0.127 C 
BRANCH  16  21
ATOM      4  O   UNL     1      -5.348   0.737  25.631  0.00  0.00    -0.251 OA
ATOM     21  C   UNL     1      -5.714   1.903  25.607  0.00  0.00    +0.305 C 
BRANCH  21   3
ATOM      3  O   UNL     1      -6.167   2.574  26.696  0.00  0.00    -0.481 OA
ATOM     36  H   UNL     1      -5.466   2.692  27.371  0.00  0.00    +0.295 HD
ENDBRANCH  21   3
ENDBRANCH  16  21
ENDBRANCH  10  16
ENDBRANCH  15  10
ENDBRANCH  17  15
TORSDOF 6
ENDMDL
MODEL 4
REMARK VINA RESULT:      18.8      1.201      2.147
REMARK  Name = 7135474
REMARK  6 active torsions:
REMARK  status: ('A' for Active; 'I' for Inactive)
REMARK    1  A    between atoms: O_3  and  C_21
REMARK    2  A    between atoms: C_10  and  C_15
REMARK    3  A    between atoms: C_10  and  C_16
REMARK    4  A    between atoms: C_15  and  C_17
REMARK    5  A    between atoms: C_16  and  C_21
REMARK    6  A    between atoms: C_29  and  C_31
REMARK                            x       y       z     vdW  Elec       q    Type
REMARK                         _______ _______ _______ _____ _____    ______ ____
ROOT
ATOM      2  O   UNL     1      -3.172   0.265  26.075  0.00  0.00    -0.276 OA
ATOM      5  O   UNL     1      -0.464  -1.510  23.815  0.00  0.00    -0.273 OA
ATOM      6  O   UNL     1       2.835   2.407  22.495  0.00  0.00    -0.270 OA
ATOM      7  N   UNL     1      -1.570   1.146  24.638  0.00  0.00    -0.298 N 
ATOM      8  N   UNL     1       1.171   1.351  23.704  0.00  0.00    -0.283 N 
ATOM      9  N   UNL     1       1.779  -1.531  23.430  0.00  0.00    -0.283 N 
ATOM     17  C   UNL     1      -2.877   0.856  25.033  0.00  0.00    +0.216 C 
ATOM     18  C   UNL     1      -0.451   0.737  25.490  0.00  0.00    +0.139 C 
ATOM     19  C   UNL     1       0.802   0.348  24.693  0.00  0.00    +0.180 C 
ATOM     20  C   UNL     1      -1.233   1.849  23.397  0.00  0.00    +0.127 C 
ATOM     22  C   UNL     1       0.188   2.394  23.406  0.00  0.00    +0.128 C 
ATOM     23  C   UNL     1       0.629  -0.952  23.924  0.00  0.00    +0.239 C 
ATOM     24  C   UNL     1       2.455   1.456  23.180  0.00  0.00    +0.249 C 
ATOM     25  C   UNL     1       3.425   0.354  23.423  0.00  0.00    +0.059 A 
ATOM     26  C   UNL     1       3.089  -1.009  23.430  0.00  0.00    +0.046 A 
ATOM     27  C   UNL     1       4.781   0.730  23.465  0.00  0.00    +0.023 A 
ATOM     28  C   UNL     1       4.121  -1.963  23.408  0.00  0.00    +0.024 A 
ATOM     29  C   UNL     1       5.790  -0.231  23.493  0.00  0.00    -0.017 A 
ATOM     30  C   UNL     1       5.460  -1.579  23.450  0.00  0.00    +0.010 A 
ATOM     35  H   UNL     1       1.683  -2.494  23.117  0.00  0.00    +0.155 HD
ENDROOT
BRANCH  29  31
ATOM      1  S   UNL     1       9.234   1.600  24.088  0.00  0.00    -0.104 S 
ATOM     31  C   UNL     1       7.167   0.172  23.539  0.00  0.00    -0.011 A 
ATOM     32  C   UNL     1       8.287  -0.516  22.981  0.00  0.00    +0.016 A 
ATOM     33  C   UNL     1       7.544   1.340  24.169  0.00  0.00    +0.053 A 
ATOM     34  C   UNL     1       9.471   0.151  23.208  0.00  0.00    +0.046 A 
ENDBRANCH  29  31
BRANCH  17  15
ATOM     15  C   UNL     1      -3.972   1.314  24.101  0.00  0.00    +0.103 C 
BRANCH  15  10
ATOM     10  C   UNL     1      -4.728   2.496  24.723  0.00  0.00    -0.011 C 
ATOM     11  C   UNL     1      -4.743   2.383  26.264  0.00  0.00    +0.008 C 
ATOM     12  C   UNL     1      -6.216   2.466  24.300  0.00  0.00    +0.008 C 
ATOM     13  C   UNL     1      -6.139   1.886  26.614  0.00  0.00    +0.001 C 
ATOM     14  C   UNL     1      -7.015   2.587  25.592  0.00  0.00    +0.001 C 
BRANCH  10  16
ATOM     16  C   UNL     1      -4.059   3.805  24.287  0.00  0.00    +0.127 C 
BRANCH  16  21
ATOM      4  O   UNL     1      -3.272   4.281  26.545  0.00  0.00    -0.251 OA
ATOM     21  C   UNL     1      -3.109   4.308  25.334  0.00  0.00    +0.305 C 
BRANCH  21   3
ATOM      3  O   UNL     1      -2.003   4.815  24.733  0.00  0.00    -0.481 OA
ATOM     36  H   UNL     1      -2.222   5.290  23.904  0.00  0.00    +0.295 HD
ENDBRANCH  21   3
ENDBRANCH  16  21
ENDBRANCH  10  16
ENDBRANCH  15  10
ENDBRANCH  17  15
TORSDOF 6
ENDMDL
MODEL 5
REMARK VINA RESULT:      19.1      1.170      2.084
REMARK  Name = 7135474
REMARK  6 active torsions:
REMARK  status: ('A' for Active; 'I' for Inactive)
REMARK    1  A    between atoms: O_3  and  C_21
REMARK    2  A    between atoms: C_10  and  C_15
REMARK    3  A    between atoms: C_10  and  C_16
REMARK    4  A    between atoms: C_15  and  C_17
REMARK    5  A    between atoms: C_16  and  C_21
REMARK    6  A    between atoms: C_29  and  C_31
REMARK                            x       y       z     vdW  Elec       q    Type
REMARK                         _______ _______ _______ _____ _____    ______ ____
ROOT
ATOM      2  O   UNL     1      -2.664   1.894  26.621  0.00  0.00    -0.276 OA
ATOM      5  O   UNL     1      -0.481  -0.715  24.616  0.00  0.00    -0.273 OA
ATOM      6  O   UNL     1       3.067   2.289  22.094  0.00  0.00    -0.270 OA
ATOM      7  N   UNL     1      -1.159   2.189  24.874  0.00  0.00    -0.298 N 
ATOM      8  N   UNL     1       1.452   1.784  23.670  0.00  0.00    -0.283 N 
ATOM      9  N   UNL     1       1.680  -1.143  24.043  0.00  0.00    -0.283 N 
ATOM     17  C   UNL     1      -2.432   2.185  25.445  0.00  0.00    +0.216 C 
ATOM     18  C   UNL     1       0.001   1.827  25.693  0.00  0.00    +0.139 C 
ATOM     19  C   UNL     1       1.092   1.093  24.901  0.00  0.00    +0.180 C 
ATOM     20  C   UNL     1      -0.896   2.537  23.474  0.00  0.00    +0.127 C 
ATOM     22  C   UNL     1       0.569   2.861  23.222  0.00  0.00    +0.128 C 
ATOM     23  C   UNL     1       0.675  -0.308  24.486  0.00  0.00    +0.239 C 
ATOM     24  C   UNL     1       2.665   1.582  23.020  0.00  0.00    +0.249 C 
ATOM     25  C   UNL     1       3.522   0.437  23.431  0.00  0.00    +0.059 A 
ATOM     26  C   UNL     1       3.032  -0.827  23.797  0.00  0.00    +0.046 A 
ATOM     27  C   UNL     1       4.907   0.615  23.257  0.00  0.00    +0.023 A 
ATOM     28  C   UNL     1       3.934  -1.898  23.911  0.00  0.00    +0.024 A 
ATOM     29  C   UNL     1       5.793  -0.448  23.422  0.00  0.00    -0.017 A 
ATOM     30  C   UNL     1       5.304  -1.710  23.736  0.00  0.00    +0.010 A 
ATOM     35  H   UNL     1       1.433  -2.128  23.982  0.00  0.00    +0.155 HD
ENDROOT
BRANCH  29  31
ATOM      1  S   UNL     1       9.519   0.847  23.468  0.00  0.00    -0.104 S 
ATOM     31  C   UNL     1       7.203  -0.246  23.243  0.00  0.00    -0.011 A 
ATOM     32  C   UNL     1       8.101  -1.058  22.487  0.00  0.00    +0.016 A 
ATOM     33  C   UNL     1       7.845   0.824  23.829  0.00  0.00    +0.053 A 
ATOM     34  C   UNL     1       9.392  -0.576  22.525  0.00  0.00    +0.046 A 
ENDBRANCH  29  31
BRANCH  17  15
ATOM     15  C   UNL     1      -3.572   2.572  24.534  0.00  0.00    +0.103 C 
BRANCH  15  10
ATOM     10  C   UNL     1      -4.598   1.434  24.467  0.00  0.00    -0.011 C 
ATOM     11  C   UNL     1      -4.395   0.446  25.638  0.00  0.00    +0.008 C 
ATOM     12  C   UNL     1      -4.388   0.593  23.186  0.00  0.00    +0.008 C 
ATOM     13  C   UNL     1      -3.689  -0.757  25.027  0.00  0.00    +0.001 C 
ATOM     14  C   UNL     1      -4.320  -0.857  23.650  0.00  0.00    +0.001 C 
BRANCH  10  16
ATOM     16  C   UNL     1      -6.011   2.029  24.508  0.00  0.00    +0.127 C 
BRANCH  16  21
ATOM      4  O   UNL     1      -6.004   4.203  25.610  0.00  0.00    -0.251 OA
ATOM     21  C   UNL     1      -6.166   2.993  25.647  0.00  0.00    +0.305 C 
BRANCH  21   3
ATOM      3  O   UNL     1      -6.524   2.314  26.767  0.00  0.00    -0.481 OA
ATOM     36  H   UNL     1      -6.310   1.359  26.700  0.00  0.00    +0.295 HD
ENDBRANCH  21   3
ENDBRANCH  16  21
ENDBRANCH  10  16
ENDBRANCH  15  10
ENDBRANCH  17  15
TORSDOF 6
ENDMDL
