MODEL 1
REMARK VINA RESULT:      -6.7      0.000      0.000
REMARK  Name = 75536929
REMARK  4 active torsions:
REMARK  status: ('A' for Active; 'I' for Inactive)
REMARK    1  A    between atoms: O_3  and  C_8
REMARK    2  A    between atoms: O_3  and  C_16
REMARK    3  A    between atoms: N_4  and  C_11
REMARK    4  A    between atoms: C_11  and  C_13
REMARK                            x       y       z     vdW  Elec       q    Type
REMARK                         _______ _______ _______ _____ _____    ______ ____
ROOT
ATOM      2  O   UNL     1      -1.878  -2.889  24.155  0.00  0.00    -0.375 OA
ATOM      4  N   UNL     1      -3.921  -0.718  25.066  0.00  0.00    -0.292 NA
ATOM      7  C   UNL     1      -2.707   0.105  25.048  0.00  0.00    +0.131 C 
ATOM      8  C   UNL     1      -1.399  -0.556  24.584  0.00  0.00    +0.215 C 
ATOM      9  C   UNL     1      -4.019  -1.672  23.961  0.00  0.00    +0.113 C 
ATOM     10  C   UNL     1      -1.224  -1.996  25.049  0.00  0.00    +0.205 C 
ATOM     12  C   UNL     1      -3.286  -2.965  24.322  0.00  0.00    +0.175 C 
ENDROOT
BRANCH   8   3
ATOM      3  O   UNL     1      -0.308   0.208  25.099  0.00  0.00    -0.468 OA
BRANCH   3  16
ATOM      5  N   UNL     1      -1.015   2.161  26.145  0.00  0.00    -0.219 NA
ATOM      6  N   UNL     1      -0.150   3.631  23.918  0.00  0.00    -0.256 NA
ATOM     16  C   UNL     1      -0.451   1.569  25.074  0.00  0.00    +0.234 A 
ATOM     20  C   UNL     1      -0.027   2.291  23.979  0.00  0.00    +0.177 A 
ATOM     21  C   UNL     1      -1.138   3.502  26.083  0.00  0.00    +0.134 A 
ATOM     22  C   UNL     1      -0.714   4.224  24.989  0.00  0.00    +0.130 A 
ENDBRANCH   3  16
ENDBRANCH   8   3
BRANCH   4  11
ATOM     11  C   UNL     1      -5.107   0.137  25.143  0.00  0.00    +0.122 C 
BRANCH  11  13
ATOM      1  F   UNL     1      -5.985   2.305  26.741  0.00  0.00    -0.205 F 
ATOM     13  C   UNL     1      -4.783   1.574  24.829  0.00  0.00    +0.002 A 
ATOM     14  C   UNL     1      -5.247   2.593  25.660  0.00  0.00    +0.128 A 
ATOM     15  C   UNL     1      -4.016   1.883  23.706  0.00  0.00    +0.008 A 
ATOM     17  C   UNL     1      -4.945   3.923  25.367  0.00  0.00    +0.038 A 
ATOM     18  C   UNL     1      -3.714   3.213  23.414  0.00  0.00    +0.000 A 
ATOM     19  C   UNL     1      -4.178   4.233  24.244  0.00  0.00    +0.003 A 
ENDBRANCH  11  13
ENDBRANCH   4  11
TORSDOF 4
ENDMDL
MODEL 2
REMARK VINA RESULT:      -6.6      2.166      3.987
REMARK  Name = 75536929
REMARK  4 active torsions:
REMARK  status: ('A' for Active; 'I' for Inactive)
REMARK    1  A    between atoms: O_3  and  C_8
REMARK    2  A    between atoms: O_3  and  C_16
REMARK    3  A    between atoms: N_4  and  C_11
REMARK    4  A    between atoms: C_11  and  C_13
REMARK                            x       y       z     vdW  Elec       q    Type
REMARK                         _______ _______ _______ _____ _____    ______ ____
ROOT
ATOM      2  O   UNL     1      -3.294  -2.884  24.842  0.00  0.00    -0.375 OA
ATOM      4  N   UNL     1      -1.282  -0.652  24.011  0.00  0.00    -0.292 NA
ATOM      7  C   UNL     1      -2.491   0.168  24.141  0.00  0.00    +0.131 C 
ATOM      8  C   UNL     1      -3.781  -0.524  24.609  0.00  0.00    +0.215 C 
ATOM      9  C   UNL     1      -1.142  -1.686  25.037  0.00  0.00    +0.113 C 
ATOM     10  C   UNL     1      -3.981  -1.925  24.045  0.00  0.00    +0.205 C 
ATOM     12  C   UNL     1      -1.895  -2.948  24.611  0.00  0.00    +0.175 C 
ENDROOT
BRANCH   8   3
ATOM      3  O   UNL     1      -4.890   0.278  24.199  0.00  0.00    -0.468 OA
BRANCH   3  16
ATOM      5  N   UNL     1      -4.180   2.485  24.016  0.00  0.00    -0.219 NA
ATOM      6  N   UNL     1      -5.737   3.139  26.255  0.00  0.00    -0.256 NA
ATOM     16  C   UNL     1      -4.918   1.563  24.665  0.00  0.00    +0.234 A 
ATOM     20  C   UNL     1      -5.683   1.884  25.766  0.00  0.00    +0.177 A 
ATOM     21  C   UNL     1      -4.235   3.739  24.505  0.00  0.00    +0.134 A 
ATOM     22  C   UNL     1      -4.998   4.061  25.605  0.00  0.00    +0.130 A 
ENDBRANCH   3  16
ENDBRANCH   8   3
BRANCH   4  11
ATOM     11  C   UNL     1      -0.098   0.205  23.949  0.00  0.00    +0.122 C 
BRANCH  11  13
ATOM      1  F   UNL     1      -0.584   0.813  26.674  0.00  0.00    -0.205 F 
ATOM     13  C   UNL     1      -0.387   1.598  24.442  0.00  0.00    +0.002 A 
ATOM     14  C   UNL     1      -0.618   1.827  25.798  0.00  0.00    +0.128 A 
ATOM     15  C   UNL     1      -0.424   2.661  23.538  0.00  0.00    +0.008 A 
ATOM     17  C   UNL     1      -0.885   3.119  26.252  0.00  0.00    +0.038 A 
ATOM     18  C   UNL     1      -0.692   3.952  23.992  0.00  0.00    +0.000 A 
ATOM     19  C   UNL     1      -0.923   4.181  25.348  0.00  0.00    +0.003 A 
ENDBRANCH  11  13
ENDBRANCH   4  11
TORSDOF 4
ENDMDL
MODEL 3
REMARK VINA RESULT:      -6.2      1.787      4.432
REMARK  Name = 75536929
REMARK  4 active torsions:
REMARK  status: ('A' for Active; 'I' for Inactive)
REMARK    1  A    between atoms: O_3  and  C_8
REMARK    2  A    between atoms: O_3  and  C_16
REMARK    3  A    between atoms: N_4  and  C_11
REMARK    4  A    between atoms: C_11  and  C_13
REMARK                            x       y       z     vdW  Elec       q    Type
REMARK                         _______ _______ _______ _____ _____    ______ ____
ROOT
ATOM      2  O   UNL     1       1.221  -0.637  23.727  0.00  0.00    -0.375 OA
ATOM      4  N   UNL     1      -0.507   1.935  24.082  0.00  0.00    -0.292 NA
ATOM      7  C   UNL     1      -1.116   1.104  25.126  0.00  0.00    +0.131 C 
ATOM      8  C   UNL     1      -0.526  -0.294  25.367  0.00  0.00    +0.215 C 
ATOM      9  C   UNL     1       0.948   1.805  23.981  0.00  0.00    +0.113 C 
ATOM     10  C   UNL     1      -0.098  -1.022  24.100  0.00  0.00    +0.205 C 
ATOM     12  C   UNL     1       1.305   0.624  23.079  0.00  0.00    +0.175 C 
ENDROOT
BRANCH   8   3
ATOM      3  O   UNL     1      -1.518  -1.089  26.018  0.00  0.00    -0.468 OA
BRANCH   3  16
ATOM      5  N   UNL     1      -2.609  -2.756  24.820  0.00  0.00    -0.219 NA
ATOM      6  N   UNL     1      -4.650  -0.935  24.201  0.00  0.00    -0.256 NA
ATOM     16  C   UNL     1      -2.583  -1.481  25.254  0.00  0.00    +0.234 A 
ATOM     20  C   UNL     1      -3.585  -0.586  24.950  0.00  0.00    +0.177 A 
ATOM     21  C   UNL     1      -3.673  -3.106  24.071  0.00  0.00    +0.134 A 
ATOM     22  C   UNL     1      -4.676  -2.211  23.766  0.00  0.00    +0.130 A 
ENDBRANCH   3  16
ENDBRANCH   8   3
BRANCH   4  11
ATOM     11  C   UNL     1      -0.910   3.331  24.250  0.00  0.00    +0.122 C 
BRANCH  11  13
ATOM      1  F   UNL     1      -3.107   2.397  22.724  0.00  0.00    -0.205 F 
ATOM     13  C   UNL     1      -2.339   3.451  24.708  0.00  0.00    +0.002 A 
ATOM     14  C   UNL     1      -3.374   2.969  23.907  0.00  0.00    +0.128 A 
ATOM     15  C   UNL     1      -2.627   4.044  25.937  0.00  0.00    +0.008 A 
ATOM     17  C   UNL     1      -4.697   3.081  24.334  0.00  0.00    +0.038 A 
ATOM     18  C   UNL     1      -3.950   4.156  26.364  0.00  0.00    +0.000 A 
ATOM     19  C   UNL     1      -4.985   3.674  25.563  0.00  0.00    +0.003 A 
ENDBRANCH  11  13
ENDBRANCH   4  11
TORSDOF 4
ENDMDL
MODEL 4
REMARK VINA RESULT:      -6.1      2.680      5.202
REMARK  Name = 75536929
REMARK  4 active torsions:
REMARK  status: ('A' for Active; 'I' for Inactive)
REMARK    1  A    between atoms: O_3  and  C_8
REMARK    2  A    between atoms: O_3  and  C_16
REMARK    3  A    between atoms: N_4  and  C_11
REMARK    4  A    between atoms: C_11  and  C_13
REMARK                            x       y       z     vdW  Elec       q    Type
REMARK                         _______ _______ _______ _____ _____    ______ ____
ROOT
ATOM      2  O   UNL     1       0.470   2.780  23.509  0.00  0.00    -0.375 OA
ATOM      4  N   UNL     1      -0.890   0.753  25.450  0.00  0.00    -0.292 NA
ATOM      7  C   UNL     1      -2.053   1.594  25.146  0.00  0.00    +0.131 C 
ATOM      8  C   UNL     1      -1.866   2.742  24.141  0.00  0.00    +0.215 C 
ATOM      9  C   UNL     1      -0.020   0.492  24.303  0.00  0.00    +0.113 C 
ATOM     10  C   UNL     1      -0.530   3.465  24.255  0.00  0.00    +0.205 C 
ATOM     12  C   UNL     1       0.995   1.626  24.149  0.00  0.00    +0.175 C 
ENDROOT
BRANCH   8   3
ATOM      3  O   UNL     1      -2.904   3.698  24.360  0.00  0.00    -0.468 OA
BRANCH   3  16
ATOM      5  N   UNL     1      -4.822   2.415  24.074  0.00  0.00    -0.219 NA
ATOM      6  N   UNL     1      -5.630   3.097  26.673  0.00  0.00    -0.256 NA
ATOM     16  C   UNL     1      -4.081   3.216  24.865  0.00  0.00    +0.234 A 
ATOM     20  C   UNL     1      -4.478   3.552  26.141  0.00  0.00    +0.177 A 
ATOM     21  C   UNL     1      -5.974   1.960  24.606  0.00  0.00    +0.134 A 
ATOM     22  C   UNL     1      -6.371   2.295  25.882  0.00  0.00    +0.130 A 
ENDBRANCH   3  16
ENDBRANCH   8   3
BRANCH   4  11
ATOM     11  C   UNL     1      -1.322  -0.490  26.089  0.00  0.00    +0.122 C 
BRANCH  11  13
ATOM      1  F   UNL     1      -0.851  -3.065  25.003  0.00  0.00    -0.205 F 
ATOM     13  C   UNL     1      -2.334  -1.228  25.253  0.00  0.00    +0.002 A 
ATOM     14  C   UNL     1      -2.037  -2.494  24.749  0.00  0.00    +0.128 A 
ATOM     15  C   UNL     1      -3.571  -0.642  24.983  0.00  0.00    +0.008 A 
ATOM     17  C   UNL     1      -2.976  -3.175  23.976  0.00  0.00    +0.038 A 
ATOM     18  C   UNL     1      -4.511  -1.324  24.210  0.00  0.00    +0.000 A 
ATOM     19  C   UNL     1      -4.213  -2.590  23.706  0.00  0.00    +0.003 A 
ENDBRANCH  11  13
ENDBRANCH   4  11
TORSDOF 4
ENDMDL
MODEL 5
REMARK VINA RESULT:      -5.8      2.201      4.590
REMARK  Name = 75536929
REMARK  4 active torsions:
REMARK  status: ('A' for Active; 'I' for Inactive)
REMARK    1  A    between atoms: O_3  and  C_8
REMARK    2  A    between atoms: O_3  and  C_16
REMARK    3  A    between atoms: N_4  and  C_11
REMARK    4  A    between atoms: C_11  and  C_13
REMARK                            x       y       z     vdW  Elec       q    Type
REMARK                         _______ _______ _______ _____ _____    ______ ____
ROOT
ATOM      2  O   UNL     1      -2.381   4.703  24.636  0.00  0.00    -0.375 OA
ATOM      4  N   UNL     1      -3.708   1.921  25.108  0.00  0.00    -0.292 NA
ATOM      7  C   UNL     1      -2.378   1.636  25.658  0.00  0.00    +0.131 C 
ATOM      8  C   UNL     1      -1.354   2.782  25.691  0.00  0.00    +0.215 C 
ATOM      9  C   UNL     1      -4.219   3.255  25.428  0.00  0.00    +0.113 C 
ATOM     10  C   UNL     1      -1.392   3.693  24.471  0.00  0.00    +0.205 C 
ATOM     12  C   UNL     1      -3.712   4.268  24.400  0.00  0.00    +0.175 C 
ENDROOT
BRANCH   8   3
ATOM      3  O   UNL     1      -0.049   2.210  25.774  0.00  0.00    -0.468 OA
BRANCH   3  16
ATOM      5  N   UNL     1       1.296   1.644  23.963  0.00  0.00    -0.219 NA
ATOM      6  N   UNL     1      -0.091  -0.783  23.729  0.00  0.00    -0.256 NA
ATOM     16  C   UNL     1       0.288   1.315  24.795  0.00  0.00    +0.234 A 
ATOM     20  C   UNL     1      -0.394   0.123  24.680  0.00  0.00    +0.177 A 
ATOM     21  C   UNL     1       1.598   0.738  23.012  0.00  0.00    +0.134 A 
ATOM     22  C   UNL     1       0.917  -0.454  22.897  0.00  0.00    +0.130 A 
ENDBRANCH   3  16
ENDBRANCH   8   3
BRANCH   4  11
ATOM     11  C   UNL     1      -4.651   0.876  25.506  0.00  0.00    +0.122 C 
BRANCH  11  13
ATOM      1  F   UNL     1      -3.364  -0.993  27.204  0.00  0.00    -0.205 F 
ATOM     13  C   UNL     1      -4.206  -0.486  25.043  0.00  0.00    +0.002 A 
ATOM     14  C   UNL     1      -3.578  -1.358  25.932  0.00  0.00    +0.128 A 
ATOM     15  C   UNL     1      -4.424  -0.876  23.721  0.00  0.00    +0.008 A 
ATOM     17  C   UNL     1      -3.168  -2.619  25.501  0.00  0.00    +0.038 A 
ATOM     18  C   UNL     1      -4.014  -2.137  23.289  0.00  0.00    +0.000 A 
ATOM     19  C   UNL     1      -3.386  -3.008  24.178  0.00  0.00    +0.003 A 
ENDBRANCH  11  13
ENDBRANCH   4  11
TORSDOF 4
ENDMDL
MODEL 6
REMARK VINA RESULT:      -5.8      2.667      5.513
REMARK  Name = 75536929
REMARK  4 active torsions:
REMARK  status: ('A' for Active; 'I' for Inactive)
REMARK    1  A    between atoms: O_3  and  C_8
REMARK    2  A    between atoms: O_3  and  C_16
REMARK    3  A    between atoms: N_4  and  C_11
REMARK    4  A    between atoms: C_11  and  C_13
REMARK                            x       y       z     vdW  Elec       q    Type
REMARK                         _______ _______ _______ _____ _____    ______ ____
ROOT
ATOM      2  O   UNL     1      -0.485   4.017  25.812  0.00  0.00    -0.375 OA
ATOM      4  N   UNL     1      -0.933   1.197  24.559  0.00  0.00    -0.292 NA
ATOM      7  C   UNL     1      -2.037   1.912  23.911  0.00  0.00    +0.131 C 
ATOM      8  C   UNL     1      -2.184   3.416  24.196  0.00  0.00    +0.215 C 
ATOM      9  C   UNL     1       0.304   1.972  24.672  0.00  0.00    +0.113 C 
ATOM     10  C   UNL     1      -1.882   3.814  25.635  0.00  0.00    +0.205 C 
ATOM     12  C   UNL     1       0.272   2.822  25.942  0.00  0.00    +0.175 C 
ENDROOT
BRANCH   8   3
ATOM      3  O   UNL     1      -3.531   3.793  23.908  0.00  0.00    -0.468 OA
BRANCH   3  16
ATOM      5  N   UNL     1      -4.913   1.943  24.182  0.00  0.00    -0.219 NA
ATOM      6  N   UNL     1      -6.017   3.144  26.464  0.00  0.00    -0.256 NA
ATOM     16  C   UNL     1      -4.509   3.153  24.618  0.00  0.00    +0.234 A 
ATOM     20  C   UNL     1      -5.052   3.743  25.738  0.00  0.00    +0.177 A 
ATOM     21  C   UNL     1      -5.878   1.344  24.907  0.00  0.00    +0.134 A 
ATOM     22  C   UNL     1      -6.421   1.934  26.028  0.00  0.00    +0.130 A 
ENDBRANCH   3  16
ENDBRANCH   8   3
BRANCH   4  11
ATOM     11  C   UNL     1      -0.703  -0.085  23.891  0.00  0.00    +0.122 C 
BRANCH  11  13
ATOM      1  F   UNL     1      -0.460  -2.448  25.435  0.00  0.00    -0.205 F 
ATOM     13  C   UNL     1      -1.842  -1.044  24.111  0.00  0.00    +0.002 A 
ATOM     14  C   UNL     1      -1.653  -2.190  24.883  0.00  0.00    +0.128 A 
ATOM     15  C   UNL     1      -3.089  -0.784  23.540  0.00  0.00    +0.008 A 
ATOM     17  C   UNL     1      -2.711  -3.076  25.086  0.00  0.00    +0.038 A 
ATOM     18  C   UNL     1      -4.146  -1.671  23.743  0.00  0.00    +0.000 A 
ATOM     19  C   UNL     1      -3.957  -2.816  24.515  0.00  0.00    +0.003 A 
ENDBRANCH  11  13
ENDBRANCH   4  11
TORSDOF 4
ENDMDL
MODEL 7
REMARK VINA RESULT:      -5.7      3.194      4.431
REMARK  Name = 75536929
REMARK  4 active torsions:
REMARK  status: ('A' for Active; 'I' for Inactive)
REMARK    1  A    between atoms: O_3  and  C_8
REMARK    2  A    between atoms: O_3  and  C_16
REMARK    3  A    between atoms: N_4  and  C_11
REMARK    4  A    between atoms: C_11  and  C_13
REMARK                            x       y       z     vdW  Elec       q    Type
REMARK                         _______ _______ _______ _____ _____    ______ ____
ROOT
ATOM      2  O   UNL     1       0.686   2.058  25.550  0.00  0.00    -0.375 OA
ATOM      4  N   UNL     1      -1.831   1.498  23.796  0.00  0.00    -0.292 NA
ATOM      7  C   UNL     1      -0.874   0.624  23.108  0.00  0.00    +0.131 C 
ATOM      8  C   UNL     1       0.549   0.526  23.681  0.00  0.00    +0.215 C 
ATOM      9  C   UNL     1      -1.703   1.502  25.254  0.00  0.00    +0.113 C 
ATOM     10  C   UNL     1       1.105   1.842  24.207  0.00  0.00    +0.205 C 
ATOM     12  C   UNL     1      -0.649   2.524  25.682  0.00  0.00    +0.175 C 
ENDROOT
BRANCH   8   3
ATOM      3  O   UNL     1       1.414   0.065  22.642  0.00  0.00    -0.468 OA
BRANCH   3  16
ATOM      5  N   UNL     1       3.551   0.982  22.693  0.00  0.00    -0.219 NA
ATOM      6  N   UNL     1       4.504  -1.380  23.868  0.00  0.00    -0.256 NA
ATOM     16  C   UNL     1       2.738  -0.059  22.962  0.00  0.00    +0.234 A 
ATOM     20  C   UNL     1       3.207  -1.220  23.539  0.00  0.00    +0.177 A 
ATOM     21  C   UNL     1       4.848   0.822  23.023  0.00  0.00    +0.134 A 
ATOM     22  C   UNL     1       5.316  -0.338  23.599  0.00  0.00    +0.130 A 
ENDBRANCH   3  16
ENDBRANCH   8   3
BRANCH   4  11
ATOM     11  C   UNL     1      -3.196   1.177  23.378  0.00  0.00    +0.122 C 
BRANCH  11  13
ATOM      1  F   UNL     1      -3.542   3.960  23.788  0.00  0.00    -0.205 F 
ATOM     13  C   UNL     1      -4.220   1.748  24.323  0.00  0.00    +0.002 A 
ATOM     14  C   UNL     1      -4.337   3.129  24.477  0.00  0.00    +0.128 A 
ATOM     15  C   UNL     1      -5.052   0.892  25.045  0.00  0.00    +0.008 A 
ATOM     17  C   UNL     1      -5.287   3.655  25.353  0.00  0.00    +0.038 A 
ATOM     18  C   UNL     1      -6.002   1.418  25.920  0.00  0.00    +0.000 A 
ATOM     19  C   UNL     1      -6.119   2.799  26.075  0.00  0.00    +0.003 A 
ENDBRANCH  11  13
ENDBRANCH   4  11
TORSDOF 4
ENDMDL
MODEL 8
REMARK VINA RESULT:      -5.6      1.614      4.571
REMARK  Name = 75536929
REMARK  4 active torsions:
REMARK  status: ('A' for Active; 'I' for Inactive)
REMARK    1  A    between atoms: O_3  and  C_8
REMARK    2  A    between atoms: O_3  and  C_16
REMARK    3  A    between atoms: N_4  and  C_11
REMARK    4  A    between atoms: C_11  and  C_13
REMARK                            x       y       z     vdW  Elec       q    Type
REMARK                         _______ _______ _______ _____ _____    ______ ____
ROOT
ATOM      2  O   UNL     1       0.524   3.116  25.607  0.00  0.00    -0.375 OA
ATOM      4  N   UNL     1      -2.035   2.780  23.858  0.00  0.00    -0.292 NA
ATOM      7  C   UNL     1      -1.836   1.379  24.243  0.00  0.00    +0.131 C 
ATOM      8  C   UNL     1      -0.673   1.053  25.194  0.00  0.00    +0.215 C 
ATOM      9  C   UNL     1      -1.767   3.743  24.927  0.00  0.00    +0.113 C 
ATOM     10  C   UNL     1       0.592   1.862  24.937  0.00  0.00    +0.205 C 
ATOM     12  C   UNL     1      -0.278   4.090  24.955  0.00  0.00    +0.175 C 
ENDROOT
BRANCH   8   3
ATOM      3  O   UNL     1      -0.350  -0.329  25.043  0.00  0.00    -0.468 OA
BRANCH   3  16
ATOM      5  N   UNL     1      -1.365  -2.190  24.087  0.00  0.00    -0.219 NA
ATOM      6  N   UNL     1      -3.515  -1.893  25.863  0.00  0.00    -0.256 NA
ATOM     16  C   UNL     1      -1.403  -1.201  25.001  0.00  0.00    +0.234 A 
ATOM     20  C   UNL     1      -2.460  -1.054  25.874  0.00  0.00    +0.177 A 
ATOM     21  C   UNL     1      -2.420  -3.029  24.077  0.00  0.00    +0.134 A 
ATOM     22  C   UNL     1      -3.476  -2.883  24.949  0.00  0.00    +0.130 A 
ENDBRANCH   3  16
ENDBRANCH   8   3
BRANCH   4  11
ATOM     11  C   UNL     1      -3.374   2.962  23.296  0.00  0.00    +0.122 C 
BRANCH  11  13
ATOM      1  F   UNL     1      -4.417   0.367  23.751  0.00  0.00    -0.205 F 
ATOM     13  C   UNL     1      -4.450   2.674  24.309  0.00  0.00    +0.002 A 
ATOM     14  C   UNL     1      -4.919   1.372  24.482  0.00  0.00    +0.128 A 
ATOM     15  C   UNL     1      -4.979   3.713  25.075  0.00  0.00    +0.008 A 
ATOM     17  C   UNL     1      -5.915   1.108  25.421  0.00  0.00    +0.038 A 
ATOM     18  C   UNL     1      -5.976   3.449  26.014  0.00  0.00    +0.000 A 
ATOM     19  C   UNL     1      -6.444   2.147  26.188  0.00  0.00    +0.003 A 
ENDBRANCH  11  13
ENDBRANCH   4  11
TORSDOF 4
ENDMDL
MODEL 9
REMARK VINA RESULT:      -5.4      2.129      4.215
REMARK  Name = 75536929
REMARK  4 active torsions:
REMARK  status: ('A' for Active; 'I' for Inactive)
REMARK    1  A    between atoms: O_3  and  C_8
REMARK    2  A    between atoms: O_3  and  C_16
REMARK    3  A    between atoms: N_4  and  C_11
REMARK    4  A    between atoms: C_11  and  C_13
REMARK                            x       y       z     vdW  Elec       q    Type
REMARK                         _______ _______ _______ _____ _____    ______ ____
ROOT
ATOM      2  O   UNL     1       1.352   0.981  23.081  0.00  0.00    -0.375 OA
ATOM      4  N   UNL     1      -0.524  -0.182  25.283  0.00  0.00    -0.292 NA
ATOM      7  C   UNL     1      -1.166   1.124  25.103  0.00  0.00    +0.131 C 
ATOM      8  C   UNL     1      -0.594   2.063  24.029  0.00  0.00    +0.215 C 
ATOM      9  C   UNL     1      -0.062  -0.803  24.041  0.00  0.00    +0.113 C 
ATOM     10  C   UNL     1       0.925   2.045  23.924  0.00  0.00    +0.205 C 
ATOM     12  C   UNL     1       1.341  -0.299  23.696  0.00  0.00    +0.175 C 
ENDROOT
BRANCH   8   3
ATOM      3  O   UNL     1      -0.998   3.396  24.343  0.00  0.00    -0.468 OA
BRANCH   3  16
ATOM      5  N   UNL     1      -2.468   4.021  26.034  0.00  0.00    -0.219 NA
ATOM      6  N   UNL     1      -4.623   3.390  24.352  0.00  0.00    -0.256 NA
ATOM     16  C   UNL     1      -2.284   3.556  24.782  0.00  0.00    +0.234 A 
ATOM     20  C   UNL     1      -3.343   3.246  23.956  0.00  0.00    +0.177 A 
ATOM     21  C   UNL     1      -3.748   4.166  26.430  0.00  0.00    +0.134 A 
ATOM     22  C   UNL     1      -4.807   3.855  25.605  0.00  0.00    +0.130 A 
ENDBRANCH   3  16
ENDBRANCH   8   3
BRANCH   4  11
ATOM     11  C   UNL     1      -1.406  -1.077  26.033  0.00  0.00    +0.122 C 
BRANCH  11  13
ATOM      1  F   UNL     1      -3.739   0.479  25.628  0.00  0.00    -0.205 F 
ATOM     13  C   UNL     1      -2.571  -1.543  25.201  0.00  0.00    +0.002 A 
ATOM     14  C   UNL     1      -3.689  -0.726  25.043  0.00  0.00    +0.128 A 
ATOM     15  C   UNL     1      -2.529  -2.796  24.588  0.00  0.00    +0.008 A 
ATOM     17  C   UNL     1      -4.767  -1.160  24.271  0.00  0.00    +0.038 A 
ATOM     18  C   UNL     1      -3.606  -3.230  23.817  0.00  0.00    +0.000 A 
ATOM     19  C   UNL     1      -4.725  -2.413  23.658  0.00  0.00    +0.003 A 
ENDBRANCH  11  13
ENDBRANCH   4  11
TORSDOF 4
ENDMDL
MODEL 10
REMARK VINA RESULT:      -5.0      1.798      2.308
REMARK  Name = 75536929
REMARK  4 active torsions:
REMARK  status: ('A' for Active; 'I' for Inactive)
REMARK    1  A    between atoms: O_3  and  C_8
REMARK    2  A    between atoms: O_3  and  C_16
REMARK    3  A    between atoms: N_4  and  C_11
REMARK    4  A    between atoms: C_11  and  C_13
REMARK                            x       y       z     vdW  Elec       q    Type
REMARK                         _______ _______ _______ _____ _____    ______ ____
ROOT
ATOM      2  O   UNL     1      -2.044  -2.875  24.525  0.00  0.00    -0.375 OA
ATOM      4  N   UNL     1      -4.109  -0.547  24.728  0.00  0.00    -0.292 NA
ATOM      7  C   UNL     1      -2.885   0.246  24.577  0.00  0.00    +0.131 C 
ATOM      8  C   UNL     1      -1.561  -0.508  24.377  0.00  0.00    +0.215 C 
ATOM      9  C   UNL     1      -4.153  -1.752  23.898  0.00  0.00    +0.113 C 
ATOM     10  C   UNL     1      -1.434  -1.782  25.202  0.00  0.00    +0.205 C 
ATOM     12  C   UNL     1      -3.461  -2.908  24.620  0.00  0.00    +0.175 C 
ENDROOT
BRANCH   8   3
ATOM      3  O   UNL     1      -0.493   0.365  24.747  0.00  0.00    -0.468 OA
BRANCH   3  16
ATOM      5  N   UNL     1       0.693  -0.580  22.983  0.00  0.00    -0.219 NA
ATOM      6  N   UNL     1       2.617   1.446  23.231  0.00  0.00    -0.256 NA
ATOM     16  C   UNL     1       0.591   0.391  23.912  0.00  0.00    +0.234 A 
ATOM     20  C   UNL     1       1.537   1.386  24.034  0.00  0.00    +0.177 A 
ATOM     21  C   UNL     1       1.773  -0.520  22.180  0.00  0.00    +0.134 A 
ATOM     22  C   UNL     1       2.719   0.474  22.301  0.00  0.00    +0.130 A 
ENDBRANCH   3  16
ENDBRANCH   8   3
BRANCH   4  11
ATOM     11  C   UNL     1      -5.285   0.296  24.511  0.00  0.00    +0.122 C 
BRANCH  11  13
ATOM      1  F   UNL     1      -6.264   1.869  26.656  0.00  0.00    -0.205 F 
ATOM     13  C   UNL     1      -4.964   1.758  24.672  0.00  0.00    +0.002 A 
ATOM     14  C   UNL     1      -5.479   2.474  25.752  0.00  0.00    +0.128 A 
ATOM     15  C   UNL     1      -4.148   2.397  23.737  0.00  0.00    +0.008 A 
ATOM     17  C   UNL     1      -5.180   3.828  25.899  0.00  0.00    +0.038 A 
ATOM     18  C   UNL     1      -3.848   3.751  23.884  0.00  0.00    +0.000 A 
ATOM     19  C   UNL     1      -4.364   4.466  24.964  0.00  0.00    +0.003 A 
ENDBRANCH  11  13
ENDBRANCH   4  11
TORSDOF 4
ENDMDL
