MODEL 1
REMARK VINA RESULT:      -0.2      0.000      0.000
REMARK  Name = 11886423
REMARK  6 active torsions:
REMARK  status: ('A' for Active; 'I' for Inactive)
REMARK    1  A    between atoms: S_1  and  N_8
REMARK    2  A    between atoms: S_1  and  C_22
REMARK    3  A    between atoms: S_3  and  C_27
REMARK    4  A    between atoms: S_3  and  C_28
REMARK    5  A    between atoms: N_10  and  C_20
REMARK    6  A    between atoms: C_26  and  C_27
REMARK                            x       y       z     vdW  Elec       q    Type
REMARK                         _______ _______ _______ _____ _____    ______ ____
ROOT
ATOM      6  O   UNL     1       0.438   2.071  26.185  0.00  0.00    -0.266 OA
ATOM      8  N   UNL     1      -4.440   2.366  25.216  0.00  0.00    -0.175 NA
ATOM      9  N   UNL     1      -1.352   3.011  25.014  0.00  0.00    -0.310 N 
ATOM     11  C   UNL     1      -3.223   4.329  26.164  0.00  0.00    +0.025 C 
ATOM     12  C   UNL     1      -3.286   3.993  23.732  0.00  0.00    +0.052 C 
ATOM     13  C   UNL     1      -3.340   5.053  24.829  0.00  0.00    +0.017 C 
ATOM     14  C   UNL     1      -4.385   3.338  26.346  0.00  0.00    +0.114 C 
ATOM     15  C   UNL     1      -4.481   3.034  23.881  0.00  0.00    +0.119 C 
ATOM     16  C   UNL     1      -1.852   3.645  26.241  0.00  0.00    +0.130 C 
ATOM     17  C   UNL     1      -1.980   3.223  23.783  0.00  0.00    +0.026 A 
ATOM     18  C   UNL     1      -1.441   2.726  22.657  0.00  0.00    +0.024 A 
ATOM     19  C   UNL     1      -0.159   2.269  25.127  0.00  0.00    +0.273 A 
ATOM     20  C   UNL     1       0.396   1.713  23.851  0.00  0.00    +0.099 A 
ATOM     21  C   UNL     1      -0.230   1.955  22.694  0.00  0.00    +0.030 A 
ENDROOT
BRANCH  20  10
ATOM      7  O   UNL     1       1.277  -0.235  21.949  0.00  0.00    -0.275 OA
ATOM     10  N   UNL     1       1.543   0.979  23.919  0.00  0.00    -0.281 N 
ATOM     26  C   UNL     1       1.920   0.051  22.958  0.00  0.00    +0.227 C 
ATOM     29  H   UNL     1       2.018   0.959  24.819  0.00  0.00    +0.155 HD
BRANCH  26  27
ATOM     27  C   UNL     1       3.234  -0.621  23.278  0.00  0.00    +0.164 C 
BRANCH  27   3
ATOM      3  S   UNL     1       4.578   0.557  22.994  0.00  0.00    -0.155 S 
ATOM     28  C   UNL     1       5.789  -0.136  24.144  0.00  0.00    +0.085 C 
ENDBRANCH  27   3
ENDBRANCH  26  27
ENDBRANCH  20  10
BRANCH   8   1
ATOM      1  S   UNL     1      -5.522   1.056  25.421  0.00  0.00    +0.067 S 
ATOM      4  O   UNL     1      -6.583   1.177  24.443  0.00  0.00    -0.152 OA
ATOM      5  O   UNL     1      -5.796   0.881  26.831  0.00  0.00    -0.152 OA
BRANCH   1  22
ATOM      2  S   UNL     1      -3.428  -0.882  26.060  0.00  0.00    -0.077 S 
ATOM     22  C   UNL     1      -4.649  -0.439  24.965  0.00  0.00    +0.143 A 
ATOM     23  C   UNL     1      -4.777  -1.283  23.911  0.00  0.00    +0.036 A 
ATOM     24  C   UNL     1      -3.836  -2.350  23.992  0.00  0.00    +0.010 A 
ATOM     25  C   UNL     1      -3.040  -2.254  25.112  0.00  0.00    +0.047 A 
ENDBRANCH   1  22
ENDBRANCH   8   1
TORSDOF 5
ENDMDL
MODEL 2
REMARK VINA RESULT:       1.9      2.174      4.386
REMARK  Name = 11886423
REMARK  6 active torsions:
REMARK  status: ('A' for Active; 'I' for Inactive)
REMARK    1  A    between atoms: S_1  and  N_8
REMARK    2  A    between atoms: S_1  and  C_22
REMARK    3  A    between atoms: S_3  and  C_27
REMARK    4  A    between atoms: S_3  and  C_28
REMARK    5  A    between atoms: N_10  and  C_20
REMARK    6  A    between atoms: C_26  and  C_27
REMARK                            x       y       z     vdW  Elec       q    Type
REMARK                         _______ _______ _______ _____ _____    ______ ____
ROOT
ATOM      6  O   UNL     1      -0.534  -0.267  21.794  0.00  0.00    -0.266 OA
ATOM      8  N   UNL     1      -3.907   1.389  25.065  0.00  0.00    -0.175 NA
ATOM      9  N   UNL     1      -1.885  -0.601  23.670  0.00  0.00    -0.310 N 
ATOM     11  C   UNL     1      -4.443  -0.535  23.567  0.00  0.00    +0.025 C 
ATOM     12  C   UNL     1      -3.320  -0.939  25.714  0.00  0.00    +0.052 C 
ATOM     13  C   UNL     1      -4.374  -1.486  24.755  0.00  0.00    +0.017 C 
ATOM     14  C   UNL     1      -4.846   0.876  24.026  0.00  0.00    +0.114 C 
ATOM     15  C   UNL     1      -3.751   0.450  26.216  0.00  0.00    +0.119 C 
ATOM     16  C   UNL     1      -3.094  -0.551  22.837  0.00  0.00    +0.130 C 
ATOM     17  C   UNL     1      -1.962  -0.860  25.042  0.00  0.00    +0.026 A 
ATOM     18  C   UNL     1      -0.839  -1.014  25.764  0.00  0.00    +0.024 A 
ATOM     19  C   UNL     1      -0.650  -0.477  23.001  0.00  0.00    +0.273 A 
ATOM     20  C   UNL     1       0.577  -0.633  23.845  0.00  0.00    +0.099 A 
ATOM     21  C   UNL     1       0.455  -0.896  25.151  0.00  0.00    +0.030 A 
ENDROOT
BRANCH  20  10
ATOM      7  O   UNL     1       2.084   1.782  23.549  0.00  0.00    -0.275 OA
ATOM     10  N   UNL     1       1.791  -0.508  23.238  0.00  0.00    -0.281 N 
ATOM     26  C   UNL     1       2.477   0.694  23.132  0.00  0.00    +0.227 C 
ATOM     29  H   UNL     1       2.089  -1.284  22.653  0.00  0.00    +0.155 HD
BRANCH  26  27
ATOM     27  C   UNL     1       3.798   0.552  22.413  0.00  0.00    +0.164 C 
BRANCH  27   3
ATOM      3  S   UNL     1       5.119   0.402  23.641  0.00  0.00    -0.155 S 
ATOM     28  C   UNL     1       4.982  -1.371  23.968  0.00  0.00    +0.085 C 
ENDBRANCH  27   3
ENDBRANCH  26  27
ENDBRANCH  20  10
BRANCH   8   1
ATOM      1  S   UNL     1      -4.090   3.040  25.476  0.00  0.00    +0.067 S 
ATOM      4  O   UNL     1      -4.256   3.143  26.910  0.00  0.00    -0.152 OA
ATOM      5  O   UNL     1      -5.013   3.661  24.550  0.00  0.00    -0.152 OA
BRANCH   1  22
ATOM      2  S   UNL     1      -1.366   2.839  24.430  0.00  0.00    -0.077 S 
ATOM     22  C   UNL     1      -2.531   3.854  25.138  0.00  0.00    +0.143 A 
ATOM     23  C   UNL     1      -2.104   5.124  25.342  0.00  0.00    +0.036 A 
ATOM     24  C   UNL     1      -0.760   5.290  24.900  0.00  0.00    +0.010 A 
ATOM     25  C   UNL     1      -0.238   4.125  24.383  0.00  0.00    +0.047 A 
ENDBRANCH   1  22
ENDBRANCH   8   1
TORSDOF 5
ENDMDL
