MODEL 1
REMARK VINA RESULT:      -0.2      0.000      0.000
REMARK  Name = 45361000
REMARK  10 active torsions:
REMARK  status: ('A' for Active; 'I' for Inactive)
REMARK    1  A    between atoms: O_6  and  C_27
REMARK    2  A    between atoms: O_6  and  C_32
REMARK    3  A    between atoms: N_7  and  C_19
REMARK    4  A    between atoms: N_8  and  C_21
REMARK    5  A    between atoms: N_10  and  C_30
REMARK    6  A    between atoms: C_16  and  C_20
REMARK    7  A    between atoms: C_19  and  C_23
REMARK    8  A    between atoms: C_20  and  C_22
REMARK    9  A    between atoms: C_22  and  C_24
REMARK   10  A    between atoms: C_30  and  C_31
REMARK                            x       y       z     vdW  Elec       q    Type
REMARK                         _______ _______ _______ _____ _____    ______ ____
ROOT
ATOM      4  O   UNL     1      -1.307   0.488  26.562  0.00  0.00    -0.274 OA
ATOM      7  N   UNL     1      -0.888  -0.191  23.981  0.00  0.00    -0.286 NA
ATOM      8  N   UNL     1      -2.414   3.134  23.963  0.00  0.00    -0.296 NA
ATOM      9  N   UNL     1      -0.758   2.692  26.282  0.00  0.00    -0.312 N 
ATOM     12  C   UNL     1      -1.588   2.054  23.379  0.00  0.00    +0.084 C 
ATOM     13  C   UNL     1      -0.674   1.227  24.331  0.00  0.00    +0.161 C 
ATOM     14  C   UNL     1      -2.404   0.952  22.680  0.00  0.00    +0.036 C 
ATOM     15  C   UNL     1      -1.448  -0.221  22.635  0.00  0.00    +0.087 C 
ATOM     16  C   UNL     1      -1.633   4.249  24.567  0.00  0.00    +0.074 C 
ATOM     17  C   UNL     1      -0.960   1.405  25.819  0.00  0.00    +0.232 C 
ATOM     18  C   UNL     1      -0.428   3.809  25.420  0.00  0.00    +0.123 C 
ATOM     21  C   UNL     1      -3.366   3.659  22.968  0.00  0.00    +0.105 C 
ATOM     37  H   UNL     1      -0.908   2.874  27.269  0.00  0.00    +0.149 HD
ENDROOT
BRANCH   7  19
ATOM     19  C   UNL     1       0.318  -1.001  24.093  0.00  0.00    +0.120 C 
BRANCH  19  23
ATOM     23  C   UNL     1       1.401  -0.525  23.161  0.00  0.00    -0.030 A 
ATOM     25  C   UNL     1       2.584   0.001  23.678  0.00  0.00    +0.051 A 
ATOM     26  C   UNL     1       1.220  -0.611  21.780  0.00  0.00    +0.005 A 
ATOM     27  C   UNL     1       3.588   0.441  22.815  0.00  0.00    +0.130 A 
ATOM     28  C   UNL     1       2.223  -0.169  20.917  0.00  0.00    +0.004 A 
ATOM     29  C   UNL     1       3.407   0.356  21.435  0.00  0.00    +0.046 A 
BRANCH  27   6
ATOM      6  O   UNL     1       4.742   0.956  23.321  0.00  0.00    -0.406 OA
BRANCH   6  32
ATOM      1  F   UNL     1       6.900   0.222  23.511  0.00  0.00    -0.133 F 
ATOM      2  F   UNL     1       5.256  -1.201  23.745  0.00  0.00    -0.133 F 
ATOM      3  F   UNL     1       5.626   0.274  25.316  0.00  0.00    -0.133 F 
ATOM     32  C   UNL     1       5.642   0.074  23.982  0.00  0.00    +0.575 C 
ENDBRANCH   6  32
ENDBRANCH  27   6
ENDBRANCH  19  23
ENDBRANCH   7  19
BRANCH  16  20
ATOM     20  C   UNL     1      -2.541   5.122  25.461  0.00  0.00    +0.029 C 
BRANCH  20  22
ATOM     22  C   UNL     1      -3.247   4.271  26.500  0.00  0.00    +0.097 C 
BRANCH  22  24
ATOM      5  O   UNL     1      -5.472   4.079  25.566  0.00  0.00    -0.276 OA
ATOM     10  N   UNL     1      -4.176   2.167  25.795  0.00  0.00    -0.311 N 
ATOM     24  C   UNL     1      -4.429   3.526  25.903  0.00  0.00    +0.213 C 
ATOM     38  H   UNL     1      -3.287   1.795  26.117  0.00  0.00    +0.149 HD
BRANCH  10  30
ATOM     30  C   UNL     1      -5.146   1.242  25.258  0.00  0.00    +0.141 C 
BRANCH  30  31
ATOM     11  N   UNL     1      -3.266  -1.964  25.976  0.00  0.00    -0.263 NA
ATOM     31  C   UNL     1      -4.567  -0.135  25.076  0.00  0.00    -0.012 A 
ATOM     33  C   UNL     1      -4.769  -0.848  23.899  0.00  0.00    +0.008 A 
ATOM     34  C   UNL     1      -3.815  -0.733  26.075  0.00  0.00    +0.115 A 
ATOM     35  C   UNL     1      -4.220  -2.118  23.759  0.00  0.00    +0.020 A 
ATOM     36  C   UNL     1      -3.483  -2.626  24.817  0.00  0.00    +0.111 A 
ENDBRANCH  30  31
ENDBRANCH  10  30
ENDBRANCH  22  24
ENDBRANCH  20  22
ENDBRANCH  16  20
TORSDOF 9
ENDMDL
MODEL 2
REMARK VINA RESULT:       0.8      1.329      1.760
REMARK  Name = 45361000
REMARK  10 active torsions:
REMARK  status: ('A' for Active; 'I' for Inactive)
REMARK    1  A    between atoms: O_6  and  C_27
REMARK    2  A    between atoms: O_6  and  C_32
REMARK    3  A    between atoms: N_7  and  C_19
REMARK    4  A    between atoms: N_8  and  C_21
REMARK    5  A    between atoms: N_10  and  C_30
REMARK    6  A    between atoms: C_16  and  C_20
REMARK    7  A    between atoms: C_19  and  C_23
REMARK    8  A    between atoms: C_20  and  C_22
REMARK    9  A    between atoms: C_22  and  C_24
REMARK   10  A    between atoms: C_30  and  C_31
REMARK                            x       y       z     vdW  Elec       q    Type
REMARK                         _______ _______ _______ _____ _____    ______ ____
ROOT
ATOM      4  O   UNL     1      -1.485   1.714  26.548  0.00  0.00    -0.274 OA
ATOM      7  N   UNL     1      -0.592   1.820  24.001  0.00  0.00    -0.286 NA
ATOM      8  N   UNL     1      -3.965   3.239  23.997  0.00  0.00    -0.296 NA
ATOM      9  N   UNL     1      -2.563   3.731  26.468  0.00  0.00    -0.312 N 
ATOM     12  C   UNL     1      -2.599   3.073  23.454  0.00  0.00    +0.084 C 
ATOM     13  C   UNL     1      -1.413   2.959  24.458  0.00  0.00    +0.161 C 
ATOM     14  C   UNL     1      -2.416   1.806  22.597  0.00  0.00    +0.036 C 
ATOM     15  C   UNL     1      -0.918   1.593  22.598  0.00  0.00    +0.087 C 
ATOM     16  C   UNL     1      -4.177   4.502  24.756  0.00  0.00    +0.074 C 
ATOM     17  C   UNL     1      -1.816   2.712  25.909  0.00  0.00    +0.232 C 
ATOM     18  C   UNL     1      -3.037   4.879  25.720  0.00  0.00    +0.123 C 
ATOM     21  C   UNL     1      -4.971   3.111  22.927  0.00  0.00    +0.105 C 
ATOM     37  H   UNL     1      -2.845   3.641  27.440  0.00  0.00    +0.149 HD
ENDROOT
BRANCH   7  19
ATOM     19  C   UNL     1       0.836   2.019  24.209  0.00  0.00    +0.120 C 
BRANCH  19  23
ATOM     23  C   UNL     1       1.662   1.114  23.333  0.00  0.00    -0.030 A 
ATOM     25  C   UNL     1       3.052   1.208  23.348  0.00  0.00    +0.051 A 
ATOM     26  C   UNL     1       1.033   0.181  22.507  0.00  0.00    +0.005 A 
ATOM     27  C   UNL     1       3.817   0.369  22.537  0.00  0.00    +0.130 A 
ATOM     28  C   UNL     1       1.798  -0.657  21.695  0.00  0.00    +0.004 A 
ATOM     29  C   UNL     1       3.190  -0.563  21.711  0.00  0.00    +0.046 A 
BRANCH  27   6
ATOM      6  O   UNL     1       5.175   0.464  22.550  0.00  0.00    -0.406 OA
BRANCH   6  32
ATOM      1  F   UNL     1       7.171  -0.295  23.370  0.00  0.00    -0.133 F 
ATOM      2  F   UNL     1       5.311  -1.231  24.036  0.00  0.00    -0.133 F 
ATOM      3  F   UNL     1       5.800   0.785  24.726  0.00  0.00    -0.133 F 
ATOM     32  C   UNL     1       5.876  -0.056  23.674  0.00  0.00    +0.575 C 
ENDBRANCH   6  32
ENDBRANCH  27   6
ENDBRANCH  19  23
ENDBRANCH   7  19
BRANCH  16  20
ATOM     20  C   UNL     1      -5.478   4.422  25.584  0.00  0.00    +0.029 C 
BRANCH  20  22
ATOM     22  C   UNL     1      -5.515   3.145  26.401  0.00  0.00    +0.097 C 
BRANCH  22  24
ATOM      5  O   UNL     1      -7.065   1.880  25.036  0.00  0.00    -0.276 OA
ATOM     10  N   UNL     1      -4.965   0.993  25.476  0.00  0.00    -0.311 N 
ATOM     24  C   UNL     1      -5.958   1.958  25.563  0.00  0.00    +0.213 C 
ATOM     38  H   UNL     1      -4.084   1.136  25.961  0.00  0.00    +0.149 HD
BRANCH  10  30
ATOM     30  C   UNL     1      -5.143  -0.232  24.735  0.00  0.00    +0.141 C 
BRANCH  30  31
ATOM     11  N   UNL     1      -1.560  -1.303  25.323  0.00  0.00    -0.263 NA
ATOM     31  C   UNL     1      -3.886  -1.060  24.709  0.00  0.00    -0.012 A 
ATOM     33  C   UNL     1      -3.856  -2.298  24.076  0.00  0.00    +0.008 A 
ATOM     34  C   UNL     1      -2.722  -0.611  25.312  0.00  0.00    +0.115 A 
ATOM     35  C   UNL     1      -2.679  -3.039  24.065  0.00  0.00    +0.020 A 
ATOM     36  C   UNL     1      -1.569  -2.501  24.698  0.00  0.00    +0.111 A 
ENDBRANCH  30  31
ENDBRANCH  10  30
ENDBRANCH  22  24
ENDBRANCH  20  22
ENDBRANCH  16  20
TORSDOF 9
ENDMDL
MODEL 3
REMARK VINA RESULT:       1.3      2.919      7.391
REMARK  Name = 45361000
REMARK  10 active torsions:
REMARK  status: ('A' for Active; 'I' for Inactive)
REMARK    1  A    between atoms: O_6  and  C_27
REMARK    2  A    between atoms: O_6  and  C_32
REMARK    3  A    between atoms: N_7  and  C_19
REMARK    4  A    between atoms: N_8  and  C_21
REMARK    5  A    between atoms: N_10  and  C_30
REMARK    6  A    between atoms: C_16  and  C_20
REMARK    7  A    between atoms: C_19  and  C_23
REMARK    8  A    between atoms: C_20  and  C_22
REMARK    9  A    between atoms: C_22  and  C_24
REMARK   10  A    between atoms: C_30  and  C_31
REMARK                            x       y       z     vdW  Elec       q    Type
REMARK                         _______ _______ _______ _____ _____    ______ ____
ROOT
ATOM      4  O   UNL     1      -3.103   2.022  22.541  0.00  0.00    -0.274 OA
ATOM      7  N   UNL     1      -5.093   1.147  24.144  0.00  0.00    -0.286 NA
ATOM      8  N   UNL     1      -2.372  -1.285  24.418  0.00  0.00    -0.296 NA
ATOM      9  N   UNL     1      -1.415   1.397  23.956  0.00  0.00    -0.312 N 
ATOM     12  C   UNL     1      -3.577  -0.585  24.916  0.00  0.00    +0.084 C 
ATOM     13  C   UNL     1      -3.716   0.940  24.634  0.00  0.00    +0.161 C 
ATOM     14  C   UNL     1      -4.899  -1.138  24.352  0.00  0.00    +0.036 C 
ATOM     15  C   UNL     1      -5.878  -0.005  24.574  0.00  0.00    +0.087 C 
ATOM     16  C   UNL     1      -1.094  -0.816  25.021  0.00  0.00    +0.074 C 
ATOM     17  C   UNL     1      -2.746   1.497  23.595  0.00  0.00    +0.232 C 
ATOM     18  C   UNL     1      -0.960   0.714  25.150  0.00  0.00    +0.123 C 
ATOM     21  C   UNL     1      -2.509  -2.743  24.582  0.00  0.00    +0.105 C 
ATOM     37  H   UNL     1      -0.718   1.769  23.319  0.00  0.00    +0.149 HD
ENDROOT
BRANCH   7  19
ATOM     19  C   UNL     1      -5.679   2.406  24.582  0.00  0.00    +0.120 C 
BRANCH  19  23
ATOM     23  C   UNL     1      -4.681   3.264  25.315  0.00  0.00    -0.030 A 
ATOM     25  C   UNL     1      -3.698   3.950  24.605  0.00  0.00    +0.051 A 
ATOM     26  C   UNL     1      -4.742   3.370  26.705  0.00  0.00    +0.005 A 
ATOM     27  C   UNL     1      -2.773   4.745  25.283  0.00  0.00    +0.130 A 
ATOM     28  C   UNL     1      -3.817   4.164  27.384  0.00  0.00    +0.004 A 
ATOM     29  C   UNL     1      -2.833   4.851  26.673  0.00  0.00    +0.046 A 
BRANCH  27   6
ATOM      6  O   UNL     1      -1.813   5.414  24.589  0.00  0.00    -0.406 OA
BRANCH   6  32
ATOM      1  F   UNL     1      -0.330   4.003  25.610  0.00  0.00    -0.133 F 
ATOM      2  F   UNL     1       0.368   5.933  24.857  0.00  0.00    -0.133 F 
ATOM      3  F   UNL     1      -0.147   4.354  23.436  0.00  0.00    -0.133 F 
ATOM     32  C   UNL     1      -0.483   4.908  24.619  0.00  0.00    +0.575 C 
ENDBRANCH   6  32
ENDBRANCH  27   6
ENDBRANCH  19  23
ENDBRANCH   7  19
BRANCH  16  20
ATOM     20  C   UNL     1       0.109  -1.319  24.194  0.00  0.00    +0.029 C 
BRANCH  20  22
ATOM     22  C   UNL     1      -0.043  -0.929  22.736  0.00  0.00    +0.097 C 
BRANCH  22  24
ATOM      5  O   UNL     1       1.663  -0.604  21.048  0.00  0.00    -0.276 OA
ATOM     10  N   UNL     1       1.873   0.482  23.088  0.00  0.00    -0.311 N 
ATOM     24  C   UNL     1       1.245  -0.351  22.174  0.00  0.00    +0.213 C 
ATOM     38  H   UNL     1       1.461   0.619  24.007  0.00  0.00    +0.149 HD
BRANCH  10  30
ATOM     30  C   UNL     1       3.117   1.153  22.793  0.00  0.00    +0.141 C 
BRANCH  30  31
ATOM     11  N   UNL     1       5.223  -1.736  24.036  0.00  0.00    -0.263 NA
ATOM     31  C   UNL     1       4.306   0.369  23.281  0.00  0.00    -0.012 A 
ATOM     33  C   UNL     1       5.549   0.975  23.436  0.00  0.00    +0.008 A 
ATOM     34  C   UNL     1       4.197  -0.977  23.592  0.00  0.00    +0.115 A 
ATOM     35  C   UNL     1       6.628   0.227  23.891  0.00  0.00    +0.020 A 
ATOM     36  C   UNL     1       6.415  -1.113  24.175  0.00  0.00    +0.111 A 
ENDBRANCH  30  31
ENDBRANCH  10  30
ENDBRANCH  22  24
ENDBRANCH  20  22
ENDBRANCH  16  20
TORSDOF 9
ENDMDL
MODEL 4
REMARK VINA RESULT:       2.1      2.599      6.950
REMARK  Name = 45361000
REMARK  10 active torsions:
REMARK  status: ('A' for Active; 'I' for Inactive)
REMARK    1  A    between atoms: O_6  and  C_27
REMARK    2  A    between atoms: O_6  and  C_32
REMARK    3  A    between atoms: N_7  and  C_19
REMARK    4  A    between atoms: N_8  and  C_21
REMARK    5  A    between atoms: N_10  and  C_30
REMARK    6  A    between atoms: C_16  and  C_20
REMARK    7  A    between atoms: C_19  and  C_23
REMARK    8  A    between atoms: C_20  and  C_22
REMARK    9  A    between atoms: C_22  and  C_24
REMARK   10  A    between atoms: C_30  and  C_31
REMARK                            x       y       z     vdW  Elec       q    Type
REMARK                         _______ _______ _______ _____ _____    ______ ____
ROOT
ATOM      4  O   UNL     1      -2.905   2.003  22.418  0.00  0.00    -0.274 OA
ATOM      7  N   UNL     1      -4.816   1.587  24.281  0.00  0.00    -0.286 NA
ATOM      8  N   UNL     1      -2.582  -1.309  24.397  0.00  0.00    -0.296 NA
ATOM      9  N   UNL     1      -1.206   1.120  23.672  0.00  0.00    -0.312 N 
ATOM     12  C   UNL     1      -3.566  -0.373  24.983  0.00  0.00    +0.084 C 
ATOM     13  C   UNL     1      -3.453   1.139  24.627  0.00  0.00    +0.161 C 
ATOM     14  C   UNL     1      -5.026  -0.683  24.604  0.00  0.00    +0.036 C 
ATOM     15  C   UNL     1      -5.744   0.624  24.865  0.00  0.00    +0.087 C 
ATOM     16  C   UNL     1      -1.175  -1.071  24.825  0.00  0.00    +0.074 C 
ATOM     17  C   UNL     1      -2.528   1.460  23.456  0.00  0.00    +0.232 C 
ATOM     18  C   UNL     1      -0.745   0.408  24.847  0.00  0.00    +0.123 C 
ATOM     21  C   UNL     1      -2.966  -2.706  24.663  0.00  0.00    +0.105 C 
ATOM     37  H   UNL     1      -0.533   1.328  22.940  0.00  0.00    +0.149 HD
ENDROOT
BRANCH   7  19
ATOM     19  C   UNL     1      -5.101   2.951  24.706  0.00  0.00    +0.120 C 
BRANCH  19  23
ATOM     23  C   UNL     1      -3.840   3.746  24.920  0.00  0.00    -0.030 A 
ATOM     25  C   UNL     1      -2.913   3.339  25.878  0.00  0.00    +0.051 A 
ATOM     26  C   UNL     1      -3.601   4.891  24.159  0.00  0.00    +0.005 A 
ATOM     27  C   UNL     1      -1.745   4.076  26.076  0.00  0.00    +0.130 A 
ATOM     28  C   UNL     1      -2.434   5.629  24.357  0.00  0.00    +0.004 A 
ATOM     29  C   UNL     1      -1.506   5.221  25.316  0.00  0.00    +0.046 A 
BRANCH  27   6
ATOM      6  O   UNL     1      -0.841   3.679  27.013  0.00  0.00    -0.406 OA
BRANCH   6  32
ATOM      1  F   UNL     1      -0.287   1.469  26.812  0.00  0.00    -0.133 F 
ATOM      2  F   UNL     1       1.242   2.909  27.417  0.00  0.00    -0.133 F 
ATOM      3  F   UNL     1       0.530   2.912  25.351  0.00  0.00    -0.133 F 
ATOM     32  C   UNL     1       0.153   2.734  26.634  0.00  0.00    +0.575 C 
ENDBRANCH   6  32
ENDBRANCH  27   6
ENDBRANCH  19  23
ENDBRANCH   7  19
BRANCH  16  20
ATOM     20  C   UNL     1      -0.195  -1.826  23.902  0.00  0.00    +0.029 C 
BRANCH  20  22
ATOM     22  C   UNL     1      -0.345  -1.359  22.466  0.00  0.00    +0.097 C 
BRANCH  22  24
ATOM      5  O   UNL     1       1.335  -0.738  20.836  0.00  0.00    -0.276 OA
ATOM     10  N   UNL     1       1.469   0.133  22.983  0.00  0.00    -0.311 N 
ATOM     24  C   UNL     1       0.901  -0.638  21.980  0.00  0.00    +0.213 C 
ATOM     38  H   UNL     1       1.049   0.142  23.909  0.00  0.00    +0.149 HD
BRANCH  10  30
ATOM     30  C   UNL     1       2.664   0.915  22.772  0.00  0.00    +0.141 C 
BRANCH  30  31
ATOM     11  N   UNL     1       4.929  -1.839  24.042  0.00  0.00    -0.263 NA
ATOM     31  C   UNL     1       3.895   0.205  23.270  0.00  0.00    -0.012 A 
ATOM     33  C   UNL     1       5.099   0.883  23.426  0.00  0.00    +0.008 A 
ATOM     34  C   UNL     1       3.863  -1.143  23.588  0.00  0.00    +0.115 A 
ATOM     35  C   UNL     1       6.219   0.201  23.890  0.00  0.00    +0.020 A 
ATOM     36  C   UNL     1       6.082  -1.147  24.181  0.00  0.00    +0.111 A 
ENDBRANCH  30  31
ENDBRANCH  10  30
ENDBRANCH  22  24
ENDBRANCH  20  22
ENDBRANCH  16  20
TORSDOF 9
ENDMDL
MODEL 5
REMARK VINA RESULT:       2.4      1.411      3.906
REMARK  Name = 45361000
REMARK  10 active torsions:
REMARK  status: ('A' for Active; 'I' for Inactive)
REMARK    1  A    between atoms: O_6  and  C_27
REMARK    2  A    between atoms: O_6  and  C_32
REMARK    3  A    between atoms: N_7  and  C_19
REMARK    4  A    between atoms: N_8  and  C_21
REMARK    5  A    between atoms: N_10  and  C_30
REMARK    6  A    between atoms: C_16  and  C_20
REMARK    7  A    between atoms: C_19  and  C_23
REMARK    8  A    between atoms: C_20  and  C_22
REMARK    9  A    between atoms: C_22  and  C_24
REMARK   10  A    between atoms: C_30  and  C_31
REMARK                            x       y       z     vdW  Elec       q    Type
REMARK                         _______ _______ _______ _____ _____    ______ ____
ROOT
ATOM      4  O   UNL     1      -1.030   1.779  23.741  0.00  0.00    -0.274 OA
ATOM      7  N   UNL     1      -0.081  -0.723  24.116  0.00  0.00    -0.286 NA
ATOM      8  N   UNL     1      -3.364  -0.587  25.726  0.00  0.00    -0.296 NA
ATOM      9  N   UNL     1      -3.198   1.124  23.410  0.00  0.00    -0.312 N 
ATOM     12  C   UNL     1      -2.239  -1.291  25.074  0.00  0.00    +0.084 C 
ATOM     13  C   UNL     1      -1.531  -0.600  23.870  0.00  0.00    +0.161 C 
ATOM     14  C   UNL     1      -1.056  -1.585  26.015  0.00  0.00    +0.036 C 
ATOM     15  C   UNL     1       0.101  -1.814  25.066  0.00  0.00    +0.087 C 
ATOM     16  C   UNL     1      -4.549  -0.373  24.849  0.00  0.00    +0.074 C 
ATOM     17  C   UNL     1      -1.866   0.878  23.686  0.00  0.00    +0.232 C 
ATOM     18  C   UNL     1      -4.220   0.096  23.418  0.00  0.00    +0.123 C 
ATOM     21  C   UNL     1      -3.766  -1.278  26.964  0.00  0.00    +0.105 C 
ATOM     37  H   UNL     1      -3.484   2.085  23.253  0.00  0.00    +0.149 HD
ENDROOT
BRANCH   7  19
ATOM     19  C   UNL     1       0.695  -0.917  22.899  0.00  0.00    +0.120 C 
BRANCH  19  23
ATOM     23  C   UNL     1       1.902  -0.017  22.854  0.00  0.00    -0.030 A 
ATOM     25  C   UNL     1       3.180  -0.568  22.778  0.00  0.00    +0.051 A 
ATOM     26  C   UNL     1       1.739   1.368  22.888  0.00  0.00    +0.005 A 
ATOM     27  C   UNL     1       4.298   0.266  22.735  0.00  0.00    +0.130 A 
ATOM     28  C   UNL     1       2.856   2.202  22.847  0.00  0.00    +0.004 A 
ATOM     29  C   UNL     1       4.136   1.651  22.770  0.00  0.00    +0.046 A 
BRANCH  27   6
ATOM      6  O   UNL     1       5.546  -0.272  22.663  0.00  0.00    -0.406 OA
BRANCH   6  32
ATOM      1  F   UNL     1       6.030  -1.983  24.101  0.00  0.00    -0.133 F 
ATOM      2  F   UNL     1       5.614   0.009  24.902  0.00  0.00    -0.133 F 
ATOM      3  F   UNL     1       7.497  -0.349  23.851  0.00  0.00    -0.133 F 
ATOM     32  C   UNL     1       6.185  -0.660  23.873  0.00  0.00    +0.575 C 
ENDBRANCH   6  32
ENDBRANCH  27   6
ENDBRANCH  19  23
ENDBRANCH   7  19
BRANCH  16  20
ATOM     20  C   UNL     1      -5.500   0.671  25.472  0.00  0.00    +0.029 C 
BRANCH  20  22
ATOM     22  C   UNL     1      -5.821   1.768  24.473  0.00  0.00    +0.097 C 
BRANCH  22  24
ATOM      5  O   UNL     1      -4.517   3.677  23.754  0.00  0.00    -0.276 OA
ATOM     10  N   UNL     1      -4.671   3.205  26.021  0.00  0.00    -0.311 N 
ATOM     24  C   UNL     1      -4.936   2.986  24.678  0.00  0.00    +0.213 C 
ATOM     38  H   UNL     1      -5.048   2.568  26.718  0.00  0.00    +0.149 HD
BRANCH  10  30
ATOM     30  C   UNL     1      -3.850   4.302  26.476  0.00  0.00    +0.141 C 
BRANCH  30  31
ATOM     11  N   UNL     1      -0.351   2.884  26.208  0.00  0.00    -0.263 NA
ATOM     31  C   UNL     1      -2.413   4.138  26.060  0.00  0.00    -0.012 A 
ATOM     33  C   UNL     1      -1.812   5.036  25.185  0.00  0.00    +0.008 A 
ATOM     34  C   UNL     1      -1.646   3.088  26.539  0.00  0.00    +0.115 A 
ATOM     35  C   UNL     1      -0.482   4.860  24.820  0.00  0.00    +0.020 A 
ATOM     36  C   UNL     1       0.198   3.777  25.355  0.00  0.00    +0.111 A 
ENDBRANCH  30  31
ENDBRANCH  10  30
ENDBRANCH  22  24
ENDBRANCH  20  22
ENDBRANCH  16  20
TORSDOF 9
ENDMDL
MODEL 6
REMARK VINA RESULT:       2.8      2.092      4.066
REMARK  Name = 45361000
REMARK  10 active torsions:
REMARK  status: ('A' for Active; 'I' for Inactive)
REMARK    1  A    between atoms: O_6  and  C_27
REMARK    2  A    between atoms: O_6  and  C_32
REMARK    3  A    between atoms: N_7  and  C_19
REMARK    4  A    between atoms: N_8  and  C_21
REMARK    5  A    between atoms: N_10  and  C_30
REMARK    6  A    between atoms: C_16  and  C_20
REMARK    7  A    between atoms: C_19  and  C_23
REMARK    8  A    between atoms: C_20  and  C_22
REMARK    9  A    between atoms: C_22  and  C_24
REMARK   10  A    between atoms: C_30  and  C_31
REMARK                            x       y       z     vdW  Elec       q    Type
REMARK                         _______ _______ _______ _____ _____    ______ ____
ROOT
ATOM      4  O   UNL     1       0.042   1.109  24.594  0.00  0.00    -0.274 OA
ATOM      7  N   UNL     1      -1.330  -1.218  24.638  0.00  0.00    -0.286 NA
ATOM      8  N   UNL     1      -3.788   1.465  25.030  0.00  0.00    -0.296 NA
ATOM      9  N   UNL     1      -1.541   2.254  23.403  0.00  0.00    -0.312 N 
ATOM     12  C   UNL     1      -3.369   0.100  24.642  0.00  0.00    +0.084 C 
ATOM     13  C   UNL     1      -1.983  -0.083  23.957  0.00  0.00    +0.161 C 
ATOM     14  C   UNL     1      -3.275  -0.884  25.823  0.00  0.00    +0.036 C 
ATOM     15  C   UNL     1      -2.382  -1.986  25.294  0.00  0.00    +0.087 C 
ATOM     16  C   UNL     1      -3.965   2.402  23.887  0.00  0.00    +0.074 C 
ATOM     17  C   UNL     1      -1.056   1.127  24.041  0.00  0.00    +0.232 C 
ATOM     18  C   UNL     1      -2.863   2.333  22.813  0.00  0.00    +0.123 C 
ATOM     21  C   UNL     1      -5.012   1.423  25.850  0.00  0.00    +0.105 C 
ATOM     37  H   UNL     1      -0.963   3.089  23.401  0.00  0.00    +0.149 HD
ENDROOT
BRANCH   7  19
ATOM     19  C   UNL     1      -0.524  -2.040  23.746  0.00  0.00    +0.120 C 
BRANCH  19  23
ATOM     23  C   UNL     1       0.580  -1.247  23.097  0.00  0.00    -0.030 A 
ATOM     25  C   UNL     1       1.696  -0.868  23.842  0.00  0.00    +0.051 A 
ATOM     26  C   UNL     1       0.485  -0.893  21.751  0.00  0.00    +0.005 A 
ATOM     27  C   UNL     1       2.719  -0.134  23.241  0.00  0.00    +0.130 A 
ATOM     28  C   UNL     1       1.507  -0.158  21.151  0.00  0.00    +0.004 A 
ATOM     29  C   UNL     1       2.624   0.221  21.895  0.00  0.00    +0.046 A 
BRANCH  27   6
ATOM      6  O   UNL     1       3.808   0.237  23.969  0.00  0.00    -0.406 OA
BRANCH   6  32
ATOM      1  F   UNL     1       4.681  -1.867  23.766  0.00  0.00    -0.133 F 
ATOM      2  F   UNL     1       5.715  -0.389  25.002  0.00  0.00    -0.133 F 
ATOM      3  F   UNL     1       5.745  -0.173  22.827  0.00  0.00    -0.133 F 
ATOM     32  C   UNL     1       4.985  -0.555  23.874  0.00  0.00    +0.575 C 
ENDBRANCH   6  32
ENDBRANCH  27   6
ENDBRANCH  19  23
ENDBRANCH   7  19
BRANCH  16  20
ATOM     20  C   UNL     1      -4.031   3.861  24.390  0.00  0.00    +0.029 C 
BRANCH  20  22
ATOM     22  C   UNL     1      -3.360   3.991  25.744  0.00  0.00    +0.097 C 
BRANCH  22  24
ATOM      5  O   UNL     1      -1.392   5.204  25.023  0.00  0.00    -0.276 OA
ATOM     10  N   UNL     1      -1.127   3.232  26.217  0.00  0.00    -0.311 N 
ATOM     24  C   UNL     1      -1.866   4.234  25.607  0.00  0.00    +0.213 C 
ATOM     38  H   UNL     1      -1.607   2.455  26.663  0.00  0.00    +0.149 HD
BRANCH  10  30
ATOM     30  C   UNL     1       0.317   3.233  26.223  0.00  0.00    +0.141 C 
BRANCH  30  31
ATOM     11  N   UNL     1       2.803   2.646  29.016  0.00  0.00    -0.263 NA
ATOM     31  C   UNL     1       0.873   2.931  27.589  0.00  0.00    -0.012 A 
ATOM     33  C   UNL     1       0.030   2.662  28.662  0.00  0.00    +0.008 A 
ATOM     34  C   UNL     1       2.239   2.911  27.816  0.00  0.00    +0.115 A 
ATOM     35  C   UNL     1       0.572   2.384  29.912  0.00  0.00    +0.020 A 
ATOM     36  C   UNL     1       1.953   2.388  30.035  0.00  0.00    +0.111 A 
ENDBRANCH  30  31
ENDBRANCH  10  30
ENDBRANCH  22  24
ENDBRANCH  20  22
ENDBRANCH  16  20
TORSDOF 9
ENDMDL
MODEL 7
REMARK VINA RESULT:       3.3      1.582      4.215
REMARK  Name = 45361000
REMARK  10 active torsions:
REMARK  status: ('A' for Active; 'I' for Inactive)
REMARK    1  A    between atoms: O_6  and  C_27
REMARK    2  A    between atoms: O_6  and  C_32
REMARK    3  A    between atoms: N_7  and  C_19
REMARK    4  A    between atoms: N_8  and  C_21
REMARK    5  A    between atoms: N_10  and  C_30
REMARK    6  A    between atoms: C_16  and  C_20
REMARK    7  A    between atoms: C_19  and  C_23
REMARK    8  A    between atoms: C_20  and  C_22
REMARK    9  A    between atoms: C_22  and  C_24
REMARK   10  A    between atoms: C_30  and  C_31
REMARK                            x       y       z     vdW  Elec       q    Type
REMARK                         _______ _______ _______ _____ _____    ______ ____
ROOT
ATOM      4  O   UNL     1      -2.062   1.551  22.910  0.00  0.00    -0.274 OA
ATOM      7  N   UNL     1      -0.100   2.147  24.670  0.00  0.00    -0.286 NA
ATOM      8  N   UNL     1      -1.866  -0.768  26.005  0.00  0.00    -0.296 NA
ATOM      9  N   UNL     1      -1.839  -0.717  23.121  0.00  0.00    -0.312 N 
ATOM     12  C   UNL     1      -0.685   0.113  25.860  0.00  0.00    +0.084 C 
ATOM     13  C   UNL     1      -0.378   0.713  24.456  0.00  0.00    +0.161 C 
ATOM     14  C   UNL     1      -0.733   1.373  26.744  0.00  0.00    +0.036 C 
ATOM     15  C   UNL     1       0.251   2.309  26.076  0.00  0.00    +0.087 C 
ATOM     16  C   UNL     1      -1.792  -2.031  25.220  0.00  0.00    +0.074 C 
ATOM     17  C   UNL     1      -1.507   0.587  23.437  0.00  0.00    +0.232 C 
ATOM     18  C   UNL     1      -1.263  -1.872  23.781  0.00  0.00    +0.123 C 
ATOM     21  C   UNL     1      -2.126  -1.064  27.424  0.00  0.00    +0.105 C 
ATOM     37  H   UNL     1      -2.568  -0.872  22.431  0.00  0.00    +0.149 HD
ENDROOT
BRANCH   7  19
ATOM     19  C   UNL     1       0.927   2.674  23.783  0.00  0.00    +0.120 C 
BRANCH  19  23
ATOM     23  C   UNL     1       1.703   1.575  23.106  0.00  0.00    -0.030 A 
ATOM     25  C   UNL     1       3.090   1.523  23.229  0.00  0.00    +0.051 A 
ATOM     26  C   UNL     1       1.032   0.608  22.357  0.00  0.00    +0.005 A 
ATOM     27  C   UNL     1       3.809   0.505  22.602  0.00  0.00    +0.130 A 
ATOM     28  C   UNL     1       1.750  -0.410  21.729  0.00  0.00    +0.004 A 
ATOM     29  C   UNL     1       3.139  -0.461  21.852  0.00  0.00    +0.046 A 
BRANCH  27   6
ATOM      6  O   UNL     1       5.164   0.456  22.721  0.00  0.00    -0.406 OA
BRANCH   6  32
ATOM      1  F   UNL     1       5.546   0.626  24.969  0.00  0.00    -0.133 F 
ATOM      2  F   UNL     1       7.049  -0.317  23.693  0.00  0.00    -0.133 F 
ATOM      3  F   UNL     1       5.177  -1.370  24.096  0.00  0.00    -0.133 F 
ATOM     32  C   UNL     1       5.719  -0.154  23.880  0.00  0.00    +0.575 C 
ENDBRANCH   6  32
ENDBRANCH  27   6
ENDBRANCH  19  23
ENDBRANCH   7  19
BRANCH  16  20
ATOM     20  C   UNL     1      -3.183  -2.694  25.131  0.00  0.00    +0.029 C 
BRANCH  20  22
ATOM     22  C   UNL     1      -4.251  -1.774  25.692  0.00  0.00    +0.097 C 
BRANCH  22  24
ATOM      5  O   UNL     1      -4.613  -0.805  23.503  0.00  0.00    -0.276 OA
ATOM     10  N   UNL     1      -4.872   0.529  25.384  0.00  0.00    -0.311 N 
ATOM     24  C   UNL     1      -4.593  -0.656  24.721  0.00  0.00    +0.213 C 
ATOM     38  H   UNL     1      -4.814   0.563  26.399  0.00  0.00    +0.149 HD
BRANCH  10  30
ATOM     30  C   UNL     1      -5.224   1.741  24.683  0.00  0.00    +0.141 C 
BRANCH  30  31
ATOM     11  N   UNL     1      -2.797   4.584  24.086  0.00  0.00    -0.263 NA
ATOM     31  C   UNL     1      -4.242   2.850  24.952  0.00  0.00    -0.012 A 
ATOM     33  C   UNL     1      -3.864   3.174  26.251  0.00  0.00    +0.008 A 
ATOM     34  C   UNL     1      -3.684   3.579  23.914  0.00  0.00    +0.115 A 
ATOM     35  C   UNL     1      -2.953   4.201  26.468  0.00  0.00    +0.020 A 
ATOM     36  C   UNL     1      -2.453   4.869  25.362  0.00  0.00    +0.111 A 
ENDBRANCH  30  31
ENDBRANCH  10  30
ENDBRANCH  22  24
ENDBRANCH  20  22
ENDBRANCH  16  20
TORSDOF 9
ENDMDL
