MODEL 1
REMARK VINA RESULT:      -6.0      0.000      0.000
REMARK  Name = 38027531
REMARK  12 active torsions:
REMARK  status: ('A' for Active; 'I' for Inactive)
REMARK    1  A    between atoms: N_4  and  C_14
REMARK    2  A    between atoms: N_5  and  C_21
REMARK    3  A    between atoms: N_6  and  C_23
REMARK    4  A    between atoms: C_7  and  C_11
REMARK    5  A    between atoms: C_8  and  C_14
REMARK    6  A    between atoms: C_10  and  C_15
REMARK    7  A    between atoms: C_11  and  C_16
REMARK    8  A    between atoms: C_11  and  C_17
REMARK    9  A    between atoms: C_12  and  C_18
REMARK   10  A    between atoms: C_15  and  C_19
REMARK   11  A    between atoms: C_21  and  C_22
REMARK   12  A    between atoms: C_23  and  C_26
REMARK                            x       y       z     vdW  Elec       q    Type
REMARK                         _______ _______ _______ _____ _____    ______ ____
ROOT
ATOM      7  C   UNL     1      -1.533   0.701  24.790  0.00  0.00    +0.000 C 
ATOM      8  C   UNL     1      -0.442  -0.341  24.438  0.00  0.00    +0.032 C 
ATOM      9  C   UNL     1      -2.495   0.135  25.845  0.00  0.00    +0.012 C 
ATOM     10  C   UNL     1      -3.188  -1.156  25.369  0.00  0.00    +0.023 C 
ATOM     12  C   UNL     1      -2.202  -2.131  24.758  0.00  0.00    -0.073 C 
ATOM     13  C   UNL     1      -0.975  -1.752  24.361  0.00  0.00    -0.022 C 
ATOM     18  C   UNL     1      -2.643  -3.566  24.657  0.00  0.00    +0.039 C 
ENDROOT
BRANCH   7  11
ATOM     11  C   UNL     1      -0.925   2.014  25.293  0.00  0.00    -0.013 C 
ATOM     16  C   UNL     1      -0.022   1.755  26.496  0.00  0.00    +0.007 C 
ATOM     17  C   UNL     1      -0.151   2.705  24.176  0.00  0.00    +0.007 C 
ENDBRANCH   7  11
BRANCH   8  14
ATOM     14  C   UNL     1       0.257   0.014  23.120  0.00  0.00    +0.113 C 
BRANCH  14   4
ATOM      3  O   UNL     1       2.713   1.530  23.105  0.00  0.00    -0.253 OA
ATOM      4  N   UNL     1       1.588  -0.504  23.097  0.00  0.00    -0.299 N 
ATOM      6  N   UNL     1       3.900  -0.462  23.067  0.00  0.00    -0.300 N 
ATOM     20  C   UNL     1       2.735   0.300  23.091  0.00  0.00    +0.300 C 
ATOM     30  H   UNL     1       1.718  -1.509  23.154  0.00  0.00    +0.150 HD
ATOM     32  H   UNL     1       3.821  -1.474  23.043  0.00  0.00    +0.150 HD
BRANCH   6  23
ATOM     23  C   UNL     1       5.220   0.124  23.057  0.00  0.00    +0.102 C 
ATOM     26  C   UNL     1       5.786   0.241  24.457  0.00  0.00    +0.024 C 
ENDBRANCH   6  23
ENDBRANCH  14   4
ENDBRANCH   8  14
BRANCH  10  15
ATOM     15  C   UNL     1      -4.326  -0.843  24.393  0.00  0.00    +0.103 C 
BRANCH  15  19
ATOM      2  O   UNL     1      -3.967   1.285  23.300  0.00  0.00    -0.276 OA
ATOM      5  N   UNL     1      -5.373   1.170  25.147  0.00  0.00    -0.311 N 
ATOM     19  C   UNL     1      -4.513   0.644  24.194  0.00  0.00    +0.214 C 
ATOM     31  H   UNL     1      -5.785   0.556  25.844  0.00  0.00    +0.149 HD
BRANCH   5  21
ATOM     21  C   UNL     1      -5.733   2.569  25.200  0.00  0.00    +0.139 C 
BRANCH  21  22
ATOM      1  F   UNL     1      -1.196   5.902  25.305  0.00  0.00    -0.205 F 
ATOM     22  C   UNL     1      -4.523   3.458  25.229  0.00  0.00    -0.030 A 
ATOM     24  C   UNL     1      -4.085   4.077  24.057  0.00  0.00    +0.008 A 
ATOM     25  C   UNL     1      -3.836   3.665  26.425  0.00  0.00    +0.008 A 
ATOM     27  C   UNL     1      -2.961   4.903  24.083  0.00  0.00    +0.038 A 
ATOM     28  C   UNL     1      -2.713   4.490  26.451  0.00  0.00    +0.038 A 
ATOM     29  C   UNL     1      -2.276   5.109  25.280  0.00  0.00    +0.123 A 
ENDBRANCH  21  22
ENDBRANCH   5  21
ENDBRANCH  15  19
ENDBRANCH  10  15
TORSDOF 8
ENDMDL
MODEL 2
REMARK VINA RESULT:      -5.3      2.323      4.924
REMARK  Name = 38027531
REMARK  12 active torsions:
REMARK  status: ('A' for Active; 'I' for Inactive)
REMARK    1  A    between atoms: N_4  and  C_14
REMARK    2  A    between atoms: N_5  and  C_21
REMARK    3  A    between atoms: N_6  and  C_23
REMARK    4  A    between atoms: C_7  and  C_11
REMARK    5  A    between atoms: C_8  and  C_14
REMARK    6  A    between atoms: C_10  and  C_15
REMARK    7  A    between atoms: C_11  and  C_16
REMARK    8  A    between atoms: C_11  and  C_17
REMARK    9  A    between atoms: C_12  and  C_18
REMARK   10  A    between atoms: C_15  and  C_19
REMARK   11  A    between atoms: C_21  and  C_22
REMARK   12  A    between atoms: C_23  and  C_26
REMARK                            x       y       z     vdW  Elec       q    Type
REMARK                         _______ _______ _______ _____ _____    ______ ____
ROOT
ATOM      7  C   UNL     1      -2.777   2.318  23.954  0.00  0.00    +0.000 C 
ATOM      8  C   UNL     1      -1.543   2.954  24.642  0.00  0.00    +0.032 C 
ATOM      9  C   UNL     1      -3.877   3.370  23.747  0.00  0.00    +0.012 C 
ATOM     10  C   UNL     1      -4.331   4.007  25.074  0.00  0.00    +0.023 C 
ATOM     12  C   UNL     1      -3.154   4.419  25.934  0.00  0.00    -0.073 C 
ATOM     13  C   UNL     1      -1.912   3.949  25.717  0.00  0.00    -0.022 C 
ATOM     18  C   UNL     1      -3.427   5.421  27.021  0.00  0.00    +0.039 C 
ENDROOT
BRANCH   7  11
ATOM     11  C   UNL     1      -2.412   1.678  22.611  0.00  0.00    -0.013 C 
ATOM     16  C   UNL     1      -3.072   0.309  22.478  0.00  0.00    +0.007 C 
ATOM     17  C   UNL     1      -2.821   2.589  21.458  0.00  0.00    +0.007 C 
ENDBRANCH   7  11
BRANCH   8  14
ATOM     14  C   UNL     1      -0.625   1.878  25.235  0.00  0.00    +0.113 C 
BRANCH  14   4
ATOM      3  O   UNL     1       0.606   0.028  23.394  0.00  0.00    -0.253 OA
ATOM      4  N   UNL     1       0.686   1.965  24.676  0.00  0.00    -0.299 N 
ATOM      6  N   UNL     1       2.512   1.352  23.395  0.00  0.00    -0.300 N 
ATOM     20  C   UNL     1       1.215   1.023  23.784  0.00  0.00    +0.300 C 
ATOM     30  H   UNL     1       1.246   2.787  24.880  0.00  0.00    +0.150 HD
ATOM     32  H   UNL     1       2.940   2.187  23.781  0.00  0.00    +0.150 HD
BRANCH   6  23
ATOM     23  C   UNL     1       3.283   0.544  22.480  0.00  0.00    +0.102 C 
ATOM     26  C   UNL     1       4.705   0.359  22.968  0.00  0.00    +0.024 C 
ENDBRANCH   6  23
ENDBRANCH  14   4
ENDBRANCH   8  14
BRANCH  10  15
ATOM     15  C   UNL     1      -5.270   3.071  25.842  0.00  0.00    +0.103 C 
BRANCH  15  19
ATOM      2  O   UNL     1      -6.328   1.649  24.194  0.00  0.00    -0.276 OA
ATOM      5  N   UNL     1      -4.690   0.765  25.586  0.00  0.00    -0.311 N 
ATOM     19  C   UNL     1      -5.510   1.774  25.102  0.00  0.00    +0.214 C 
ATOM     31  H   UNL     1      -4.036   0.967  26.337  0.00  0.00    +0.149 HD
BRANCH   5  21
ATOM     21  C   UNL     1      -4.706  -0.583  25.066  0.00  0.00    +0.139 C 
BRANCH  21  22
ATOM      1  F   UNL     1       0.355  -3.027  25.407  0.00  0.00    -0.205 F 
ATOM     22  C   UNL     1      -3.356  -1.236  25.157  0.00  0.00    -0.030 A 
ATOM     24  C   UNL     1      -2.373  -0.690  25.983  0.00  0.00    +0.008 A 
ATOM     25  C   UNL     1      -3.085  -2.385  24.416  0.00  0.00    +0.008 A 
ATOM     27  C   UNL     1      -1.119  -1.295  26.067  0.00  0.00    +0.038 A 
ATOM     28  C   UNL     1      -1.832  -2.991  24.500  0.00  0.00    +0.038 A 
ATOM     29  C   UNL     1      -0.849  -2.445  25.326  0.00  0.00    +0.123 A 
ENDBRANCH  21  22
ENDBRANCH   5  21
ENDBRANCH  15  19
ENDBRANCH  10  15
TORSDOF 8
ENDMDL
MODEL 3
REMARK VINA RESULT:      -4.8      1.709      3.521
REMARK  Name = 38027531
REMARK  12 active torsions:
REMARK  status: ('A' for Active; 'I' for Inactive)
REMARK    1  A    between atoms: N_4  and  C_14
REMARK    2  A    between atoms: N_5  and  C_21
REMARK    3  A    between atoms: N_6  and  C_23
REMARK    4  A    between atoms: C_7  and  C_11
REMARK    5  A    between atoms: C_8  and  C_14
REMARK    6  A    between atoms: C_10  and  C_15
REMARK    7  A    between atoms: C_11  and  C_16
REMARK    8  A    between atoms: C_11  and  C_17
REMARK    9  A    between atoms: C_12  and  C_18
REMARK   10  A    between atoms: C_15  and  C_19
REMARK   11  A    between atoms: C_21  and  C_22
REMARK   12  A    between atoms: C_23  and  C_26
REMARK                            x       y       z     vdW  Elec       q    Type
REMARK                         _______ _______ _______ _____ _____    ______ ____
ROOT
ATOM      7  C   UNL     1      -3.535  -0.794  25.055  0.00  0.00    +0.000 C 
ATOM      8  C   UNL     1      -2.315  -0.092  24.408  0.00  0.00    +0.032 C 
ATOM      9  C   UNL     1      -4.807  -0.522  24.237  0.00  0.00    +0.012 C 
ATOM     10  C   UNL     1      -5.114   0.983  24.120  0.00  0.00    +0.023 C 
ATOM     12  C   UNL     1      -3.882   1.782  23.744  0.00  0.00    -0.073 C 
ATOM     13  C   UNL     1      -2.640   1.280  23.866  0.00  0.00    -0.022 C 
ATOM     18  C   UNL     1      -4.112   3.156  23.178  0.00  0.00    +0.039 C 
ENDROOT
BRANCH   7  11
ATOM     11  C   UNL     1      -3.318  -2.304  25.189  0.00  0.00    -0.013 C 
ATOM     16  C   UNL     1      -4.140  -3.054  24.146  0.00  0.00    +0.007 C 
ATOM     17  C   UNL     1      -1.837  -2.643  25.056  0.00  0.00    +0.007 C 
ENDBRANCH   7  11
BRANCH   8  14
ATOM     14  C   UNL     1      -1.148   0.013  25.398  0.00  0.00    +0.113 C 
BRANCH  14   4
ATOM      3  O   UNL     1       0.510  -1.113  23.321  0.00  0.00    -0.253 OA
ATOM      4  N   UNL     1      -0.012   0.620  24.780  0.00  0.00    -0.299 N 
ATOM      6  N   UNL     1       1.794   0.820  23.350  0.00  0.00    -0.300 N 
ATOM     20  C   UNL     1       0.745   0.007  23.774  0.00  0.00    +0.300 C 
ATOM     30  H   UNL     1       0.225   1.574  25.033  0.00  0.00    +0.150 HD
ATOM     32  H   UNL     1       1.919   1.725  23.791  0.00  0.00    +0.150 HD
BRANCH   6  23
ATOM     23  C   UNL     1       2.725   0.422  22.320  0.00  0.00    +0.102 C 
ATOM     26  C   UNL     1       4.157   0.693  22.733  0.00  0.00    +0.024 C 
ENDBRANCH   6  23
ENDBRANCH  14   4
ENDBRANCH   8  14
BRANCH  10  15
ATOM     15  C   UNL     1      -5.741   1.520  25.411  0.00  0.00    +0.103 C 
BRANCH  15  19
ATOM      2  O   UNL     1      -5.811   3.936  25.522  0.00  0.00    -0.276 OA
ATOM      5  N   UNL     1      -3.988   2.802  26.412  0.00  0.00    -0.311 N 
ATOM     19  C   UNL     1      -5.215   2.892  25.771  0.00  0.00    +0.214 C 
ATOM     31  H   UNL     1      -3.577   1.888  26.583  0.00  0.00    +0.149 HD
BRANCH   5  21
ATOM     21  C   UNL     1      -3.250   3.957  26.870  0.00  0.00    +0.139 C 
BRANCH  21  22
ATOM      1  F   UNL     1       0.761   5.471  23.219  0.00  0.00    -0.205 F 
ATOM     22  C   UNL     1      -2.180   4.361  25.897  0.00  0.00    -0.030 A 
ATOM     24  C   UNL     1      -2.258   5.593  25.247  0.00  0.00    +0.008 A 
ATOM     25  C   UNL     1      -1.110   3.504  25.640  0.00  0.00    +0.008 A 
ATOM     27  C   UNL     1      -1.264   5.968  24.343  0.00  0.00    +0.038 A 
ATOM     28  C   UNL     1      -0.117   3.878  24.736  0.00  0.00    +0.038 A 
ATOM     29  C   UNL     1      -0.194   5.111  24.087  0.00  0.00    +0.123 A 
ENDBRANCH  21  22
ENDBRANCH   5  21
ENDBRANCH  15  19
ENDBRANCH  10  15
TORSDOF 8
ENDMDL
MODEL 4
REMARK VINA RESULT:      -3.6      2.648      5.443
REMARK  Name = 38027531
REMARK  12 active torsions:
REMARK  status: ('A' for Active; 'I' for Inactive)
REMARK    1  A    between atoms: N_4  and  C_14
REMARK    2  A    between atoms: N_5  and  C_21
REMARK    3  A    between atoms: N_6  and  C_23
REMARK    4  A    between atoms: C_7  and  C_11
REMARK    5  A    between atoms: C_8  and  C_14
REMARK    6  A    between atoms: C_10  and  C_15
REMARK    7  A    between atoms: C_11  and  C_16
REMARK    8  A    between atoms: C_11  and  C_17
REMARK    9  A    between atoms: C_12  and  C_18
REMARK   10  A    between atoms: C_15  and  C_19
REMARK   11  A    between atoms: C_21  and  C_22
REMARK   12  A    between atoms: C_23  and  C_26
REMARK                            x       y       z     vdW  Elec       q    Type
REMARK                         _______ _______ _______ _____ _____    ______ ____
ROOT
ATOM      7  C   UNL     1      -3.044   2.169  24.368  0.00  0.00    +0.000 C 
ATOM      8  C   UNL     1      -2.150   2.495  23.145  0.00  0.00    +0.032 C 
ATOM      9  C   UNL     1      -3.440   3.459  25.101  0.00  0.00    +0.012 C 
ATOM     10  C   UNL     1      -2.213   4.252  25.590  0.00  0.00    +0.023 C 
ATOM     12  C   UNL     1      -1.160   4.384  24.509  0.00  0.00    -0.073 C 
ATOM     13  C   UNL     1      -1.156   3.599  23.416  0.00  0.00    -0.022 C 
ATOM     18  C   UNL     1      -0.136   5.471  24.689  0.00  0.00    +0.039 C 
ENDROOT
BRANCH   7  11
ATOM     11  C   UNL     1      -4.302   1.396  23.962  0.00  0.00    -0.013 C 
ATOM     16  C   UNL     1      -3.927   0.033  23.389  0.00  0.00    +0.007 C 
ATOM     17  C   UNL     1      -5.239   1.241  25.156  0.00  0.00    +0.007 C 
ENDBRANCH   7  11
BRANCH   8  14
ATOM     14  C   UNL     1      -1.406   1.247  22.656  0.00  0.00    +0.113 C 
BRANCH  14   4
ATOM      3  O   UNL     1       0.693  -0.557  21.836  0.00  0.00    -0.253 OA
ATOM      4  N   UNL     1      -0.032   1.289  23.048  0.00  0.00    -0.299 N 
ATOM      6  N   UNL     1       2.187   0.646  23.141  0.00  0.00    -0.300 N 
ATOM     20  C   UNL     1       0.931   0.374  22.605  0.00  0.00    +0.300 C 
ATOM     30  H   UNL     1       0.283   2.061  23.627  0.00  0.00    +0.150 HD
ATOM     32  H   UNL     1       2.286   1.429  23.779  0.00  0.00    +0.150 HD
BRANCH   6  23
ATOM     23  C   UNL     1       3.355  -0.149  22.842  0.00  0.00    +0.102 C 
ATOM     26  C   UNL     1       4.632   0.593  23.180  0.00  0.00    +0.024 C 
ENDBRANCH   6  23
ENDBRANCH  14   4
ENDBRANCH   8  14
BRANCH  10  15
ATOM     15  C   UNL     1      -1.621   3.626  26.858  0.00  0.00    +0.103 C 
BRANCH  15  19
ATOM      2  O   UNL     1       0.587   2.737  26.427  0.00  0.00    -0.276 OA
ATOM      5  N   UNL     1      -1.246   1.309  26.401  0.00  0.00    -0.311 N 
ATOM     19  C   UNL     1      -0.619   2.538  26.541  0.00  0.00    +0.214 C 
ATOM     31  H   UNL     1      -2.253   1.243  26.523  0.00  0.00    +0.149 HD
BRANCH   5  21
ATOM     21  C   UNL     1      -0.534   0.090  26.095  0.00  0.00    +0.139 C 
BRANCH  21  22
ATOM      1  F   UNL     1      -3.986  -3.964  24.263  0.00  0.00    -0.205 F 
ATOM     22  C   UNL     1      -1.455  -0.991  25.605  0.00  0.00    -0.030 A 
ATOM     24  C   UNL     1      -2.724  -1.131  26.167  0.00  0.00    +0.008 A 
ATOM     25  C   UNL     1      -1.041  -1.855  24.593  0.00  0.00    +0.008 A 
ATOM     27  C   UNL     1      -3.580  -2.136  25.713  0.00  0.00    +0.038 A 
ATOM     28  C   UNL     1      -1.895  -2.860  24.139  0.00  0.00    +0.038 A 
ATOM     29  C   UNL     1      -3.165  -2.999  24.699  0.00  0.00    +0.123 A 
ENDBRANCH  21  22
ENDBRANCH   5  21
ENDBRANCH  15  19
ENDBRANCH  10  15
TORSDOF 8
ENDMDL
MODEL 5
REMARK VINA RESULT:      -3.6      2.643      6.824
REMARK  Name = 38027531
REMARK  12 active torsions:
REMARK  status: ('A' for Active; 'I' for Inactive)
REMARK    1  A    between atoms: N_4  and  C_14
REMARK    2  A    between atoms: N_5  and  C_21
REMARK    3  A    between atoms: N_6  and  C_23
REMARK    4  A    between atoms: C_7  and  C_11
REMARK    5  A    between atoms: C_8  and  C_14
REMARK    6  A    between atoms: C_10  and  C_15
REMARK    7  A    between atoms: C_11  and  C_16
REMARK    8  A    between atoms: C_11  and  C_17
REMARK    9  A    between atoms: C_12  and  C_18
REMARK   10  A    between atoms: C_15  and  C_19
REMARK   11  A    between atoms: C_21  and  C_22
REMARK   12  A    between atoms: C_23  and  C_26
REMARK                            x       y       z     vdW  Elec       q    Type
REMARK                         _______ _______ _______ _____ _____    ______ ____
ROOT
ATOM      7  C   UNL     1      -3.654   2.978  25.520  0.00  0.00    +0.000 C 
ATOM      8  C   UNL     1      -3.649   3.174  23.983  0.00  0.00    +0.032 C 
ATOM      9  C   UNL     1      -2.744   4.014  26.196  0.00  0.00    +0.012 C 
ATOM     10  C   UNL     1      -1.289   3.927  25.697  0.00  0.00    +0.023 C 
ATOM     12  C   UNL     1      -1.216   3.844  24.186  0.00  0.00    -0.073 C 
ATOM     13  C   UNL     1      -2.284   3.520  23.436  0.00  0.00    -0.022 C 
ATOM     18  C   UNL     1       0.103   4.189  23.552  0.00  0.00    +0.039 C 
ENDROOT
BRANCH   7  11
ATOM     11  C   UNL     1      -5.068   3.072  26.101  0.00  0.00    -0.013 C 
ATOM     16  C   UNL     1      -5.806   4.270  25.513  0.00  0.00    +0.007 C 
ATOM     17  C   UNL     1      -5.838   1.781  25.839  0.00  0.00    +0.007 C 
ENDBRANCH   7  11
BRANCH   8  14
ATOM     14  C   UNL     1      -4.187   1.930  23.266  0.00  0.00    +0.113 C 
BRANCH  14   4
ATOM      3  O   UNL     1      -4.759  -0.739  24.203  0.00  0.00    -0.253 OA
ATOM      4  N   UNL     1      -3.268   0.842  23.378  0.00  0.00    -0.299 N 
ATOM      6  N   UNL     1      -2.535  -1.300  23.851  0.00  0.00    -0.300 N 
ATOM     20  C   UNL     1      -3.623  -0.430  23.844  0.00  0.00    +0.300 C 
ATOM     30  H   UNL     1      -2.319   0.973  23.042  0.00  0.00    +0.150 HD
ATOM     32  H   UNL     1      -1.630  -0.952  23.550  0.00  0.00    +0.150 HD
BRANCH   6  23
ATOM     23  C   UNL     1      -2.633  -2.673  24.287  0.00  0.00    +0.102 C 
ATOM     26  C   UNL     1      -3.222  -2.772  25.679  0.00  0.00    +0.024 C 
ENDBRANCH   6  23
ENDBRANCH  14   4
ENDBRANCH   8  14
BRANCH  10  15
ATOM     15  C   UNL     1      -0.554   2.750  26.346  0.00  0.00    +0.103 C 
BRANCH  15  19
ATOM      2  O   UNL     1      -1.355   0.618  25.531  0.00  0.00    -0.276 OA
ATOM      5  N   UNL     1       0.520   1.584  24.556  0.00  0.00    -0.311 N 
ATOM     19  C   UNL     1      -0.535   1.528  25.455  0.00  0.00    +0.214 C 
ATOM     31  H   UNL     1       1.144   2.386  24.563  0.00  0.00    +0.149 HD
BRANCH   5  21
ATOM     21  C   UNL     1       0.783   0.548  23.583  0.00  0.00    +0.139 C 
BRANCH  21  22
ATOM      1  F   UNL     1       6.300  -0.349  22.900  0.00  0.00    -0.205 F 
ATOM     22  C   UNL     1       2.255   0.309  23.402  0.00  0.00    -0.030 A 
ATOM     24  C   UNL     1       3.077   1.340  22.947  0.00  0.00    +0.008 A 
ATOM     25  C   UNL     1       2.798  -0.943  23.685  0.00  0.00    +0.008 A 
ATOM     27  C   UNL     1       4.444   1.118  22.778  0.00  0.00    +0.038 A 
ATOM     28  C   UNL     1       4.164  -1.166  23.516  0.00  0.00    +0.038 A 
ATOM     29  C   UNL     1       4.987  -0.135  23.062  0.00  0.00    +0.123 A 
ENDBRANCH  21  22
ENDBRANCH   5  21
ENDBRANCH  15  19
ENDBRANCH  10  15
TORSDOF 8
ENDMDL
MODEL 6
REMARK VINA RESULT:      -2.9      2.611      7.042
REMARK  Name = 38027531
REMARK  12 active torsions:
REMARK  status: ('A' for Active; 'I' for Inactive)
REMARK    1  A    between atoms: N_4  and  C_14
REMARK    2  A    between atoms: N_5  and  C_21
REMARK    3  A    between atoms: N_6  and  C_23
REMARK    4  A    between atoms: C_7  and  C_11
REMARK    5  A    between atoms: C_8  and  C_14
REMARK    6  A    between atoms: C_10  and  C_15
REMARK    7  A    between atoms: C_11  and  C_16
REMARK    8  A    between atoms: C_11  and  C_17
REMARK    9  A    between atoms: C_12  and  C_18
REMARK   10  A    between atoms: C_15  and  C_19
REMARK   11  A    between atoms: C_21  and  C_22
REMARK   12  A    between atoms: C_23  and  C_26
REMARK                            x       y       z     vdW  Elec       q    Type
REMARK                         _______ _______ _______ _____ _____    ______ ____
ROOT
ATOM      7  C   UNL     1      -3.663   3.036  25.483  0.00  0.00    +0.000 C 
ATOM      8  C   UNL     1      -4.519   2.368  24.377  0.00  0.00    +0.032 C 
ATOM      9  C   UNL     1      -2.501   3.823  24.859  0.00  0.00    +0.012 C 
ATOM     10  C   UNL     1      -1.582   2.929  24.006  0.00  0.00    +0.023 C 
ATOM     12  C   UNL     1      -2.375   2.037  23.071  0.00  0.00    -0.073 C 
ATOM     13  C   UNL     1      -3.689   1.809  23.245  0.00  0.00    -0.022 C 
ATOM     18  C   UNL     1      -1.632   1.450  21.903  0.00  0.00    +0.039 C 
ENDROOT
BRANCH   7  11
ATOM     11  C   UNL     1      -4.502   3.964  26.367  0.00  0.00    -0.013 C 
ATOM     16  C   UNL     1      -3.643   5.101  26.911  0.00  0.00    +0.007 C 
ATOM     17  C   UNL     1      -5.693   4.511  25.587  0.00  0.00    +0.007 C 
ENDBRANCH   7  11
BRANCH   8  14
ATOM     14  C   UNL     1      -5.403   1.258  24.957  0.00  0.00    +0.113 C 
BRANCH  14   4
ATOM      3  O   UNL     1      -3.649  -0.778  26.009  0.00  0.00    -0.253 OA
ATOM      4  N   UNL     1      -5.093  -0.002  24.361  0.00  0.00    -0.299 N 
ATOM      6  N   UNL     1      -4.105  -2.082  24.144  0.00  0.00    -0.300 N 
ATOM     20  C   UNL     1      -4.228  -0.942  24.935  0.00  0.00    +0.300 C 
ATOM     30  H   UNL     1      -5.574  -0.265  23.506  0.00  0.00    +0.150 HD
ATOM     32  H   UNL     1      -4.610  -2.123  23.265  0.00  0.00    +0.150 HD
BRANCH   6  23
ATOM     23  C   UNL     1      -3.272  -3.203  24.511  0.00  0.00    +0.102 C 
ATOM     26  C   UNL     1      -1.802  -2.882  24.335  0.00  0.00    +0.024 C 
ENDBRANCH   6  23
ENDBRANCH  14   4
ENDBRANCH   8  14
BRANCH  10  15
ATOM     15  C   UNL     1      -0.644   2.100  24.889  0.00  0.00    +0.103 C 
BRANCH  15  19
ATOM      2  O   UNL     1      -0.761  -0.249  24.319  0.00  0.00    -0.276 OA
ATOM      5  N   UNL     1       0.946   1.059  23.437  0.00  0.00    -0.311 N 
ATOM     19  C   UNL     1      -0.189   0.831  24.202  0.00  0.00    +0.214 C 
ATOM     31  H   UNL     1       1.343   1.994  23.395  0.00  0.00    +0.149 HD
BRANCH   5  21
ATOM     21  C   UNL     1       1.602   0.024  22.671  0.00  0.00    +0.139 C 
BRANCH  21  22
ATOM      1  F   UNL     1       7.045  -0.464  24.026  0.00  0.00    -0.205 F 
ATOM     22  C   UNL     1       3.054  -0.106  23.031  0.00  0.00    -0.030 A 
ATOM     24  C   UNL     1       3.538  -1.308  23.550  0.00  0.00    +0.008 A 
ATOM     25  C   UNL     1       3.918   0.974  22.850  0.00  0.00    +0.008 A 
ATOM     27  C   UNL     1       4.887  -1.429  23.885  0.00  0.00    +0.038 A 
ATOM     28  C   UNL     1       5.266   0.853  23.186  0.00  0.00    +0.038 A 
ATOM     29  C   UNL     1       5.749  -0.349  23.704  0.00  0.00    +0.123 A 
ENDBRANCH  21  22
ENDBRANCH   5  21
ENDBRANCH  15  19
ENDBRANCH  10  15
TORSDOF 8
ENDMDL
MODEL 7
REMARK VINA RESULT:      -2.8      3.106      5.638
REMARK  Name = 38027531
REMARK  12 active torsions:
REMARK  status: ('A' for Active; 'I' for Inactive)
REMARK    1  A    between atoms: N_4  and  C_14
REMARK    2  A    between atoms: N_5  and  C_21
REMARK    3  A    between atoms: N_6  and  C_23
REMARK    4  A    between atoms: C_7  and  C_11
REMARK    5  A    between atoms: C_8  and  C_14
REMARK    6  A    between atoms: C_10  and  C_15
REMARK    7  A    between atoms: C_11  and  C_16
REMARK    8  A    between atoms: C_11  and  C_17
REMARK    9  A    between atoms: C_12  and  C_18
REMARK   10  A    between atoms: C_15  and  C_19
REMARK   11  A    between atoms: C_21  and  C_22
REMARK   12  A    between atoms: C_23  and  C_26
REMARK                            x       y       z     vdW  Elec       q    Type
REMARK                         _______ _______ _______ _____ _____    ______ ____
ROOT
ATOM      7  C   UNL     1      -2.156   2.335  23.713  0.00  0.00    +0.000 C 
ATOM      8  C   UNL     1      -0.702   2.850  23.571  0.00  0.00    +0.032 C 
ATOM      9  C   UNL     1      -3.154   3.492  23.546  0.00  0.00    +0.012 C 
ATOM     10  C   UNL     1      -2.929   4.610  24.580  0.00  0.00    +0.023 C 
ATOM     12  C   UNL     1      -1.465   4.988  24.692  0.00  0.00    -0.073 C 
ATOM     13  C   UNL     1      -0.485   4.196  24.223  0.00  0.00    -0.022 C 
ATOM     18  C   UNL     1      -1.156   6.323  25.313  0.00  0.00    +0.039 C 
ENDROOT
BRANCH   7  11
ATOM     11  C   UNL     1      -2.469   1.229  22.701  0.00  0.00    -0.013 C 
ATOM     16  C   UNL     1      -2.582   1.811  21.295  0.00  0.00    +0.007 C 
ATOM     17  C   UNL     1      -1.400   0.143  22.752  0.00  0.00    +0.007 C 
ENDBRANCH   7  11
BRANCH   8  14
ATOM     14  C   UNL     1       0.301   1.840  24.141  0.00  0.00    +0.113 C 
BRANCH  14   4
ATOM      3  O   UNL     1      -0.736   1.452  26.807  0.00  0.00    -0.253 OA
ATOM      4  N   UNL     1       0.865   2.320  25.363  0.00  0.00    -0.299 N 
ATOM      6  N   UNL     1       1.056   2.668  27.641  0.00  0.00    -0.300 N 
ATOM     20  C   UNL     1       0.301   2.089  26.623  0.00  0.00    +0.300 C 
ATOM     30  H   UNL     1       1.760   2.798  25.328  0.00  0.00    +0.150 HD
ATOM     32  H   UNL     1       1.891   3.188  27.393  0.00  0.00    +0.150 HD
BRANCH   6  23
ATOM     23  C   UNL     1       0.690   2.576  29.035  0.00  0.00    +0.102 C 
ATOM     26  C   UNL     1       1.883   2.218  29.898  0.00  0.00    +0.024 C 
ENDBRANCH   6  23
ENDBRANCH  14   4
ENDBRANCH   8  14
BRANCH  10  15
ATOM     15  C   UNL     1      -3.499   4.220  25.948  0.00  0.00    +0.103 C 
BRANCH  15  19
ATOM      2  O   UNL     1      -5.840   3.614  25.861  0.00  0.00    -0.276 OA
ATOM      5  N   UNL     1      -4.221   1.957  25.672  0.00  0.00    -0.311 N 
ATOM     19  C   UNL     1      -4.664   3.263  25.826  0.00  0.00    +0.214 C 
ATOM     31  H   UNL     1      -3.224   1.765  25.646  0.00  0.00    +0.149 HD
BRANCH   5  21
ATOM     21  C   UNL     1      -5.117   0.831  25.534  0.00  0.00    +0.139 C 
BRANCH  21  22
ATOM      1  F   UNL     1      -2.390  -3.844  23.981  0.00  0.00    -0.205 F 
ATOM     22  C   UNL     1      -4.390  -0.416  25.120  0.00  0.00    -0.030 A 
ATOM     24  C   UNL     1      -3.303  -0.870  25.868  0.00  0.00    +0.008 A 
ATOM     25  C   UNL     1      -4.800  -1.120  23.988  0.00  0.00    +0.008 A 
ATOM     27  C   UNL     1      -2.627  -2.028  25.483  0.00  0.00    +0.038 A 
ATOM     28  C   UNL     1      -4.125  -2.278  23.603  0.00  0.00    +0.038 A 
ATOM     29  C   UNL     1      -3.039  -2.731  24.351  0.00  0.00    +0.123 A 
ENDBRANCH  21  22
ENDBRANCH   5  21
ENDBRANCH  15  19
ENDBRANCH  10  15
TORSDOF 8
ENDMDL
MODEL 8
REMARK VINA RESULT:      -2.2      2.650      6.640
REMARK  Name = 38027531
REMARK  12 active torsions:
REMARK  status: ('A' for Active; 'I' for Inactive)
REMARK    1  A    between atoms: N_4  and  C_14
REMARK    2  A    between atoms: N_5  and  C_21
REMARK    3  A    between atoms: N_6  and  C_23
REMARK    4  A    between atoms: C_7  and  C_11
REMARK    5  A    between atoms: C_8  and  C_14
REMARK    6  A    between atoms: C_10  and  C_15
REMARK    7  A    between atoms: C_11  and  C_16
REMARK    8  A    between atoms: C_11  and  C_17
REMARK    9  A    between atoms: C_12  and  C_18
REMARK   10  A    between atoms: C_15  and  C_19
REMARK   11  A    between atoms: C_21  and  C_22
REMARK   12  A    between atoms: C_23  and  C_26
REMARK                            x       y       z     vdW  Elec       q    Type
REMARK                         _______ _______ _______ _____ _____    ______ ____
ROOT
ATOM      7  C   UNL     1      -3.381   1.465  23.768  0.00  0.00    +0.000 C 
ATOM      8  C   UNL     1      -4.636   1.099  24.601  0.00  0.00    +0.032 C 
ATOM      9  C   UNL     1      -2.593   0.199  23.401  0.00  0.00    +0.012 C 
ATOM     10  C   UNL     1      -2.140  -0.587  24.647  0.00  0.00    +0.023 C 
ATOM     12  C   UNL     1      -3.267  -0.756  25.646  0.00  0.00    -0.073 C 
ATOM     13  C   UNL     1      -4.380  -0.003  25.601  0.00  0.00    -0.022 C 
ATOM     18  C   UNL     1      -3.105  -1.844  26.672  0.00  0.00    +0.039 C 
ENDROOT
BRANCH   7  11
ATOM     11  C   UNL     1      -3.748   2.234  22.495  0.00  0.00    -0.013 C 
ATOM     16  C   UNL     1      -3.999   3.704  22.816  0.00  0.00    +0.007 C 
ATOM     17  C   UNL     1      -2.647   2.090  21.450  0.00  0.00    +0.007 C 
ENDBRANCH   7  11
BRANCH   8  14
ATOM     14  C   UNL     1      -5.195   2.329  25.327  0.00  0.00    +0.113 C 
BRANCH  14   4
ATOM      3  O   UNL     1      -2.565   3.029  26.286  0.00  0.00    -0.253 OA
ATOM      4  N   UNL     1      -4.443   3.498  24.998  0.00  0.00    -0.299 N 
ATOM      6  N   UNL     1      -2.662   4.973  25.023  0.00  0.00    -0.300 N 
ATOM     20  C   UNL     1      -3.166   3.768  25.507  0.00  0.00    +0.300 C 
ATOM     30  H   UNL     1      -4.820   4.139  24.308  0.00  0.00    +0.150 HD
ATOM     32  H   UNL     1      -3.236   5.525  24.394  0.00  0.00    +0.150 HD
BRANCH   6  23
ATOM     23  C   UNL     1      -1.363   5.483  25.394  0.00  0.00    +0.102 C 
ATOM     26  C   UNL     1      -0.275   4.938  24.492  0.00  0.00    +0.024 C 
ENDBRANCH   6  23
ENDBRANCH  14   4
ENDBRANCH   8  14
BRANCH  10  15
ATOM     15  C   UNL     1      -0.921   0.071  25.301  0.00  0.00    +0.103 C 
BRANCH  15  19
ATOM      2  O   UNL     1       0.431   1.762  24.222  0.00  0.00    -0.276 OA
ATOM      5  N   UNL     1       0.479  -0.421  23.426  0.00  0.00    -0.311 N 
ATOM     19  C   UNL     1       0.062   0.593  24.277  0.00  0.00    +0.214 C 
ATOM     31  H   UNL     1       0.123  -1.364  23.557  0.00  0.00    +0.149 HD
BRANCH   5  21
ATOM     21  C   UNL     1       1.418  -0.209  22.348  0.00  0.00    +0.139 C 
BRANCH  21  22
ATOM      1  F   UNL     1       6.740  -0.098  24.185  0.00  0.00    -0.205 F 
ATOM     22  C   UNL     1       2.838  -0.180  22.839  0.00  0.00    -0.030 A 
ATOM     24  C   UNL     1       3.608   0.972  22.673  0.00  0.00    +0.008 A 
ATOM     25  C   UNL     1       3.386  -1.302  23.458  0.00  0.00    +0.008 A 
ATOM     27  C   UNL     1       4.927   0.999  23.128  0.00  0.00    +0.038 A 
ATOM     28  C   UNL     1       4.704  -1.275  23.913  0.00  0.00    +0.038 A 
ATOM     29  C   UNL     1       5.474  -0.124  23.747  0.00  0.00    +0.123 A 
ENDBRANCH  21  22
ENDBRANCH   5  21
ENDBRANCH  15  19
ENDBRANCH  10  15
TORSDOF 8
ENDMDL
