MODEL 1
REMARK VINA RESULT:      -5.1      0.000      0.000
REMARK  Name = 75536633
REMARK  7 active torsions:
REMARK  status: ('A' for Active; 'I' for Inactive)
REMARK    1  A    between atoms: O_3  and  C_8
REMARK    2  A    between atoms: N_5  and  C_7
REMARK    3  A    between atoms: N_5  and  C_12
REMARK    4  A    between atoms: N_5  and  C_13
REMARK    5  A    between atoms: N_6  and  C_11
REMARK    6  A    between atoms: C_9  and  C_11
REMARK    7  A    between atoms: C_14  and  C_15
REMARK                            x       y       z     vdW  Elec       q    Type
REMARK                         _______ _______ _______ _____ _____    ______ ____
ROOT
ATOM      4  O   UNL     1      -3.946  -0.380  23.384  0.00  0.00    -0.270 OA
ATOM      6  N   UNL     1      -3.911  -0.881  25.650  0.00  0.00    -0.309 N 
ATOM     14  C   UNL     1      -4.145  -0.058  24.552  0.00  0.00    +0.244 C 
ATOM     22  H   UNL     1      -4.031  -0.526  26.593  0.00  0.00    +0.149 HD
ENDROOT
BRANCH  14  15
ATOM      1  F   UNL     1      -6.044   5.104  25.686  0.00  0.00    -0.205 F 
ATOM     15  C   UNL     1      -4.648   1.309  24.852  0.00  0.00    +0.037 A 
ATOM     16  C   UNL     1      -5.802   1.475  25.617  0.00  0.00    +0.016 A 
ATOM     17  C   UNL     1      -3.966   2.424  24.368  0.00  0.00    +0.016 A 
ATOM     18  C   UNL     1      -6.274   2.756  25.899  0.00  0.00    +0.039 A 
ATOM     19  C   UNL     1      -4.437   3.706  24.650  0.00  0.00    +0.039 A 
ATOM     20  C   UNL     1      -5.592   3.872  25.415  0.00  0.00    +0.123 A 
ENDBRANCH  14  15
BRANCH   6  11
ATOM     11  C   UNL     1      -3.402  -2.215  25.524  0.00  0.00    +0.138 C 
BRANCH  11   9
ATOM      2  O   UNL     1      -1.673  -2.654  23.892  0.00  0.00    -0.371 OA
ATOM      7  C   UNL     1      -0.068  -0.994  24.447  0.00  0.00    +0.113 C 
ATOM      8  C   UNL     1      -1.278  -0.832  25.348  0.00  0.00    +0.164 C 
ATOM      9  C   UNL     1      -1.910  -2.214  25.239  0.00  0.00    +0.165 C 
ATOM     10  C   UNL     1      -0.644  -1.831  23.317  0.00  0.00    +0.181 C 
BRANCH   7   5
ATOM      5  N   UNL     1       0.491   0.267  23.990  0.00  0.00    -0.301 NA
ATOM     12  C   UNL     1       1.264   0.080  22.759  0.00  0.00    +0.105 C 
ATOM     13  C   UNL     1      -0.567   1.258  23.774  0.00  0.00    +0.105 C 
ENDBRANCH   7   5
BRANCH   8   3
ATOM      3  O   UNL     1      -0.928  -0.517  26.682  0.00  0.00    -0.388 OA
ATOM     21  H   UNL     1      -0.643  -1.334  27.124  0.00  0.00    +0.210 HD
ENDBRANCH   8   3
ENDBRANCH  11   9
ENDBRANCH   6  11
TORSDOF 5
ENDMDL
MODEL 2
REMARK VINA RESULT:      -4.4      3.895      7.268
REMARK  Name = 75536633
REMARK  7 active torsions:
REMARK  status: ('A' for Active; 'I' for Inactive)
REMARK    1  A    between atoms: O_3  and  C_8
REMARK    2  A    between atoms: N_5  and  C_7
REMARK    3  A    between atoms: N_5  and  C_12
REMARK    4  A    between atoms: N_5  and  C_13
REMARK    5  A    between atoms: N_6  and  C_11
REMARK    6  A    between atoms: C_9  and  C_11
REMARK    7  A    between atoms: C_14  and  C_15
REMARK                            x       y       z     vdW  Elec       q    Type
REMARK                         _______ _______ _______ _____ _____    ______ ____
ROOT
ATOM      4  O   UNL     1       0.661  -0.282  21.920  0.00  0.00    -0.270 OA
ATOM      6  N   UNL     1       0.482  -0.699  24.196  0.00  0.00    -0.309 N 
ATOM     14  C   UNL     1       1.178  -0.408  23.027  0.00  0.00    +0.244 C 
ATOM     22  H   UNL     1       0.981  -0.859  25.065  0.00  0.00    +0.149 HD
ENDROOT
BRANCH  14  15
ATOM      1  F   UNL     1       6.749   0.105  23.519  0.00  0.00    -0.205 F 
ATOM     15  C   UNL     1       2.653  -0.272  23.158  0.00  0.00    +0.037 A 
ATOM     16  C   UNL     1       3.406  -1.319  23.689  0.00  0.00    +0.016 A 
ATOM     17  C   UNL     1       3.284   0.903  22.749  0.00  0.00    +0.016 A 
ATOM     18  C   UNL     1       4.788  -1.192  23.812  0.00  0.00    +0.039 A 
ATOM     19  C   UNL     1       4.667   1.030  22.870  0.00  0.00    +0.039 A 
ATOM     20  C   UNL     1       5.420  -0.017  23.402  0.00  0.00    +0.123 A 
ENDBRANCH  14  15
BRANCH   6  11
ATOM     11  C   UNL     1      -0.939  -0.884  24.227  0.00  0.00    +0.138 C 
BRANCH  11   9
ATOM      2  O   UNL     1      -0.930   1.418  24.968  0.00  0.00    -0.371 OA
ATOM      7  C   UNL     1      -3.253   1.836  25.235  0.00  0.00    +0.113 C 
ATOM      8  C   UNL     1      -3.062   0.427  24.706  0.00  0.00    +0.164 C 
ATOM      9  C   UNL     1      -1.615   0.161  25.098  0.00  0.00    +0.165 C 
ATOM     10  C   UNL     1      -1.911   2.467  24.901  0.00  0.00    +0.181 C 
BRANCH   7   5
ATOM      5  N   UNL     1      -4.374   2.538  24.634  0.00  0.00    -0.301 NA
ATOM     12  C   UNL     1      -5.469   2.693  25.596  0.00  0.00    +0.105 C 
ATOM     13  C   UNL     1      -3.958   3.850  24.129  0.00  0.00    +0.105 C 
ENDBRANCH   7   5
BRANCH   8   3
ATOM      3  O   UNL     1      -3.948  -0.504  25.299  0.00  0.00    -0.388 OA
ATOM     21  H   UNL     1      -4.469  -0.922  24.593  0.00  0.00    +0.210 HD
ENDBRANCH   8   3
ENDBRANCH  11   9
ENDBRANCH   6  11
TORSDOF 5
ENDMDL
MODEL 3
REMARK VINA RESULT:      -4.3     14.352     15.998
REMARK  Name = 75536633
REMARK  7 active torsions:
REMARK  status: ('A' for Active; 'I' for Inactive)
REMARK    1  A    between atoms: O_3  and  C_8
REMARK    2  A    between atoms: N_5  and  C_7
REMARK    3  A    between atoms: N_5  and  C_12
REMARK    4  A    between atoms: N_5  and  C_13
REMARK    5  A    between atoms: N_6  and  C_11
REMARK    6  A    between atoms: C_9  and  C_11
REMARK    7  A    between atoms: C_14  and  C_15
REMARK                            x       y       z     vdW  Elec       q    Type
REMARK                         _______ _______ _______ _____ _____    ______ ____
ROOT
ATOM      4  O   UNL     1      -3.614 -10.563  16.382  0.00  0.00    -0.270 OA
ATOM      6  N   UNL     1      -4.785 -10.549  14.378  0.00  0.00    -0.309 N 
ATOM     14  C   UNL     1      -4.671 -10.472  15.763  0.00  0.00    +0.244 C 
ATOM     22  H   UNL     1      -5.698 -10.536  13.935  0.00  0.00    +0.149 HD
ENDROOT
BRANCH  14  15
ATOM      1  F   UNL     1      -9.462  -9.788  18.611  0.00  0.00    -0.205 F 
ATOM     15  C   UNL     1      -5.939 -10.292  16.517  0.00  0.00    +0.037 A 
ATOM     16  C   UNL     1      -6.039 -10.742  17.833  0.00  0.00    +0.016 A 
ATOM     17  C   UNL     1      -7.030  -9.671  15.907  0.00  0.00    +0.016 A 
ATOM     18  C   UNL     1      -7.228 -10.573  18.540  0.00  0.00    +0.039 A 
ATOM     19  C   UNL     1      -8.219  -9.501  16.615  0.00  0.00    +0.039 A 
ATOM     20  C   UNL     1      -8.319  -9.952  17.932  0.00  0.00    +0.123 A 
ENDBRANCH  14  15
BRANCH   6  11
ATOM     11  C   UNL     1      -3.655 -10.746  13.517  0.00  0.00    +0.138 C 
BRANCH  11   9
ATOM      2  O   UNL     1      -3.144 -10.696  11.154  0.00  0.00    -0.371 OA
ATOM      7  C   UNL     1      -5.103  -9.687  10.268  0.00  0.00    +0.113 C 
ATOM      8  C   UNL     1      -5.270  -9.859  11.767  0.00  0.00    +0.164 C 
ATOM      9  C   UNL     1      -3.818  -9.991  12.209  0.00  0.00    +0.165 C 
ATOM     10  C   UNL     1      -3.971 -10.658   9.978  0.00  0.00    +0.181 C 
BRANCH   7   5
ATOM      5  N   UNL     1      -6.309  -9.979   9.511  0.00  0.00    -0.301 NA
ATOM     12  C   UNL     1      -7.243 -10.781  10.306  0.00  0.00    +0.105 C 
ATOM     13  C   UNL     1      -6.959  -8.742   9.068  0.00  0.00    +0.105 C 
ENDBRANCH   7   5
BRANCH   8   3
ATOM      3  O   UNL     1      -5.908  -8.753  12.376  0.00  0.00    -0.388 OA
ATOM     21  H   UNL     1      -6.617  -8.446  11.786  0.00  0.00    +0.210 HD
ENDBRANCH   8   3
ENDBRANCH  11   9
ENDBRANCH   6  11
TORSDOF 5
ENDMDL
MODEL 4
REMARK VINA RESULT:      -4.3      3.382      5.714
REMARK  Name = 75536633
REMARK  7 active torsions:
REMARK  status: ('A' for Active; 'I' for Inactive)
REMARK    1  A    between atoms: O_3  and  C_8
REMARK    2  A    between atoms: N_5  and  C_7
REMARK    3  A    between atoms: N_5  and  C_12
REMARK    4  A    between atoms: N_5  and  C_13
REMARK    5  A    between atoms: N_6  and  C_11
REMARK    6  A    between atoms: C_9  and  C_11
REMARK    7  A    between atoms: C_14  and  C_15
REMARK                            x       y       z     vdW  Elec       q    Type
REMARK                         _______ _______ _______ _____ _____    ______ ____
ROOT
ATOM      4  O   UNL     1      -0.460   1.204  23.653  0.00  0.00    -0.270 OA
ATOM      6  N   UNL     1      -0.697   1.208  25.962  0.00  0.00    -0.309 N 
ATOM     14  C   UNL     1      -0.907   0.704  24.682  0.00  0.00    +0.244 C 
ATOM     22  H   UNL     1      -1.154   0.785  26.763  0.00  0.00    +0.149 HD
ENDROOT
BRANCH  14  15
ATOM      1  F   UNL     1      -4.117  -3.890  24.326  0.00  0.00    -0.205 F 
ATOM     15  C   UNL     1      -1.756  -0.512  24.587  0.00  0.00    +0.037 A 
ATOM     16  C   UNL     1      -1.170  -1.777  24.615  0.00  0.00    +0.016 A 
ATOM     17  C   UNL     1      -3.141  -0.388  24.470  0.00  0.00    +0.016 A 
ATOM     18  C   UNL     1      -1.966  -2.918  24.527  0.00  0.00    +0.039 A 
ATOM     19  C   UNL     1      -3.938  -1.529  24.382  0.00  0.00    +0.039 A 
ATOM     20  C   UNL     1      -3.350  -2.795  24.410  0.00  0.00    +0.123 A 
ENDBRANCH  14  15
BRANCH   6  11
ATOM     11  C   UNL     1       0.078   2.388  26.213  0.00  0.00    +0.138 C 
BRANCH  11   9
ATOM      2  O   UNL     1      -0.345   4.127  24.587  0.00  0.00    -0.371 OA
ATOM      7  C   UNL     1      -2.655   4.550  24.941  0.00  0.00    +0.113 C 
ATOM      8  C   UNL     1      -2.215   3.420  25.853  0.00  0.00    +0.164 C 
ATOM      9  C   UNL     1      -0.709   3.646  25.892  0.00  0.00    +0.165 C 
ATOM     10  C   UNL     1      -1.539   4.559  23.910  0.00  0.00    +0.181 C 
BRANCH   7   5
ATOM      5  N   UNL     1      -3.968   4.346  24.352  0.00  0.00    -0.301 NA
ATOM     12  C   UNL     1      -3.963   3.186  23.456  0.00  0.00    +0.105 C 
ATOM     13  C   UNL     1      -4.986   4.173  25.393  0.00  0.00    +0.105 C 
ENDBRANCH   7   5
BRANCH   8   3
ATOM      3  O   UNL     1      -2.794   3.500  27.141  0.00  0.00    -0.388 OA
ATOM     21  H   UNL     1      -2.334   4.196  27.639  0.00  0.00    +0.210 HD
ENDBRANCH   8   3
ENDBRANCH  11   9
ENDBRANCH   6  11
TORSDOF 5
ENDMDL
MODEL 5
REMARK VINA RESULT:      -3.8      3.389      5.819
REMARK  Name = 75536633
REMARK  7 active torsions:
REMARK  status: ('A' for Active; 'I' for Inactive)
REMARK    1  A    between atoms: O_3  and  C_8
REMARK    2  A    between atoms: N_5  and  C_7
REMARK    3  A    between atoms: N_5  and  C_12
REMARK    4  A    between atoms: N_5  and  C_13
REMARK    5  A    between atoms: N_6  and  C_11
REMARK    6  A    between atoms: C_9  and  C_11
REMARK    7  A    between atoms: C_14  and  C_15
REMARK                            x       y       z     vdW  Elec       q    Type
REMARK                         _______ _______ _______ _____ _____    ______ ____
ROOT
ATOM      4  O   UNL     1      -3.577   1.092  23.024  0.00  0.00    -0.270 OA
ATOM      6  N   UNL     1      -4.623   0.903  25.088  0.00  0.00    -0.309 N 
ATOM     14  C   UNL     1      -3.680   0.557  24.125  0.00  0.00    +0.244 C 
ATOM     22  H   UNL     1      -4.698   0.372  25.949  0.00  0.00    +0.149 HD
ENDROOT
BRANCH  14  15
ATOM      1  F   UNL     1      -0.220  -3.662  25.454  0.00  0.00    -0.205 F 
ATOM     15  C   UNL     1      -2.763  -0.560  24.476  0.00  0.00    +0.037 A 
ATOM     16  C   UNL     1      -1.478  -0.287  24.945  0.00  0.00    +0.016 A 
ATOM     17  C   UNL     1      -3.189  -1.881  24.337  0.00  0.00    +0.016 A 
ATOM     18  C   UNL     1      -0.619  -1.334  25.275  0.00  0.00    +0.039 A 
ATOM     19  C   UNL     1      -2.330  -2.928  24.667  0.00  0.00    +0.039 A 
ATOM     20  C   UNL     1      -1.044  -2.655  25.136  0.00  0.00    +0.123 A 
ENDBRANCH  14  15
BRANCH   6  11
ATOM     11  C   UNL     1      -5.591   1.942  24.887  0.00  0.00    +0.138 C 
BRANCH  11   9
ATOM      2  O   UNL     1      -4.898   3.462  26.635  0.00  0.00    -0.371 OA
ATOM      7  C   UNL     1      -3.072   4.572  25.598  0.00  0.00    +0.113 C 
ATOM      8  C   UNL     1      -3.610   3.515  24.651  0.00  0.00    +0.164 C 
ATOM      9  C   UNL     1      -5.011   3.308  25.211  0.00  0.00    +0.165 C 
ATOM     10  C   UNL     1      -3.645   4.107  26.926  0.00  0.00    +0.181 C 
BRANCH   7   5
ATOM      5  N   UNL     1      -1.621   4.662  25.607  0.00  0.00    -0.301 NA
ATOM     12  C   UNL     1      -1.017   3.371  25.265  0.00  0.00    +0.105 C 
ATOM     13  C   UNL     1      -1.157   5.697  24.679  0.00  0.00    +0.105 C 
ENDBRANCH   7   5
BRANCH   8   3
ATOM      3  O   UNL     1      -3.639   3.951  23.305  0.00  0.00    -0.388 OA
ATOM     21  H   UNL     1      -3.092   4.751  23.232  0.00  0.00    +0.210 HD
ENDBRANCH   8   3
ENDBRANCH  11   9
ENDBRANCH   6  11
TORSDOF 5
ENDMDL
MODEL 6
REMARK VINA RESULT:      -3.5      3.302      6.000
REMARK  Name = 75536633
REMARK  7 active torsions:
REMARK  status: ('A' for Active; 'I' for Inactive)
REMARK    1  A    between atoms: O_3  and  C_8
REMARK    2  A    between atoms: N_5  and  C_7
REMARK    3  A    between atoms: N_5  and  C_12
REMARK    4  A    between atoms: N_5  and  C_13
REMARK    5  A    between atoms: N_6  and  C_11
REMARK    6  A    between atoms: C_9  and  C_11
REMARK    7  A    between atoms: C_14  and  C_15
REMARK                            x       y       z     vdW  Elec       q    Type
REMARK                         _______ _______ _______ _____ _____    ______ ____
ROOT
ATOM      4  O   UNL     1      -1.435   1.541  23.174  0.00  0.00    -0.270 OA
ATOM      6  N   UNL     1      -1.229   1.546  25.486  0.00  0.00    -0.309 N 
ATOM     14  C   UNL     1      -1.584   0.989  24.261  0.00  0.00    +0.244 C 
ATOM     22  H   UNL     1      -1.444   1.063  26.352  0.00  0.00    +0.149 HD
ENDROOT
BRANCH  14  15
ATOM      1  F   UNL     1      -3.937  -4.106  24.442  0.00  0.00    -0.205 F 
ATOM     15  C   UNL     1      -2.207  -0.360  24.310  0.00  0.00    +0.037 A 
ATOM     16  C   UNL     1      -3.571  -0.508  24.059  0.00  0.00    +0.016 A 
ATOM     17  C   UNL     1      -1.427  -1.478  24.605  0.00  0.00    +0.016 A 
ATOM     18  C   UNL     1      -4.156  -1.772  24.104  0.00  0.00    +0.039 A 
ATOM     19  C   UNL     1      -2.011  -2.743  24.650  0.00  0.00    +0.039 A 
ATOM     20  C   UNL     1      -3.376  -2.891  24.399  0.00  0.00    +0.123 A 
ENDBRANCH  14  15
BRANCH   6  11
ATOM     11  C   UNL     1      -0.641   2.849  25.604  0.00  0.00    +0.138 C 
BRANCH  11   9
ATOM      2  O   UNL     1      -2.131   4.157  24.222  0.00  0.00    -0.371 OA
ATOM      7  C   UNL     1      -3.988   4.449  25.674  0.00  0.00    +0.113 C 
ATOM      8  C   UNL     1      -2.952   3.581  26.365  0.00  0.00    +0.164 C 
ATOM      9  C   UNL     1      -1.699   3.937  25.574  0.00  0.00    +0.165 C 
ATOM     10  C   UNL     1      -3.559   4.332  24.221  0.00  0.00    +0.181 C 
BRANCH   7   5
ATOM      5  N   UNL     1      -5.356   4.013  25.898  0.00  0.00    -0.301 NA
ATOM     12  C   UNL     1      -6.309   4.987  25.359  0.00  0.00    +0.105 C 
ATOM     13  C   UNL     1      -5.588   2.696  25.297  0.00  0.00    +0.105 C 
ENDBRANCH   7   5
BRANCH   8   3
ATOM      3  O   UNL     1      -2.813   3.885  27.739  0.00  0.00    -0.388 OA
ATOM     21  H   UNL     1      -3.293   4.711  27.919  0.00  0.00    +0.210 HD
ENDBRANCH   8   3
ENDBRANCH  11   9
ENDBRANCH   6  11
TORSDOF 5
ENDMDL
MODEL 7
REMARK VINA RESULT:      -3.3      3.457      5.295
REMARK  Name = 75536633
REMARK  7 active torsions:
REMARK  status: ('A' for Active; 'I' for Inactive)
REMARK    1  A    between atoms: O_3  and  C_8
REMARK    2  A    between atoms: N_5  and  C_7
REMARK    3  A    between atoms: N_5  and  C_12
REMARK    4  A    between atoms: N_5  and  C_13
REMARK    5  A    between atoms: N_6  and  C_11
REMARK    6  A    between atoms: C_9  and  C_11
REMARK    7  A    between atoms: C_14  and  C_15
REMARK                            x       y       z     vdW  Elec       q    Type
REMARK                         _______ _______ _______ _____ _____    ______ ____
ROOT
ATOM      4  O   UNL     1      -5.044   1.494  25.901  0.00  0.00    -0.270 OA
ATOM      6  N   UNL     1      -4.010   1.884  23.860  0.00  0.00    -0.309 N 
ATOM     14  C   UNL     1      -4.465   1.080  24.900  0.00  0.00    +0.244 C 
ATOM     22  H   UNL     1      -3.476   1.484  23.096  0.00  0.00    +0.149 HD
ENDROOT
BRANCH  14  15
ATOM      1  F   UNL     1      -3.438  -4.419  24.410  0.00  0.00    -0.205 F 
ATOM     15  C   UNL     1      -4.194  -0.376  24.771  0.00  0.00    +0.037 A 
ATOM     16  C   UNL     1      -4.595  -1.061  23.624  0.00  0.00    +0.016 A 
ATOM     17  C   UNL     1      -3.538  -1.057  25.796  0.00  0.00    +0.016 A 
ATOM     18  C   UNL     1      -4.341  -2.426  23.502  0.00  0.00    +0.039 A 
ATOM     19  C   UNL     1      -3.282  -2.422  25.674  0.00  0.00    +0.039 A 
ATOM     20  C   UNL     1      -3.684  -3.108  24.527  0.00  0.00    +0.123 A 
ENDBRANCH  14  15
BRANCH   6  11
ATOM     11  C   UNL     1      -4.174   3.309  23.853  0.00  0.00    +0.138 C 
BRANCH  11   9
ATOM      2  O   UNL     1      -3.066   4.207  25.806  0.00  0.00    -0.371 OA
ATOM      7  C   UNL     1      -0.787   3.770  25.299  0.00  0.00    +0.113 C 
ATOM      8  C   UNL     1      -1.657   3.210  24.188  0.00  0.00    +0.164 C 
ATOM      9  C   UNL     1      -2.938   4.011  24.388  0.00  0.00    +0.165 C 
ATOM     10  C   UNL     1      -1.798   3.926  26.423  0.00  0.00    +0.181 C 
BRANCH   7   5
ATOM      5  N   UNL     1       0.329   2.910  25.654  0.00  0.00    -0.301 NA
ATOM     12  C   UNL     1       0.193   2.423  27.030  0.00  0.00    +0.105 C 
ATOM     13  C   UNL     1       0.430   1.779  24.728  0.00  0.00    +0.105 C 
ENDBRANCH   7   5
BRANCH   8   3
ATOM      3  O   UNL     1      -1.102   3.417  22.903  0.00  0.00    -0.388 OA
ATOM     21  H   UNL     1      -1.328   2.652  22.347  0.00  0.00    +0.210 HD
ENDBRANCH   8   3
ENDBRANCH  11   9
ENDBRANCH   6  11
TORSDOF 5
ENDMDL
MODEL 8
REMARK VINA RESULT:      -3.1      2.315      3.230
REMARK  Name = 75536633
REMARK  7 active torsions:
REMARK  status: ('A' for Active; 'I' for Inactive)
REMARK    1  A    between atoms: O_3  and  C_8
REMARK    2  A    between atoms: N_5  and  C_7
REMARK    3  A    between atoms: N_5  and  C_12
REMARK    4  A    between atoms: N_5  and  C_13
REMARK    5  A    between atoms: N_6  and  C_11
REMARK    6  A    between atoms: C_9  and  C_11
REMARK    7  A    between atoms: C_14  and  C_15
REMARK                            x       y       z     vdW  Elec       q    Type
REMARK                         _______ _______ _______ _____ _____    ______ ____
ROOT
ATOM      4  O   UNL     1      -3.302   1.130  23.048  0.00  0.00    -0.270 OA
ATOM      6  N   UNL     1      -3.986   1.171  25.266  0.00  0.00    -0.309 N 
ATOM     14  C   UNL     1      -3.281   1.645  24.163  0.00  0.00    +0.244 C 
ATOM     22  H   UNL     1      -3.868   1.603  26.176  0.00  0.00    +0.149 HD
ENDROOT
BRANCH  14  15
ATOM      1  F   UNL     1      -0.077   6.174  25.031  0.00  0.00    -0.205 F 
ATOM     15  C   UNL     1      -2.433   2.844  24.392  0.00  0.00    +0.037 A 
ATOM     16  C   UNL     1      -2.970   3.969  25.018  0.00  0.00    +0.016 A 
ATOM     17  C   UNL     1      -1.100   2.844  23.982  0.00  0.00    +0.016 A 
ATOM     18  C   UNL     1      -2.175   5.093  25.233  0.00  0.00    +0.039 A 
ATOM     19  C   UNL     1      -0.304   3.968  24.198  0.00  0.00    +0.039 A 
ATOM     20  C   UNL     1      -0.842   5.094  24.823  0.00  0.00    +0.123 A 
ENDBRANCH  14  15
BRANCH   6  11
ATOM     11  C   UNL     1      -4.826   0.010  25.209  0.00  0.00    +0.138 C 
BRANCH  11   9
ATOM      2  O   UNL     1      -4.188  -2.055  24.126  0.00  0.00    -0.371 OA
ATOM      7  C   UNL     1      -1.957  -2.322  24.896  0.00  0.00    +0.113 C 
ATOM      8  C   UNL     1      -2.514  -1.018  25.437  0.00  0.00    +0.164 C 
ATOM      9  C   UNL     1      -4.012  -1.267  25.315  0.00  0.00    +0.165 C 
ATOM     10  C   UNL     1      -2.913  -2.605  23.749  0.00  0.00    +0.181 C 
BRANCH   7   5
ATOM      5  N   UNL     1      -0.571  -2.230  24.468  0.00  0.00    -0.301 NA
ATOM     12  C   UNL     1      -0.243  -0.863  24.053  0.00  0.00    +0.105 C 
ATOM     13  C   UNL     1       0.334  -2.661  25.538  0.00  0.00    +0.105 C 
ENDBRANCH   7   5
BRANCH   8   3
ATOM      3  O   UNL     1      -2.128  -0.773  26.776  0.00  0.00    -0.388 OA
ATOM     21  H   UNL     1      -2.865  -1.026  27.357  0.00  0.00    +0.210 HD
ENDBRANCH   8   3
ENDBRANCH  11   9
ENDBRANCH   6  11
TORSDOF 5
ENDMDL
MODEL 9
REMARK VINA RESULT:      -3.0      2.249      3.387
REMARK  Name = 75536633
REMARK  7 active torsions:
REMARK  status: ('A' for Active; 'I' for Inactive)
REMARK    1  A    between atoms: O_3  and  C_8
REMARK    2  A    between atoms: N_5  and  C_7
REMARK    3  A    between atoms: N_5  and  C_12
REMARK    4  A    between atoms: N_5  and  C_13
REMARK    5  A    between atoms: N_6  and  C_11
REMARK    6  A    between atoms: C_9  and  C_11
REMARK    7  A    between atoms: C_14  and  C_15
REMARK                            x       y       z     vdW  Elec       q    Type
REMARK                         _______ _______ _______ _____ _____    ______ ____
ROOT
ATOM      4  O   UNL     1      -3.307  -0.660  24.226  0.00  0.00    -0.270 OA
ATOM      6  N   UNL     1      -1.574   0.864  23.972  0.00  0.00    -0.309 N 
ATOM     14  C   UNL     1      -2.880   0.490  24.278  0.00  0.00    +0.244 C 
ATOM     22  H   UNL     1      -1.307   1.843  23.968  0.00  0.00    +0.149 HD
ENDROOT
BRANCH  14  15
ATOM      1  F   UNL     1      -6.362   4.640  25.757  0.00  0.00    -0.205 F 
ATOM     15  C   UNL     1      -3.802   1.589  24.669  0.00  0.00    +0.037 A 
ATOM     16  C   UNL     1      -5.112   1.298  25.050  0.00  0.00    +0.016 A 
ATOM     17  C   UNL     1      -3.357   2.911  24.655  0.00  0.00    +0.016 A 
ATOM     18  C   UNL     1      -5.977   2.327  25.417  0.00  0.00    +0.039 A 
ATOM     19  C   UNL     1      -4.222   3.941  25.023  0.00  0.00    +0.039 A 
ATOM     20  C   UNL     1      -5.532   3.650  25.403  0.00  0.00    +0.123 A 
ENDBRANCH  14  15
BRANCH   6  11
ATOM     11  C   UNL     1      -0.576  -0.077  23.555  0.00  0.00    +0.138 C 
BRANCH  11   9
ATOM      2  O   UNL     1       1.198   1.519  23.945  0.00  0.00    -0.371 OA
ATOM      7  C   UNL     1       2.962   0.587  22.657  0.00  0.00    +0.113 C 
ATOM      8  C   UNL     1       1.756  -0.331  22.579  0.00  0.00    +0.164 C 
ATOM      9  C   UNL     1       0.636   0.626  22.969  0.00  0.00    +0.165 C 
ATOM     10  C   UNL     1       2.631   1.417  23.886  0.00  0.00    +0.181 C 
BRANCH   7   5
ATOM      5  N   UNL     1       4.226  -0.120  22.774  0.00  0.00    -0.301 NA
ATOM     12  C   UNL     1       5.248   0.735  23.384  0.00  0.00    +0.105 C 
ATOM     13  C   UNL     1       4.065  -1.349  23.558  0.00  0.00    +0.105 C 
ENDBRANCH   7   5
BRANCH   8   3
ATOM      3  O   UNL     1       1.562  -0.870  21.286  0.00  0.00    -0.388 OA
ATOM     21  H   UNL     1       1.530  -1.838  21.361  0.00  0.00    +0.210 HD
ENDBRANCH   8   3
ENDBRANCH  11   9
ENDBRANCH   6  11
TORSDOF 5
ENDMDL
MODEL 10
REMARK VINA RESULT:      -2.9      3.118      6.269
REMARK  Name = 75536633
REMARK  7 active torsions:
REMARK  status: ('A' for Active; 'I' for Inactive)
REMARK    1  A    between atoms: O_3  and  C_8
REMARK    2  A    between atoms: N_5  and  C_7
REMARK    3  A    between atoms: N_5  and  C_12
REMARK    4  A    between atoms: N_5  and  C_13
REMARK    5  A    between atoms: N_6  and  C_11
REMARK    6  A    between atoms: C_9  and  C_11
REMARK    7  A    between atoms: C_14  and  C_15
REMARK                            x       y       z     vdW  Elec       q    Type
REMARK                         _______ _______ _______ _____ _____    ______ ____
ROOT
ATOM      4  O   UNL     1      -0.963   0.619  25.883  0.00  0.00    -0.270 OA
ATOM      6  N   UNL     1      -1.945  -0.615  24.180  0.00  0.00    -0.309 N 
ATOM     14  C   UNL     1      -0.911   0.107  24.768  0.00  0.00    +0.244 C 
ATOM     22  H   UNL     1      -1.861  -0.951  23.226  0.00  0.00    +0.149 HD
ENDROOT
BRANCH  14  15
ATOM      1  F   UNL     1       3.744   0.725  21.687  0.00  0.00    -0.205 F 
ATOM     15  C   UNL     1       0.321   0.271  23.952  0.00  0.00    +0.037 A 
ATOM     16  C   UNL     1       1.151   1.373  24.155  0.00  0.00    +0.016 A 
ATOM     17  C   UNL     1       0.647  -0.678  22.983  0.00  0.00    +0.016 A 
ATOM     18  C   UNL     1       2.306   1.528  23.391  0.00  0.00    +0.039 A 
ATOM     19  C   UNL     1       1.803  -0.525  22.219  0.00  0.00    +0.039 A 
ATOM     20  C   UNL     1       2.633   0.579  22.422  0.00  0.00    +0.123 A 
ENDBRANCH  14  15
BRANCH   6  11
ATOM     11  C   UNL     1      -3.204  -0.837  24.831  0.00  0.00    +0.138 C 
BRANCH  11   9
ATOM      2  O   UNL     1      -5.212   0.355  25.458  0.00  0.00    -0.371 OA
ATOM      7  C   UNL     1      -4.841   2.470  24.444  0.00  0.00    +0.113 C 
ATOM      8  C   UNL     1      -3.631   1.587  24.202  0.00  0.00    +0.164 C 
ATOM      9  C   UNL     1      -4.230   0.204  24.420  0.00  0.00    +0.165 C 
ATOM     10  C   UNL     1      -5.509   1.754  25.607  0.00  0.00    +0.181 C 
BRANCH   7   5
ATOM      5  N   UNL     1      -4.504   3.851  24.748  0.00  0.00    -0.301 NA
ATOM     12  C   UNL     1      -5.562   4.484  25.541  0.00  0.00    +0.105 C 
ATOM     13  C   UNL     1      -3.225   3.930  25.461  0.00  0.00    +0.105 C 
ENDBRANCH   7   5
BRANCH   8   3
ATOM      3  O   UNL     1      -3.100   1.733  22.899  0.00  0.00    -0.388 OA
ATOM     21  H   UNL     1      -3.353   0.953  22.377  0.00  0.00    +0.210 HD
ENDBRANCH   8   3
ENDBRANCH  11   9
ENDBRANCH   6  11
TORSDOF 5
ENDMDL
