MODEL 1
REMARK VINA RESULT:       4.7      0.000      0.000
REMARK  Name = 11865930
REMARK  6 active torsions:
REMARK  status: ('A' for Active; 'I' for Inactive)
REMARK    1  A    between atoms: O_5  and  C_28
REMARK    2  A    between atoms: O_5  and  C_33
REMARK    3  A    between atoms: N_9  and  C_13
REMARK    4  A    between atoms: C_20  and  C_23
REMARK    5  A    between atoms: C_25  and  C_26
REMARK    6  A    between atoms: C_26  and  C_27
REMARK                            x       y       z     vdW  Elec       q    Type
REMARK                         _______ _______ _______ _____ _____    ______ ____
ROOT
ATOM      1  O   UNL     1      -2.006   2.080  22.523  0.00  0.00    -0.273 OA
ATOM      2  O   UNL     1      -3.983   4.694  27.217  0.00  0.00    -0.274 OA
ATOM      4  O   UNL     1       0.492   0.870  23.705  0.00  0.00    -0.275 OA
ATOM      6  N   UNL     1      -3.421   2.581  24.293  0.00  0.00    -0.287 N 
ATOM      7  N   UNL     1       0.213   3.166  23.774  0.00  0.00    -0.288 N 
ATOM      8  N   UNL     1      -2.223   4.920  25.817  0.00  0.00    -0.309 N 
ATOM     10  C   UNL     1      -1.072   3.157  24.470  0.00  0.00    +0.182 C 
ATOM     11  C   UNL     1      -3.633   2.842  25.721  0.00  0.00    +0.164 C 
ATOM     12  C   UNL     1      -1.434   4.636  24.637  0.00  0.00    +0.104 C 
ATOM     13  C   UNL     1      -5.444   1.500  24.827  0.00  0.00    +0.092 C 
ATOM     14  C   UNL     1      -5.118   2.489  25.943  0.00  0.00    +0.055 C 
ATOM     15  C   UNL     1      -4.622   2.041  23.666  0.00  0.00    +0.131 C 
ATOM     16  C   UNL     1      -0.075   5.331  24.637  0.00  0.00    +0.043 C 
ATOM     17  C   UNL     1      -2.188   2.533  23.652  0.00  0.00    +0.239 C 
ATOM     18  C   UNL     1       0.701   4.531  23.600  0.00  0.00    +0.110 C 
ATOM     19  C   UNL     1      -3.339   4.248  26.259  0.00  0.00    +0.234 C 
ATOM     25  C   UNL     1       0.939   2.008  23.548  0.00  0.00    +0.221 C 
ATOM     34  H   UNL     1      -2.055   5.820  26.257  0.00  0.00    +0.149 HD
ENDROOT
BRANCH  13   9
ATOM      3  O   UNL     1      -4.025  -0.365  23.167  0.00  0.00    -0.276 OA
ATOM      9  N   UNL     1      -5.047   0.157  25.178  0.00  0.00    -0.311 N 
ATOM     23  C   UNL     1      -4.359  -0.684  24.313  0.00  0.00    +0.216 C 
ATOM     35  H   UNL     1      -5.320  -0.199  26.088  0.00  0.00    +0.149 HD
BRANCH  23  20
ATOM     20  C   UNL     1      -4.065  -2.050  24.915  0.00  0.00    +0.075 C 
ATOM     21  C   UNL     1      -3.150  -2.076  26.158  0.00  0.00    +0.013 C 
ATOM     22  C   UNL     1      -2.994  -2.904  24.204  0.00  0.00    +0.013 C 
ATOM     24  C   UNL     1      -2.564  -3.392  25.603  0.00  0.00    +0.001 C 
ENDBRANCH  23  20
ENDBRANCH  13   9
BRANCH  25  26
ATOM     26  C   UNL     1       2.357   2.205  23.073  0.00  0.00    +0.134 C 
BRANCH  26  27
ATOM     27  C   UNL     1       3.162   0.962  23.286  0.00  0.00    +0.003 A 
ATOM     28  C   UNL     1       2.626  -0.290  22.990  0.00  0.00    +0.124 A 
ATOM     29  C   UNL     1       4.458   1.069  23.786  0.00  0.00    +0.008 A 
ATOM     30  C   UNL     1       3.390  -1.439  23.194  0.00  0.00    +0.046 A 
ATOM     31  C   UNL     1       5.221  -0.080  23.990  0.00  0.00    +0.001 A 
ATOM     32  C   UNL     1       4.687  -1.334  23.694  0.00  0.00    +0.004 A 
BRANCH  28   5
ATOM      5  O   UNL     1       1.360  -0.410  22.501  0.00  0.00    -0.495 OA
ATOM     33  C   UNL     1       1.226  -0.749  21.123  0.00  0.00    +0.277 C 
ENDBRANCH  28   5
ENDBRANCH  26  27
ENDBRANCH  25  26
TORSDOF 5
ENDMDL
