MODEL 1
REMARK VINA RESULT:      -4.3      0.000      0.000
REMARK  Name = 40533390
REMARK  4 active torsions:
REMARK  status: ('A' for Active; 'I' for Inactive)
REMARK    1  A    between atoms: N_3  and  C_13
REMARK    2  A    between atoms: N_5  and  C_26
REMARK    3  A    between atoms: C_13  and  C_16
REMARK    4  A    between atoms: C_17  and  C_21
REMARK                            x       y       z     vdW  Elec       q    Type
REMARK                         _______ _______ _______ _____ _____    ______ ____
ROOT
ATOM      2  O   UNL     1      11.641  -5.198  31.713  0.00  0.00    -0.267 OA
ATOM      3  N   UNL     1      16.384  -5.046  30.090  0.00  0.00    -0.297 NA
ATOM      4  N   UNL     1      13.933  -5.364  32.107  0.00  0.00    -0.311 N 
ATOM      6  C   UNL     1      15.540  -3.394  31.777  0.00  0.00    +0.024 C 
ATOM      7  C   UNL     1      16.406  -5.556  32.535  0.00  0.00    +0.050 C 
ATOM      8  C   UNL     1      16.355  -4.069  32.873  0.00  0.00    +0.017 C 
ATOM      9  C   UNL     1      16.209  -3.623  30.405  0.00  0.00    +0.090 C 
ATOM     10  C   UNL     1      17.096  -5.751  31.166  0.00  0.00    +0.094 C 
ATOM     11  C   UNL     1      14.103  -3.930  31.829  0.00  0.00    +0.130 C 
ATOM     12  C   UNL     1      15.011  -6.152  32.517  0.00  0.00    +0.026 A 
ATOM     14  C   UNL     1      14.813  -7.431  32.873  0.00  0.00    +0.022 A 
ATOM     15  C   UNL     1      12.621  -5.870  32.038  0.00  0.00    +0.260 A 
ATOM     17  C   UNL     1      12.435  -7.318  32.410  0.00  0.00    +0.053 A 
ATOM     18  C   UNL     1      13.505  -8.020  32.811  0.00  0.00    +0.016 A 
ENDROOT
BRANCH  17  21
ATOM      1  S   UNL     1      10.974  -9.505  31.618  0.00  0.00    -0.088 S 
ATOM     21  C   UNL     1      11.113  -7.963  32.330  0.00  0.00    +0.026 A 
ATOM     24  C   UNL     1       9.901  -7.484  32.767  0.00  0.00    +0.024 A 
ATOM     28  C   UNL     1       8.819  -8.394  32.518  0.00  0.00    -0.010 A 
ATOM     29  C   UNL     1       9.270  -9.557  31.886  0.00  0.00    +0.020 A 
ATOM     31  C   UNL     1       7.438  -8.284  32.810  0.00  0.00    +0.009 A 
ATOM     32  C   UNL     1       8.387 -10.598  31.540  0.00  0.00    +0.015 A 
ATOM     33  C   UNL     1       6.558  -9.316  32.469  0.00  0.00    +0.001 A 
ATOM     34  C   UNL     1       7.030 -10.460  31.841  0.00  0.00    +0.001 A 
ENDBRANCH  17  21
BRANCH   3  13
ATOM     13  C   UNL     1      17.066  -5.220  28.810  0.00  0.00    +0.121 C 
BRANCH  13  16
ATOM      5  N   UNL     1      15.942  -8.584  27.832  0.00  0.00    -0.349 N 
ATOM     16  C   UNL     1      16.694  -6.520  28.147  0.00  0.00    -0.008 A 
ATOM     19  C   UNL     1      16.860  -6.849  26.773  0.00  0.00    +0.004 A 
ATOM     20  C   UNL     1      16.127  -7.607  28.773  0.00  0.00    +0.091 A 
ATOM     22  C   UNL     1      16.381  -8.149  26.602  0.00  0.00    +0.049 A 
ATOM     23  C   UNL     1      17.374  -6.162  25.655  0.00  0.00    +0.010 A 
ATOM     25  C   UNL     1      16.390  -8.800  25.363  0.00  0.00    +0.026 A 
ATOM     26  C   UNL     1      15.370  -9.884  28.109  0.00  0.00    +0.149 C 
ATOM     27  C   UNL     1      17.389  -6.801  24.410  0.00  0.00    +0.001 A 
ATOM     30  C   UNL     1      16.905  -8.100  24.268  0.00  0.00    +0.002 A 
ENDBRANCH  13  16
ENDBRANCH   3  13
TORSDOF 3
ENDMDL
MODEL 2
REMARK VINA RESULT:      -3.8      0.965      2.236
REMARK  Name = 40533390
REMARK  4 active torsions:
REMARK  status: ('A' for Active; 'I' for Inactive)
REMARK    1  A    between atoms: N_3  and  C_13
REMARK    2  A    between atoms: N_5  and  C_26
REMARK    3  A    between atoms: C_13  and  C_16
REMARK    4  A    between atoms: C_17  and  C_21
REMARK                            x       y       z     vdW  Elec       q    Type
REMARK                         _______ _______ _______ _____ _____    ______ ____
ROOT
ATOM      2  O   UNL     1      11.879  -5.447  31.027  0.00  0.00    -0.267 OA
ATOM      3  N   UNL     1      16.680  -5.988  29.682  0.00  0.00    -0.297 NA
ATOM      4  N   UNL     1      14.136  -5.659  31.576  0.00  0.00    -0.311 N 
ATOM      6  C   UNL     1      15.897  -3.931  30.882  0.00  0.00    +0.024 C 
ATOM      7  C   UNL     1      16.569  -5.899  32.175  0.00  0.00    +0.050 C 
ATOM      8  C   UNL     1      16.616  -4.374  32.150  0.00  0.00    +0.017 C 
ATOM      9  C   UNL     1      16.600  -4.523  29.642  0.00  0.00    +0.090 C 
ATOM     10  C   UNL     1      17.295  -6.459  30.931  0.00  0.00    +0.094 C 
ATOM     11  C   UNL     1      14.423  -4.347  30.979  0.00  0.00    +0.130 C 
ATOM     12  C   UNL     1      15.134  -6.393  32.220  0.00  0.00    +0.026 A 
ATOM     14  C   UNL     1      14.827  -7.534  32.856  0.00  0.00    +0.022 A 
ATOM     15  C   UNL     1      12.793  -6.083  31.555  0.00  0.00    +0.260 A 
ATOM     17  C   UNL     1      12.485  -7.385  32.248  0.00  0.00    +0.053 A 
ATOM     18  C   UNL     1      13.483  -8.037  32.862  0.00  0.00    +0.016 A 
ENDROOT
BRANCH  17  21
ATOM      1  S   UNL     1      10.868  -9.532  31.682  0.00  0.00    -0.088 S 
ATOM     21  C   UNL     1      11.122  -7.945  32.248  0.00  0.00    +0.026 A 
ATOM     24  C   UNL     1       9.953  -7.350  32.659  0.00  0.00    +0.024 A 
ATOM     28  C   UNL     1       8.810  -8.205  32.512  0.00  0.00    -0.010 A 
ATOM     29  C   UNL     1       9.171  -9.447  31.981  0.00  0.00    +0.020 A 
ATOM     31  C   UNL     1       7.446  -7.977  32.814  0.00  0.00    +0.009 A 
ATOM     32  C   UNL     1       8.215 -10.454  31.746  0.00  0.00    +0.015 A 
ATOM     33  C   UNL     1       6.494  -8.975  32.583  0.00  0.00    +0.001 A 
ATOM     34  C   UNL     1       6.877 -10.199  32.054  0.00  0.00    +0.001 A 
ENDBRANCH  17  21
BRANCH   3  13
ATOM     13  C   UNL     1      17.398  -6.506  28.518  0.00  0.00    +0.121 C 
BRANCH  13  16
ATOM      5  N   UNL     1      15.870  -9.040  26.332  0.00  0.00    -0.349 N 
ATOM     16  C   UNL     1      16.661  -7.646  27.867  0.00  0.00    -0.008 A 
ATOM     19  C   UNL     1      15.852  -8.616  28.522  0.00  0.00    +0.004 A 
ATOM     20  C   UNL     1      16.653  -7.933  26.521  0.00  0.00    +0.091 A 
ATOM     22  C   UNL     1      15.368  -9.479  27.536  0.00  0.00    +0.049 A 
ATOM     23  C   UNL     1      15.485  -8.844  29.863  0.00  0.00    +0.010 A 
ATOM     25  C   UNL     1      14.531 -10.563  27.826  0.00  0.00    +0.026 A 
ATOM     26  C   UNL     1      15.616  -9.647  25.043  0.00  0.00    +0.149 C 
ATOM     27  C   UNL     1      14.648  -9.924  30.167  0.00  0.00    +0.001 A 
ATOM     30  C   UNL     1      14.180 -10.769  29.163  0.00  0.00    +0.002 A 
ENDBRANCH  13  16
ENDBRANCH   3  13
TORSDOF 3
ENDMDL
MODEL 3
REMARK VINA RESULT:      -3.3      1.390      2.336
REMARK  Name = 40533390
REMARK  4 active torsions:
REMARK  status: ('A' for Active; 'I' for Inactive)
REMARK    1  A    between atoms: N_3  and  C_13
REMARK    2  A    between atoms: N_5  and  C_26
REMARK    3  A    between atoms: C_13  and  C_16
REMARK    4  A    between atoms: C_17  and  C_21
REMARK                            x       y       z     vdW  Elec       q    Type
REMARK                         _______ _______ _______ _____ _____    ______ ____
ROOT
ATOM      2  O   UNL     1      12.207  -5.497  31.530  0.00  0.00    -0.267 OA
ATOM      3  N   UNL     1      16.797  -6.428  29.735  0.00  0.00    -0.297 NA
ATOM      4  N   UNL     1      14.436  -6.101  31.854  0.00  0.00    -0.311 N 
ATOM      6  C   UNL     1      16.388  -4.529  31.319  0.00  0.00    +0.024 C 
ATOM      7  C   UNL     1      16.838  -6.765  32.209  0.00  0.00    +0.050 C 
ATOM      8  C   UNL     1      17.105  -5.280  32.435  0.00  0.00    +0.017 C 
ATOM      9  C   UNL     1      16.928  -4.981  29.946  0.00  0.00    +0.090 C 
ATOM     10  C   UNL     1      17.405  -7.189  30.835  0.00  0.00    +0.094 C 
ATOM     11  C   UNL     1      14.877  -4.755  31.463  0.00  0.00    +0.130 C 
ATOM     12  C   UNL     1      15.352  -7.064  32.285  0.00  0.00    +0.026 A 
ATOM     14  C   UNL     1      14.919  -8.248  32.745  0.00  0.00    +0.022 A 
ATOM     15  C   UNL     1      13.047  -6.332  31.870  0.00  0.00    +0.260 A 
ATOM     17  C   UNL     1      12.592  -7.683  32.358  0.00  0.00    +0.053 A 
ATOM     18  C   UNL     1      13.518  -8.560  32.773  0.00  0.00    +0.016 A 
ENDROOT
BRANCH  17  21
ATOM      1  S   UNL     1      10.711  -9.668  32.106  0.00  0.00    -0.088 S 
ATOM     21  C   UNL     1      11.165  -8.048  32.374  0.00  0.00    +0.026 A 
ATOM     24  C   UNL     1      10.077  -7.234  32.584  0.00  0.00    +0.024 A 
ATOM     28  C   UNL     1       8.830  -7.943  32.526  0.00  0.00    -0.010 A 
ATOM     29  C   UNL     1       9.032  -9.303  32.268  0.00  0.00    +0.020 A 
ATOM     31  C   UNL     1       7.501  -7.483  32.687  0.00  0.00    +0.009 A 
ATOM     32  C   UNL     1       7.953 -10.202  32.166  0.00  0.00    +0.015 A 
ATOM     33  C   UNL     1       6.427  -8.373  32.587  0.00  0.00    +0.001 A 
ATOM     34  C   UNL     1       6.653  -9.717  32.329  0.00  0.00    +0.001 A 
ENDBRANCH  17  21
BRANCH   3  13
ATOM     13  C   UNL     1      17.366  -6.824  28.448  0.00  0.00    +0.121 C 
BRANCH  13  16
ATOM      5  N   UNL     1      17.390  -3.631  26.620  0.00  0.00    -0.349 N 
ATOM     16  C   UNL     1      17.376  -5.683  27.466  0.00  0.00    -0.008 A 
ATOM     19  C   UNL     1      17.386  -5.786  26.047  0.00  0.00    +0.004 A 
ATOM     20  C   UNL     1      17.379  -4.345  27.788  0.00  0.00    +0.091 A 
ATOM     22  C   UNL     1      17.394  -4.485  25.540  0.00  0.00    +0.049 A 
ATOM     23  C   UNL     1      17.388  -6.866  25.142  0.00  0.00    +0.010 A 
ATOM     25  C   UNL     1      17.404  -4.209  24.169  0.00  0.00    +0.026 A 
ATOM     26  C   UNL     1      17.392  -2.186  26.549  0.00  0.00    +0.149 C 
ATOM     27  C   UNL     1      17.398  -6.604  23.767  0.00  0.00    +0.001 A 
ATOM     30  C   UNL     1      17.405  -5.295  23.290  0.00  0.00    +0.002 A 
ENDBRANCH  13  16
ENDBRANCH   3  13
TORSDOF 3
ENDMDL
