MODEL 1
REMARK VINA RESULT:      -5.6      0.000      0.000
REMARK  Name = 56775279
REMARK  3 active torsions:
REMARK  status: ('A' for Active; 'I' for Inactive)
REMARK    1  A    between atoms: N_7  and  C_15
REMARK    2  A    between atoms: C_15  and  C_17
REMARK    3  A    between atoms: C_16  and  C_18
REMARK                            x       y       z     vdW  Elec       q    Type
REMARK                         _______ _______ _______ _____ _____    ______ ____
ROOT
ATOM      2  O   UNL     1       0.179   2.666  23.861  0.00  0.00    -0.364 OA
ATOM      3  O   UNL     1       0.905  -0.744  23.150  0.00  0.00    -0.273 OA
ATOM      4  O   UNL     1      -3.513   5.023  25.830  0.00  0.00    -0.267 OA
ATOM      6  N   UNL     1      -2.269   3.082  25.543  0.00  0.00    -0.291 N 
ATOM      7  N   UNL     1      -0.158   0.159  25.013  0.00  0.00    -0.288 N 
ATOM      9  C   UNL     1      -0.671   1.346  25.685  0.00  0.00    +0.124 C 
ATOM     10  C   UNL     1       0.033   2.638  25.278  0.00  0.00    +0.158 C 
ATOM     11  C   UNL     1      -2.135   1.641  25.343  0.00  0.00    +0.133 C 
ATOM     12  C   UNL     1      -0.963   3.717  25.684  0.00  0.00    +0.141 C 
ATOM     13  C   UNL     1       0.567   0.230  23.827  0.00  0.00    +0.242 C 
ATOM     14  C   UNL     1       1.020   1.622  23.425  0.00  0.00    +0.256 C 
ATOM     16  C   UNL     1      -3.445   3.807  25.661  0.00  0.00    +0.285 C 
ENDROOT
BRANCH  16  18
ATOM      5  O   UNL     1      -5.482   3.001  26.709  0.00  0.00    -0.350 OA
ATOM      8  N   UNL     1      -6.626   2.257  26.437  0.00  0.00    -0.086 NA
ATOM     18  C   UNL     1      -4.713   3.062  25.592  0.00  0.00    +0.222 A 
ATOM     21  C   UNL     1      -5.319   2.373  24.575  0.00  0.00    +0.077 A 
ATOM     25  C   UNL     1      -6.505   1.894  25.157  0.00  0.00    +0.157 A 
ENDBRANCH  16  18
BRANCH   7  15
ATOM     15  C   UNL     1      -0.575  -1.131  25.544  0.00  0.00    +0.143 C 
BRANCH  15  17
ATOM      1  F   UNL     1      -5.447  -2.855  23.309  0.00  0.00    -0.205 F 
ATOM     17  C   UNL     1      -1.874  -1.591  24.948  0.00  0.00    -0.030 A 
ATOM     19  C   UNL     1      -1.967  -2.857  24.371  0.00  0.00    +0.008 A 
ATOM     20  C   UNL     1      -2.988  -0.751  24.972  0.00  0.00    +0.008 A 
ATOM     22  C   UNL     1      -3.173  -3.285  23.817  0.00  0.00    +0.038 A 
ATOM     23  C   UNL     1      -4.195  -1.178  24.417  0.00  0.00    +0.038 A 
ATOM     24  C   UNL     1      -4.288  -2.445  23.840  0.00  0.00    +0.123 A 
ENDBRANCH  15  17
ENDBRANCH   7  15
TORSDOF 3
ENDMDL
MODEL 2
REMARK VINA RESULT:      -4.9      2.141      5.015
REMARK  Name = 56775279
REMARK  3 active torsions:
REMARK  status: ('A' for Active; 'I' for Inactive)
REMARK    1  A    between atoms: N_7  and  C_15
REMARK    2  A    between atoms: C_15  and  C_17
REMARK    3  A    between atoms: C_16  and  C_18
REMARK                            x       y       z     vdW  Elec       q    Type
REMARK                         _______ _______ _______ _____ _____    ______ ____
ROOT
ATOM      2  O   UNL     1       0.444   2.927  25.321  0.00  0.00    -0.364 OA
ATOM      3  O   UNL     1      -2.130   5.368  25.601  0.00  0.00    -0.273 OA
ATOM      4  O   UNL     1       0.581  -1.792  24.437  0.00  0.00    -0.267 OA
ATOM      6  N   UNL     1      -0.483   0.268  24.288  0.00  0.00    -0.291 N 
ATOM      7  N   UNL     1      -1.966   3.593  24.105  0.00  0.00    -0.288 N 
ATOM      9  C   UNL     1      -1.220   2.423  23.657  0.00  0.00    +0.124 C 
ATOM     10  C   UNL     1       0.272   2.482  23.979  0.00  0.00    +0.158 C 
ATOM     11  C   UNL     1      -1.661   1.131  24.349  0.00  0.00    +0.133 C 
ATOM     12  C   UNL     1       0.701   1.023  23.893  0.00  0.00    +0.141 C 
ATOM     13  C   UNL     1      -1.485   4.449  25.092  0.00  0.00    +0.242 C 
ATOM     14  C   UNL     1      -0.029   4.246  25.475  0.00  0.00    +0.256 C 
ATOM     16  C   UNL     1      -0.435  -1.101  24.499  0.00  0.00    +0.285 C 
ENDROOT
BRANCH  16  18
ATOM      5  O   UNL     1      -2.472  -1.290  25.808  0.00  0.00    -0.350 OA
ATOM      8  N   UNL     1      -3.612  -2.075  25.940  0.00  0.00    -0.086 NA
ATOM     18  C   UNL     1      -1.700  -1.787  24.808  0.00  0.00    +0.222 A 
ATOM     21  C   UNL     1      -2.302  -2.892  24.266  0.00  0.00    +0.077 A 
ATOM     25  C   UNL     1      -3.488  -3.024  25.009  0.00  0.00    +0.157 A 
ENDBRANCH  16  18
BRANCH   7  15
ATOM     15  C   UNL     1      -3.321   3.745  23.596  0.00  0.00    +0.143 C 
BRANCH  15  17
ATOM      1  F   UNL     1      -7.113   1.237  26.916  0.00  0.00    -0.205 F 
ATOM     17  C   UNL     1      -4.332   3.076  24.481  0.00  0.00    -0.030 A 
ATOM     19  C   UNL     1      -4.578   1.710  24.350  0.00  0.00    +0.008 A 
ATOM     20  C   UNL     1      -5.025   3.822  25.435  0.00  0.00    +0.008 A 
ATOM     22  C   UNL     1      -5.518   1.088  25.172  0.00  0.00    +0.038 A 
ATOM     23  C   UNL     1      -5.966   3.201  26.257  0.00  0.00    +0.038 A 
ATOM     24  C   UNL     1      -6.212   1.834  26.126  0.00  0.00    +0.123 A 
ENDBRANCH  15  17
ENDBRANCH   7  15
TORSDOF 3
ENDMDL
MODEL 3
REMARK VINA RESULT:      -4.2      2.676      4.682
REMARK  Name = 56775279
REMARK  3 active torsions:
REMARK  status: ('A' for Active; 'I' for Inactive)
REMARK    1  A    between atoms: N_7  and  C_15
REMARK    2  A    between atoms: C_15  and  C_17
REMARK    3  A    between atoms: C_16  and  C_18
REMARK                            x       y       z     vdW  Elec       q    Type
REMARK                         _______ _______ _______ _____ _____    ______ ____
ROOT
ATOM      2  O   UNL     1      -3.252  -2.276  25.350  0.00  0.00    -0.364 OA
ATOM      3  O   UNL     1       0.282  -2.212  25.760  0.00  0.00    -0.273 OA
ATOM      4  O   UNL     1      -6.654   1.030  24.600  0.00  0.00    -0.267 OA
ATOM      6  N   UNL     1      -4.440   0.334  24.474  0.00  0.00    -0.291 N 
ATOM      7  N   UNL     1      -1.036  -0.958  24.309  0.00  0.00    -0.288 N 
ATOM      9  C   UNL     1      -2.375  -0.622  23.839  0.00  0.00    +0.124 C 
ATOM     10  C   UNL     1      -3.398  -1.738  24.040  0.00  0.00    +0.158 C 
ATOM     11  C   UNL     1      -3.001   0.548  24.602  0.00  0.00    +0.133 C 
ATOM     12  C   UNL     1      -4.730  -1.001  23.964  0.00  0.00    +0.141 C 
ATOM     13  C   UNL     1      -0.805  -1.977  25.230  0.00  0.00    +0.242 C 
ATOM     14  C   UNL     1      -1.990  -2.887  25.502  0.00  0.00    +0.256 C 
ATOM     16  C   UNL     1      -5.450   1.252  24.721  0.00  0.00    +0.285 C 
ENDROOT
BRANCH  16  18
ATOM      5  O   UNL     1      -5.517   3.061  26.340  0.00  0.00    -0.350 OA
ATOM      8  N   UNL     1      -5.031   4.345  26.557  0.00  0.00    -0.086 NA
ATOM     18  C   UNL     1      -5.052   2.603  25.149  0.00  0.00    +0.222 A 
ATOM     21  C   UNL     1      -4.263   3.556  24.563  0.00  0.00    +0.077 A 
ATOM     25  C   UNL     1      -4.284   4.619  25.484  0.00  0.00    +0.157 A 
ENDBRANCH  16  18
BRANCH   7  15
ATOM     15  C   UNL     1       0.046  -0.073  23.904  0.00  0.00    +0.143 C 
BRANCH  15  17
ATOM      1  F   UNL     1      -0.901   5.258  25.449  0.00  0.00    -0.205 F 
ATOM     17  C   UNL     1      -0.206   1.348  24.316  0.00  0.00    -0.030 A 
ATOM     19  C   UNL     1      -0.411   2.330  23.346  0.00  0.00    +0.008 A 
ATOM     20  C   UNL     1      -0.236   1.688  25.669  0.00  0.00    +0.008 A 
ATOM     22  C   UNL     1      -0.645   3.650  23.729  0.00  0.00    +0.038 A 
ATOM     23  C   UNL     1      -0.470   3.008  26.052  0.00  0.00    +0.038 A 
ATOM     24  C   UNL     1      -0.674   3.990  25.082  0.00  0.00    +0.123 A 
ENDBRANCH  15  17
ENDBRANCH   7  15
TORSDOF 3
ENDMDL
MODEL 4
REMARK VINA RESULT:      -3.7      1.587      5.054
REMARK  Name = 56775279
REMARK  3 active torsions:
REMARK  status: ('A' for Active; 'I' for Inactive)
REMARK    1  A    between atoms: N_7  and  C_15
REMARK    2  A    between atoms: C_15  and  C_17
REMARK    3  A    between atoms: C_16  and  C_18
REMARK                            x       y       z     vdW  Elec       q    Type
REMARK                         _______ _______ _______ _____ _____    ______ ____
ROOT
ATOM      2  O   UNL     1      -3.677   4.177  26.022  0.00  0.00    -0.364 OA
ATOM      3  O   UNL     1      -6.420   2.077  26.876  0.00  0.00    -0.273 OA
ATOM      4  O   UNL     1       0.506   3.558  23.746  0.00  0.00    -0.267 OA
ATOM      6  N   UNL     1      -1.686   2.914  24.169  0.00  0.00    -0.291 N 
ATOM      7  N   UNL     1      -5.157   2.096  24.922  0.00  0.00    -0.288 N 
ATOM      9  C   UNL     1      -4.036   2.666  24.184  0.00  0.00    +0.124 C 
ATOM     10  C   UNL     1      -3.684   4.092  24.600  0.00  0.00    +0.158 C 
ATOM     11  C   UNL     1      -2.723   1.915  24.419  0.00  0.00    +0.133 C 
ATOM     12  C   UNL     1      -2.255   4.255  24.098  0.00  0.00    +0.141 C 
ATOM     13  C   UNL     1      -5.571   2.601  26.152  0.00  0.00    +0.242 C 
ATOM     14  C   UNL     1      -4.965   3.937  26.543  0.00  0.00    +0.256 C 
ATOM     16  C   UNL     1      -0.335   2.685  23.953  0.00  0.00    +0.285 C 
ENDROOT
BRANCH  16  18
ATOM      5  O   UNL     1       1.190   0.962  23.179  0.00  0.00    -0.350 OA
ATOM      8  N   UNL     1       1.466  -0.394  23.325  0.00  0.00    -0.086 NA
ATOM     18  C   UNL     1       0.128   1.288  23.958  0.00  0.00    +0.222 A 
ATOM     21  C   UNL     1      -0.316   0.177  24.625  0.00  0.00    +0.077 A 
ATOM     25  C   UNL     1       0.554  -0.840  24.193  0.00  0.00    +0.157 A 
ENDBRANCH  16  18
BRANCH   7  15
ATOM     15  C   UNL     1      -5.732   0.865  24.401  0.00  0.00    +0.143 C 
BRANCH  15  17
ATOM      1  F   UNL     1      -2.299  -3.537  25.140  0.00  0.00    -0.205 F 
ATOM     17  C   UNL     1      -4.816  -0.309  24.598  0.00  0.00    -0.030 A 
ATOM     19  C   UNL     1      -4.682  -1.265  23.591  0.00  0.00    +0.008 A 
ATOM     20  C   UNL     1      -4.101  -0.444  25.788  0.00  0.00    +0.008 A 
ATOM     22  C   UNL     1      -3.832  -2.356  23.774  0.00  0.00    +0.038 A 
ATOM     23  C   UNL     1      -3.251  -1.534  25.972  0.00  0.00    +0.038 A 
ATOM     24  C   UNL     1      -3.116  -2.490  24.965  0.00  0.00    +0.123 A 
ENDBRANCH  15  17
ENDBRANCH   7  15
TORSDOF 3
ENDMDL
MODEL 5
REMARK VINA RESULT:      -3.3      2.601      4.923
REMARK  Name = 56775279
REMARK  3 active torsions:
REMARK  status: ('A' for Active; 'I' for Inactive)
REMARK    1  A    between atoms: N_7  and  C_15
REMARK    2  A    between atoms: C_15  and  C_17
REMARK    3  A    between atoms: C_16  and  C_18
REMARK                            x       y       z     vdW  Elec       q    Type
REMARK                         _______ _______ _______ _____ _____    ______ ____
ROOT
ATOM      2  O   UNL     1      -1.122  -1.790  24.863  0.00  0.00    -0.364 OA
ATOM      3  O   UNL     1      -4.085  -2.556  23.047  0.00  0.00    -0.273 OA
ATOM      4  O   UNL     1       0.851   2.218  26.626  0.00  0.00    -0.267 OA
ATOM      6  N   UNL     1      -1.005   1.020  25.904  0.00  0.00    -0.291 N 
ATOM      7  N   UNL     1      -3.798  -1.038  24.787  0.00  0.00    -0.288 N 
ATOM      9  C   UNL     1      -2.886  -0.400  25.728  0.00  0.00    +0.124 C 
ATOM     10  C   UNL     1      -1.657  -1.242  26.064  0.00  0.00    +0.158 C 
ATOM     11  C   UNL     1      -2.268   0.891  25.182  0.00  0.00    +0.133 C 
ATOM     12  C   UNL     1      -0.672  -0.213  26.608  0.00  0.00    +0.141 C 
ATOM     13  C   UNL     1      -3.397  -2.076  23.950  0.00  0.00    +0.242 C 
ATOM     14  C   UNL     1      -2.041  -2.679  24.268  0.00  0.00    +0.256 C 
ATOM     16  C   UNL     1      -0.209   2.151  26.006  0.00  0.00    +0.285 C 
ENDROOT
BRANCH  16  18
ATOM      5  O   UNL     1      -1.537   4.184  25.994  0.00  0.00    -0.350 OA
ATOM      8  N   UNL     1      -1.853   5.274  25.190  0.00  0.00    -0.086 NA
ATOM     18  C   UNL     1      -0.674   3.374  25.330  0.00  0.00    +0.222 A 
ATOM     21  C   UNL     1      -0.404   3.899  24.095  0.00  0.00    +0.077 A 
ATOM     25  C   UNL     1      -1.164   5.082  24.062  0.00  0.00    +0.157 A 
ENDBRANCH  16  18
BRANCH   7  15
ATOM     15  C   UNL     1      -5.114  -0.436  24.633  0.00  0.00    +0.143 C 
BRANCH  15  17
ATOM      1  F   UNL     1      -4.960   5.156  25.279  0.00  0.00    -0.205 F 
ATOM     17  C   UNL     1      -5.073   1.056  24.806  0.00  0.00    -0.030 A 
ATOM     19  C   UNL     1      -5.717   1.650  25.891  0.00  0.00    +0.008 A 
ATOM     20  C   UNL     1      -4.391   1.846  23.880  0.00  0.00    +0.008 A 
ATOM     22  C   UNL     1      -5.679   3.035  26.051  0.00  0.00    +0.038 A 
ATOM     23  C   UNL     1      -4.354   3.231  24.039  0.00  0.00    +0.038 A 
ATOM     24  C   UNL     1      -4.997   3.826  25.125  0.00  0.00    +0.123 A 
ENDBRANCH  15  17
ENDBRANCH   7  15
TORSDOF 3
ENDMDL
MODEL 6
REMARK VINA RESULT:      -2.0      1.309      1.693
REMARK  Name = 56775279
REMARK  3 active torsions:
REMARK  status: ('A' for Active; 'I' for Inactive)
REMARK    1  A    between atoms: N_7  and  C_15
REMARK    2  A    between atoms: C_15  and  C_17
REMARK    3  A    between atoms: C_16  and  C_18
REMARK                            x       y       z     vdW  Elec       q    Type
REMARK                         _______ _______ _______ _____ _____    ______ ____
ROOT
ATOM      2  O   UNL     1      -0.689   3.905  24.234  0.00  0.00    -0.364 OA
ATOM      3  O   UNL     1       1.072   0.852  23.745  0.00  0.00    -0.273 OA
ATOM      4  O   UNL     1      -5.039   5.101  25.881  0.00  0.00    -0.267 OA
ATOM      6  N   UNL     1      -3.253   3.619  25.763  0.00  0.00    -0.291 N 
ATOM      7  N   UNL     1      -0.332   1.456  25.500  0.00  0.00    -0.288 N 
ATOM      9  C   UNL     1      -1.221   2.455  26.079  0.00  0.00    +0.124 C 
ATOM     10  C   UNL     1      -0.912   3.885  25.641  0.00  0.00    +0.158 C 
ATOM     11  C   UNL     1      -2.680   2.280  25.648  0.00  0.00    +0.133 C 
ATOM     12  C   UNL     1      -2.211   4.625  25.937  0.00  0.00    +0.141 C 
ATOM     13  C   UNL     1       0.414   1.701  24.350  0.00  0.00    +0.242 C 
ATOM     14  C   UNL     1       0.453   3.150  23.898  0.00  0.00    +0.256 C 
ATOM     16  C   UNL     1      -4.598   3.957  25.781  0.00  0.00    +0.285 C 
ENDROOT
BRANCH  16  18
ATOM      5  O   UNL     1      -6.061   2.537  24.461  0.00  0.00    -0.350 OA
ATOM      8  N   UNL     1      -6.964   1.487  24.588  0.00  0.00    -0.086 NA
ATOM     18  C   UNL     1      -5.576   2.861  25.687  0.00  0.00    +0.222 A 
ATOM     21  C   UNL     1      -6.137   2.047  26.636  0.00  0.00    +0.077 A 
ATOM     25  C   UNL     1      -6.992   1.212  25.895  0.00  0.00    +0.157 A 
ENDBRANCH  16  18
BRANCH   7  15
ATOM     15  C   UNL     1      -0.376   0.120  26.077  0.00  0.00    +0.143 C 
BRANCH  15  17
ATOM      1  F   UNL     1      -4.425  -3.039  23.770  0.00  0.00    -0.205 F 
ATOM     17  C   UNL     1      -1.456  -0.722  25.462  0.00  0.00    -0.030 A 
ATOM     19  C   UNL     1      -2.757  -0.663  25.962  0.00  0.00    +0.008 A 
ATOM     20  C   UNL     1      -1.158  -1.564  24.390  0.00  0.00    +0.008 A 
ATOM     22  C   UNL     1      -3.760  -1.446  25.391  0.00  0.00    +0.038 A 
ATOM     23  C   UNL     1      -2.161  -2.347  23.819  0.00  0.00    +0.038 A 
ATOM     24  C   UNL     1      -3.462  -2.288  24.319  0.00  0.00    +0.123 A 
ENDBRANCH  15  17
ENDBRANCH   7  15
TORSDOF 3
ENDMDL
