MODEL 1
REMARK VINA RESULT:       6.0      0.000      0.000
REMARK  Name = 7144128
REMARK  4 active torsions:
REMARK  status: ('A' for Active; 'I' for Inactive)
REMARK    1  A    between atoms: O_4  and  C_20
REMARK    2  A    between atoms: O_4  and  C_26
REMARK    3  A    between atoms: C_14  and  C_19
REMARK    4  A    between atoms: C_16  and  C_20
REMARK                            x       y       z     vdW  Elec       q    Type
REMARK                         _______ _______ _______ _____ _____    ______ ____
ROOT
ATOM      2  O   UNL     1      -3.601   4.075  21.053  0.00  0.00    -0.268 OA
ATOM      3  O   UNL     1      -0.511   5.178  25.173  0.00  0.00    -0.272 OA
ATOM      5  N   UNL     1      -2.193   3.716  25.825  0.00  0.00    -0.298 N 
ATOM      6  N   UNL     1      -3.797   3.062  23.156  0.00  0.00    -0.311 N 
ATOM      7  C   UNL     1      -4.513   4.395  25.224  0.00  0.00    +0.027 C 
ATOM      8  C   UNL     1      -3.963   2.009  25.432  0.00  0.00    +0.054 C 
ATOM      9  C   UNL     1      -5.033   3.057  25.728  0.00  0.00    +0.018 C 
ATOM     10  C   UNL     1      -3.200   4.771  25.931  0.00  0.00    +0.113 C 
ATOM     11  C   UNL     1      -4.342   4.310  23.707  0.00  0.00    +0.130 C 
ATOM     12  C   UNL     1      -2.665   2.373  26.186  0.00  0.00    +0.117 C 
ATOM     13  C   UNL     1      -3.688   1.890  23.931  0.00  0.00    +0.034 A 
ATOM     14  C   UNL     1      -3.322   0.721  23.342  0.00  0.00    +0.002 A 
ATOM     15  C   UNL     1      -3.509   3.085  21.778  0.00  0.00    +0.252 A 
ATOM     16  C   UNL     1      -0.884   4.042  25.472  0.00  0.00    +0.253 C 
ATOM     17  C   UNL     1      -3.013   0.707  21.926  0.00  0.00    +0.015 A 
ATOM     18  C   UNL     1      -3.078   1.806  21.172  0.00  0.00    +0.071 A 
ENDROOT
BRANCH  14  19
ATOM      1 CL   UNL     1      -2.872  -4.370  26.454  0.00  0.00    -0.084 Cl
ATOM     19  C   UNL     1      -3.211  -0.537  24.112  0.00  0.00    -0.016 A 
ATOM     21  C   UNL     1      -2.234  -0.662  25.094  0.00  0.00    +0.010 A 
ATOM     22  C   UNL     1      -4.084  -1.588  23.847  0.00  0.00    +0.010 A 
ATOM     23  C   UNL     1      -2.128  -1.850  25.819  0.00  0.00    +0.020 A 
ATOM     24  C   UNL     1      -3.979  -2.776  24.573  0.00  0.00    +0.020 A 
ATOM     25  C   UNL     1      -3.001  -2.906  25.558  0.00  0.00    +0.041 A 
ENDBRANCH  14  19
BRANCH  16  20
ATOM     20  C   UNL     1       0.113   2.911  25.455  0.00  0.00    +0.324 C 
BRANCH  20   4
ATOM      4  O   UNL     1      -0.305   2.022  24.447  0.00  0.00    -0.483 OA
BRANCH   4  26
ATOM     26  C   UNL     1       0.675   1.347  23.753  0.00  0.00    +0.121 A 
ATOM     27  C   UNL     1       1.954   1.879  23.689  0.00  0.00    +0.045 A 
ATOM     28  C   UNL     1       0.364   0.148  23.128  0.00  0.00    +0.045 A 
ATOM     29  C   UNL     1       2.945   1.196  22.984  0.00  0.00    +0.004 A 
ATOM     30  C   UNL     1       1.356  -0.535  22.424  0.00  0.00    +0.004 A 
ATOM     31  C   UNL     1       2.646  -0.010  22.352  0.00  0.00    +0.000 A 
ENDBRANCH   4  26
ENDBRANCH  20   4
ENDBRANCH  16  20
TORSDOF 4
ENDMDL
MODEL 2
REMARK VINA RESULT:       6.7      2.485      4.901
REMARK  Name = 7144128
REMARK  4 active torsions:
REMARK  status: ('A' for Active; 'I' for Inactive)
REMARK    1  A    between atoms: O_4  and  C_20
REMARK    2  A    between atoms: O_4  and  C_26
REMARK    3  A    between atoms: C_14  and  C_19
REMARK    4  A    between atoms: C_16  and  C_20
REMARK                            x       y       z     vdW  Elec       q    Type
REMARK                         _______ _______ _______ _____ _____    ______ ____
ROOT
ATOM      2  O   UNL     1      -2.838   4.225  28.334  0.00  0.00    -0.268 OA
ATOM      3  O   UNL     1      -6.345   1.234  25.785  0.00  0.00    -0.272 OA
ATOM      5  N   UNL     1      -4.785   2.068  24.280  0.00  0.00    -0.298 N 
ATOM      6  N   UNL     1      -2.693   3.670  26.063  0.00  0.00    -0.311 N 
ATOM      7  C   UNL     1      -4.407   4.529  24.362  0.00  0.00    +0.027 C 
ATOM      8  C   UNL     1      -2.589   3.045  23.631  0.00  0.00    +0.054 C 
ATOM      9  C   UNL     1      -3.270   4.385  23.362  0.00  0.00    +0.018 C 
ATOM     10  C   UNL     1      -5.421   3.383  24.204  0.00  0.00    +0.113 C 
ATOM     11  C   UNL     1      -3.812   4.576  25.770  0.00  0.00    +0.130 C 
ATOM     12  C   UNL     1      -3.605   1.902  23.422  0.00  0.00    +0.117 C 
ATOM     13  C   UNL     1      -2.004   2.983  25.044  0.00  0.00    +0.034 A 
ATOM     14  C   UNL     1      -0.882   2.276  25.344  0.00  0.00    +0.002 A 
ATOM     15  C   UNL     1      -2.283   3.633  27.409  0.00  0.00    +0.252 A 
ATOM     16  C   UNL     1      -5.352   1.070  25.072  0.00  0.00    +0.253 C 
ATOM     17  C   UNL     1      -0.432   2.212  26.720  0.00  0.00    +0.015 A 
ATOM     18  C   UNL     1      -1.079   2.827  27.710  0.00  0.00    +0.071 A 
ENDROOT
BRANCH  14  19
ATOM      1 CL   UNL     1       2.216  -0.649  21.142  0.00  0.00    -0.084 Cl
ATOM     19  C   UNL     1      -0.116   1.554  24.304  0.00  0.00    -0.016 A 
ATOM     21  C   UNL     1      -0.768   0.652  23.468  0.00  0.00    +0.010 A 
ATOM     22  C   UNL     1       1.250   1.779  24.171  0.00  0.00    +0.010 A 
ATOM     23  C   UNL     1      -0.045  -0.031  22.489  0.00  0.00    +0.020 A 
ATOM     24  C   UNL     1       1.973   1.097  23.191  0.00  0.00    +0.020 A 
ATOM     25  C   UNL     1       1.325   0.193  22.351  0.00  0.00    +0.041 A 
ENDBRANCH  14  19
BRANCH  16  20
ATOM     20  C   UNL     1      -4.681  -0.280  25.042  0.00  0.00    +0.324 C 
BRANCH  20   4
ATOM      4  O   UNL     1      -3.526  -0.173  25.838  0.00  0.00    -0.483 OA
BRANCH   4  26
ATOM     26  C   UNL     1      -2.489  -1.038  25.568  0.00  0.00    +0.121 A 
ATOM     27  C   UNL     1      -1.300  -0.919  26.274  0.00  0.00    +0.045 A 
ATOM     28  C   UNL     1      -2.650  -2.011  24.593  0.00  0.00    +0.045 A 
ATOM     29  C   UNL     1      -0.250  -1.795  25.999  0.00  0.00    +0.004 A 
ATOM     30  C   UNL     1      -1.599  -2.887  24.319  0.00  0.00    +0.004 A 
ATOM     31  C   UNL     1      -0.399  -2.778  25.022  0.00  0.00    +0.000 A 
ENDBRANCH   4  26
ENDBRANCH  20   4
ENDBRANCH  16  20
TORSDOF 4
ENDMDL
MODEL 3
REMARK VINA RESULT:       7.3      2.362      5.033
REMARK  Name = 7144128
REMARK  4 active torsions:
REMARK  status: ('A' for Active; 'I' for Inactive)
REMARK    1  A    between atoms: O_4  and  C_20
REMARK    2  A    between atoms: O_4  and  C_26
REMARK    3  A    between atoms: C_14  and  C_19
REMARK    4  A    between atoms: C_16  and  C_20
REMARK                            x       y       z     vdW  Elec       q    Type
REMARK                         _______ _______ _______ _____ _____    ______ ____
ROOT
ATOM      2  O   UNL     1      -2.802   5.717  25.803  0.00  0.00    -0.268 OA
ATOM      3  O   UNL     1      -5.478   1.192  26.123  0.00  0.00    -0.272 OA
ATOM      5  N   UNL     1      -4.126   1.170  24.235  0.00  0.00    -0.298 N 
ATOM      6  N   UNL     1      -2.492   3.898  24.361  0.00  0.00    -0.311 N 
ATOM      7  C   UNL     1      -4.327   3.148  22.735  0.00  0.00    +0.027 C 
ATOM      8  C   UNL     1      -2.203   1.916  22.841  0.00  0.00    +0.054 C 
ATOM      9  C   UNL     1      -3.170   2.627  21.897  0.00  0.00    +0.018 C 
ATOM     10  C   UNL     1      -5.046   1.992  23.451  0.00  0.00    +0.113 C 
ATOM     11  C   UNL     1      -3.784   4.183  23.722  0.00  0.00    +0.130 C 
ATOM     12  C   UNL     1      -2.924   0.730  23.516  0.00  0.00    +0.117 C 
ATOM     13  C   UNL     1      -1.645   2.870  23.901  0.00  0.00    +0.034 A 
ATOM     14  C   UNL     1      -0.396   2.739  24.421  0.00  0.00    +0.002 A 
ATOM     15  C   UNL     1      -2.109   4.794  25.375  0.00  0.00    +0.252 A 
ATOM     16  C   UNL     1      -4.462   0.809  25.540  0.00  0.00    +0.253 C 
ATOM     17  C   UNL     1       0.032   3.642  25.471  0.00  0.00    +0.015 A 
ATOM     18  C   UNL     1      -0.757   4.606  25.947  0.00  0.00    +0.071 A 
ENDROOT
BRANCH  14  19
ATOM      1 CL   UNL     1       3.368  -1.519  22.549  0.00  0.00    -0.084 Cl
ATOM     19  C   UNL     1       0.534   1.686  23.958  0.00  0.00    -0.016 A 
ATOM     21  C   UNL     1       0.124   0.357  23.950  0.00  0.00    +0.010 A 
ATOM     22  C   UNL     1       1.813   2.033  23.534  0.00  0.00    +0.010 A 
ATOM     23  C   UNL     1       1.002  -0.636  23.514  0.00  0.00    +0.020 A 
ATOM     24  C   UNL     1       2.692   1.040  23.097  0.00  0.00    +0.020 A 
ATOM     25  C   UNL     1       2.286  -0.294  23.088  0.00  0.00    +0.041 A 
ENDBRANCH  14  19
BRANCH  16  20
ATOM     20  C   UNL     1      -3.497  -0.100  26.259  0.00  0.00    +0.324 C 
BRANCH  20   4
ATOM      4  O   UNL     1      -3.975  -1.412  26.086  0.00  0.00    -0.483 OA
BRANCH   4  26
ATOM     26  C   UNL     1      -3.349  -2.194  25.141  0.00  0.00    +0.121 A 
ATOM     27  C   UNL     1      -1.963  -2.268  25.128  0.00  0.00    +0.045 A 
ATOM     28  C   UNL     1      -4.114  -2.892  24.219  0.00  0.00    +0.045 A 
ATOM     29  C   UNL     1      -1.330  -3.060  24.170  0.00  0.00    +0.004 A 
ATOM     30  C   UNL     1      -3.479  -3.684  23.261  0.00  0.00    +0.004 A 
ATOM     31  C   UNL     1      -2.087  -3.767  23.237  0.00  0.00    +0.000 A 
ENDBRANCH   4  26
ENDBRANCH  20   4
ENDBRANCH  16  20
TORSDOF 4
ENDMDL
MODEL 4
REMARK VINA RESULT:       7.3      1.863      3.062
REMARK  Name = 7144128
REMARK  4 active torsions:
REMARK  status: ('A' for Active; 'I' for Inactive)
REMARK    1  A    between atoms: O_4  and  C_20
REMARK    2  A    between atoms: O_4  and  C_26
REMARK    3  A    between atoms: C_14  and  C_19
REMARK    4  A    between atoms: C_16  and  C_20
REMARK                            x       y       z     vdW  Elec       q    Type
REMARK                         _______ _______ _______ _____ _____    ______ ____
ROOT
ATOM      2  O   UNL     1      -2.876   4.938  23.813  0.00  0.00    -0.268 OA
ATOM      3  O   UNL     1       1.866   2.712  23.265  0.00  0.00    -0.272 OA
ATOM      5  N   UNL     1       0.642   1.563  24.870  0.00  0.00    -0.298 N 
ATOM      6  N   UNL     1      -2.215   2.964  24.887  0.00  0.00    -0.311 N 
ATOM      7  C   UNL     1      -0.371   2.959  26.667  0.00  0.00    +0.027 C 
ATOM      8  C   UNL     1      -1.451   0.850  26.015  0.00  0.00    +0.054 C 
ATOM      9  C   UNL     1      -1.095   1.735  27.207  0.00  0.00    +0.018 C 
ATOM     10  C   UNL     1       0.908   2.549  25.916  0.00  0.00    +0.113 C 
ATOM     11  C   UNL     1      -1.335   3.739  25.772  0.00  0.00    +0.130 C 
ATOM     12  C   UNL     1      -0.158   0.407  25.299  0.00  0.00    +0.117 C 
ATOM     13  C   UNL     1      -2.379   1.572  25.033  0.00  0.00    +0.034 A 
ATOM     14  C   UNL     1      -3.315   0.920  24.294  0.00  0.00    +0.002 A 
ATOM     15  C   UNL     1      -2.969   3.721  23.971  0.00  0.00    +0.252 A 
ATOM     16  C   UNL     1       1.198   1.732  23.602  0.00  0.00    +0.253 C 
ATOM     17  C   UNL     1      -4.108   1.667  23.337  0.00  0.00    +0.015 A 
ATOM     18  C   UNL     1      -3.955   2.978  23.155  0.00  0.00    +0.071 A 
ENDROOT
BRANCH  14  19
ATOM      1 CL   UNL     1      -4.204  -4.973  24.829  0.00  0.00    -0.084 Cl
ATOM     19  C   UNL     1      -3.536  -0.537  24.427  0.00  0.00    -0.016 A 
ATOM     21  C   UNL     1      -3.156  -1.189  25.596  0.00  0.00    +0.010 A 
ATOM     22  C   UNL     1      -4.120  -1.245  23.381  0.00  0.00    +0.010 A 
ATOM     23  C   UNL     1      -3.362  -2.563  25.720  0.00  0.00    +0.020 A 
ATOM     24  C   UNL     1      -4.328  -2.619  23.506  0.00  0.00    +0.020 A 
ATOM     25  C   UNL     1      -3.949  -3.278  24.675  0.00  0.00    +0.041 A 
ENDBRANCH  14  19
BRANCH  16  20
ATOM     20  C   UNL     1       0.939   0.636  22.599  0.00  0.00    +0.324 C 
BRANCH  20   4
ATOM      4  O   UNL     1       2.147   0.430  21.908  0.00  0.00    -0.483 OA
BRANCH   4  26
ATOM     26  C   UNL     1       3.244   0.055  22.651  0.00  0.00    +0.121 A 
ATOM     27  C   UNL     1       3.261  -1.192  23.259  0.00  0.00    +0.045 A 
ATOM     28  C   UNL     1       4.312   0.931  22.779  0.00  0.00    +0.045 A 
ATOM     29  C   UNL     1       4.373  -1.571  24.012  0.00  0.00    +0.004 A 
ATOM     30  C   UNL     1       5.423   0.551  23.532  0.00  0.00    +0.004 A 
ATOM     31  C   UNL     1       5.453  -0.700  24.148  0.00  0.00    +0.000 A 
ENDBRANCH   4  26
ENDBRANCH  20   4
ENDBRANCH  16  20
TORSDOF 4
ENDMDL
MODEL 5
REMARK VINA RESULT:       8.2      1.895      3.003
REMARK  Name = 7144128
REMARK  4 active torsions:
REMARK  status: ('A' for Active; 'I' for Inactive)
REMARK    1  A    between atoms: O_4  and  C_20
REMARK    2  A    between atoms: O_4  and  C_26
REMARK    3  A    between atoms: C_14  and  C_19
REMARK    4  A    between atoms: C_16  and  C_20
REMARK                            x       y       z     vdW  Elec       q    Type
REMARK                         _______ _______ _______ _____ _____    ______ ____
ROOT
ATOM      2  O   UNL     1      -4.082   4.108  21.192  0.00  0.00    -0.268 OA
ATOM      3  O   UNL     1      -1.398   5.835  25.382  0.00  0.00    -0.272 OA
ATOM      5  N   UNL     1      -2.465   3.839  25.904  0.00  0.00    -0.298 N 
ATOM      6  N   UNL     1      -3.849   2.912  23.193  0.00  0.00    -0.311 N 
ATOM      7  C   UNL     1      -4.899   3.740  25.380  0.00  0.00    +0.027 C 
ATOM      8  C   UNL     1      -3.569   1.674  25.363  0.00  0.00    +0.054 C 
ATOM      9  C   UNL     1      -4.918   2.268  25.759  0.00  0.00    +0.018 C 
ATOM     10  C   UNL     1      -3.764   4.477  26.112  0.00  0.00    +0.113 C 
ATOM     11  C   UNL     1      -4.763   3.849  23.860  0.00  0.00    +0.130 C 
ATOM     12  C   UNL     1      -2.444   2.389  26.140  0.00  0.00    +0.117 C 
ATOM     13  C   UNL     1      -3.324   1.784  23.855  0.00  0.00    +0.034 A 
ATOM     14  C   UNL     1      -2.607   0.864  23.159  0.00  0.00    +0.002 A 
ATOM     15  C   UNL     1      -3.636   3.149  21.823  0.00  0.00    +0.252 A 
ATOM     16  C   UNL     1      -1.356   4.618  25.576  0.00  0.00    +0.253 C 
ATOM     17  C   UNL     1      -2.363   1.077  21.746  0.00  0.00    +0.015 A 
ATOM     18  C   UNL     1      -2.821   2.148  21.098  0.00  0.00    +0.071 A 
ENDROOT
BRANCH  14  19
ATOM      1 CL   UNL     1      -0.363  -4.021  25.788  0.00  0.00    -0.084 Cl
ATOM     19  C   UNL     1      -2.052  -0.344  23.808  0.00  0.00    -0.016 A 
ATOM     21  C   UNL     1      -2.857  -1.465  23.985  0.00  0.00    +0.010 A 
ATOM     22  C   UNL     1      -0.729  -0.351  24.238  0.00  0.00    +0.010 A 
ATOM     23  C   UNL     1      -2.334  -2.603  24.599  0.00  0.00    +0.020 A 
ATOM     24  C   UNL     1      -0.205  -1.490  24.851  0.00  0.00    +0.020 A 
ATOM     25  C   UNL     1      -1.008  -2.615  25.032  0.00  0.00    +0.041 A 
ENDBRANCH  14  19
BRANCH  16  20
ATOM     20  C   UNL     1      -0.037   3.897  25.450  0.00  0.00    +0.324 C 
BRANCH  20   4
ATOM      4  O   UNL     1      -0.118   2.762  26.277  0.00  0.00    -0.483 OA
BRANCH   4  26
ATOM     26  C   UNL     1       0.667   2.746  27.408  0.00  0.00    +0.121 A 
ATOM     27  C   UNL     1       2.002   3.112  27.316  0.00  0.00    +0.045 A 
ATOM     28  C   UNL     1       0.109   2.362  28.619  0.00  0.00    +0.045 A 
ATOM     29  C   UNL     1       2.797   3.094  28.463  0.00  0.00    +0.004 A 
ATOM     30  C   UNL     1       0.905   2.345  29.764  0.00  0.00    +0.004 A 
ATOM     31  C   UNL     1       2.249   2.711  29.686  0.00  0.00    +0.000 A 
ENDBRANCH   4  26
ENDBRANCH  20   4
ENDBRANCH  16  20
TORSDOF 4
ENDMDL
MODEL 6
REMARK VINA RESULT:       8.7      3.212      6.518
REMARK  Name = 7144128
REMARK  4 active torsions:
REMARK  status: ('A' for Active; 'I' for Inactive)
REMARK    1  A    between atoms: O_4  and  C_20
REMARK    2  A    between atoms: O_4  and  C_26
REMARK    3  A    between atoms: C_14  and  C_19
REMARK    4  A    between atoms: C_16  and  C_20
REMARK                            x       y       z     vdW  Elec       q    Type
REMARK                         _______ _______ _______ _____ _____    ______ ____
ROOT
ATOM      2  O   UNL     1       1.435  -1.405  22.451  0.00  0.00    -0.268 OA
ATOM      3  O   UNL     1      -3.537  -2.909  23.317  0.00  0.00    -0.272 OA
ATOM      5  N   UNL     1      -2.795  -1.602  25.087  0.00  0.00    -0.298 N 
ATOM      6  N   UNL     1       0.132  -0.673  24.254  0.00  0.00    -0.311 N 
ATOM      7  C   UNL     1      -0.624  -2.281  26.102  0.00  0.00    +0.027 C 
ATOM      8  C   UNL     1      -1.311   0.077  26.171  0.00  0.00    +0.054 C 
ATOM      9  C   UNL     1      -0.646  -1.037  26.976  0.00  0.00    +0.018 C 
ATOM     10  C   UNL     1      -2.052  -2.697  25.708  0.00  0.00    +0.113 C 
ATOM     11  C   UNL     1       0.247  -1.999  24.877  0.00  0.00    +0.130 C 
ATOM     12  C   UNL     1      -2.758  -0.333  25.825  0.00  0.00    +0.117 C 
ATOM     13  C   UNL     1      -0.530   0.395  24.893  0.00  0.00    +0.034 A 
ATOM     14  C   UNL     1      -0.481   1.641  24.353  0.00  0.00    +0.002 A 
ATOM     15  C   UNL     1       0.830  -0.512  23.043  0.00  0.00    +0.252 A 
ATOM     16  C   UNL     1      -3.521  -1.834  23.919  0.00  0.00    +0.253 C 
ATOM     17  C   UNL     1       0.225   1.844  23.103  0.00  0.00    +0.015 A 
ATOM     18  C   UNL     1       0.835   0.849  22.460  0.00  0.00    +0.071 A 
ENDROOT
BRANCH  14  19
ATOM      1 CL   UNL     1      -3.172   6.309  26.957  0.00  0.00    -0.084 Cl
ATOM     19  C   UNL     1      -1.145   2.795  24.997  0.00  0.00    -0.016 A 
ATOM     21  C   UNL     1      -1.934   2.596  26.126  0.00  0.00    +0.010 A 
ATOM     22  C   UNL     1      -0.979   4.071  24.469  0.00  0.00    +0.010 A 
ATOM     23  C   UNL     1      -2.562   3.684  26.733  0.00  0.00    +0.020 A 
ATOM     24  C   UNL     1      -1.607   5.160  25.076  0.00  0.00    +0.020 A 
ATOM     25  C   UNL     1      -2.398   4.966  26.207  0.00  0.00    +0.041 A 
ENDBRANCH  14  19
BRANCH  16  20
ATOM     20  C   UNL     1      -4.320  -0.675  23.379  0.00  0.00    +0.324 C 
BRANCH  20   4
ATOM      4  O   UNL     1      -5.043  -0.145  24.463  0.00  0.00    -0.483 OA
BRANCH   4  26
ATOM     26  C   UNL     1      -5.094   1.227  24.580  0.00  0.00    +0.121 A 
ATOM     27  C   UNL     1      -4.414   2.014  23.661  0.00  0.00    +0.045 A 
ATOM     28  C   UNL     1      -5.821   1.796  25.614  0.00  0.00    +0.045 A 
ATOM     29  C   UNL     1      -4.465   3.403  23.782  0.00  0.00    +0.004 A 
ATOM     30  C   UNL     1      -5.871   3.185  25.733  0.00  0.00    +0.004 A 
ATOM     31  C   UNL     1      -5.193   3.988  24.817  0.00  0.00    +0.000 A 
ENDBRANCH   4  26
ENDBRANCH  20   4
ENDBRANCH  16  20
TORSDOF 4
ENDMDL
MODEL 7
REMARK VINA RESULT:       8.8      2.872      5.375
REMARK  Name = 7144128
REMARK  4 active torsions:
REMARK  status: ('A' for Active; 'I' for Inactive)
REMARK    1  A    between atoms: O_4  and  C_20
REMARK    2  A    between atoms: O_4  and  C_26
REMARK    3  A    between atoms: C_14  and  C_19
REMARK    4  A    between atoms: C_16  and  C_20
REMARK                            x       y       z     vdW  Elec       q    Type
REMARK                         _______ _______ _______ _____ _____    ______ ____
ROOT
ATOM      2  O   UNL     1      -2.775   1.624  20.946  0.00  0.00    -0.268 OA
ATOM      3  O   UNL     1      -6.622   1.290  24.528  0.00  0.00    -0.272 OA
ATOM      5  N   UNL     1      -4.739   0.165  25.293  0.00  0.00    -0.298 N 
ATOM      6  N   UNL     1      -2.521   0.662  23.066  0.00  0.00    -0.311 N 
ATOM      7  C   UNL     1      -3.750  -1.492  23.717  0.00  0.00    +0.027 C 
ATOM      8  C   UNL     1      -2.306  -0.361  25.352  0.00  0.00    +0.054 C 
ATOM      9  C   UNL     1      -2.583  -1.698  24.670  0.00  0.00    +0.018 C 
ATOM     10  C   UNL     1      -5.001  -1.022  24.479  0.00  0.00    +0.113 C 
ATOM     11  C   UNL     1      -3.327  -0.491  22.640  0.00  0.00    +0.130 C 
ATOM     12  C   UNL     1      -3.552   0.075  26.153  0.00  0.00    +0.117 C 
ATOM     13  C   UNL     1      -1.922   0.722  24.340  0.00  0.00    +0.034 A 
ATOM     14  C   UNL     1      -1.062   1.732  24.636  0.00  0.00    +0.002 A 
ATOM     15  C   UNL     1      -2.290   1.635  22.076  0.00  0.00    +0.252 A 
ATOM     16  C   UNL     1      -5.630   1.237  25.259  0.00  0.00    +0.253 C 
ATOM     17  C   UNL     1      -0.803   2.755  23.643  0.00  0.00    +0.015 A 
ATOM     18  C   UNL     1      -1.377   2.742  22.440  0.00  0.00    +0.071 A 
ENDROOT
BRANCH  14  19
ATOM      1 CL   UNL     1       1.638   2.111  29.963  0.00  0.00    -0.084 Cl
ATOM     19  C   UNL     1      -0.395   1.826  25.953  0.00  0.00    -0.016 A 
ATOM     21  C   UNL     1       0.435   2.908  26.231  0.00  0.00    +0.010 A 
ATOM     22  C   UNL     1      -0.601   0.831  26.904  0.00  0.00    +0.010 A 
ATOM     23  C   UNL     1       1.065   2.995  27.473  0.00  0.00    +0.020 A 
ATOM     24  C   UNL     1       0.029   0.920  28.146  0.00  0.00    +0.020 A 
ATOM     25  C   UNL     1       0.861   2.001  28.430  0.00  0.00    +0.041 A 
ENDBRANCH  14  19
BRANCH  16  20
ATOM     20  C   UNL     1      -5.332   2.393  26.180  0.00  0.00    +0.324 C 
BRANCH  20   4
ATOM      4  O   UNL     1      -5.308   3.550  25.379  0.00  0.00    -0.483 OA
BRANCH   4  26
ATOM     26  C   UNL     1      -4.108   4.217  25.267  0.00  0.00    +0.121 A 
ATOM     27  C   UNL     1      -3.194   4.156  26.309  0.00  0.00    +0.045 A 
ATOM     28  C   UNL     1      -3.836   4.941  24.115  0.00  0.00    +0.045 A 
ATOM     29  C   UNL     1      -1.980   4.834  26.195  0.00  0.00    +0.004 A 
ATOM     30  C   UNL     1      -2.622   5.618  24.002  0.00  0.00    +0.004 A 
ATOM     31  C   UNL     1      -1.694   5.564  25.043  0.00  0.00    +0.000 A 
ENDBRANCH   4  26
ENDBRANCH  20   4
ENDBRANCH  16  20
TORSDOF 4
ENDMDL
