MODEL 1
REMARK VINA RESULT:       4.1      0.000      0.000
REMARK  Name = 45783319
REMARK  7 active torsions:
REMARK  status: ('A' for Active; 'I' for Inactive)
REMARK    1  A    between atoms: N_3  and  C_13
REMARK    2  A    between atoms: C_9  and  C_15
REMARK    3  A    between atoms: C_13  and  C_14
REMARK    4  A    between atoms: C_14  and  C_21
REMARK    5  A    between atoms: C_14  and  C_22
REMARK    6  A    between atoms: C_16  and  C_24
REMARK    7  A    between atoms: C_25  and  C_26
REMARK                            x       y       z     vdW  Elec       q    Type
REMARK                         _______ _______ _______ _____ _____    ______ ____
ROOT
ATOM      4  N   UNL     1       1.279  -0.232  23.244  0.00  0.00    -0.315 N 
ATOM      7  N   UNL     1       0.064  -2.202  23.742  0.00  0.00    -0.240 NA
ATOM     16  C   UNL     1       3.745   1.003  22.337  0.00  0.00    +0.078 C 
ATOM     17  C   UNL     1       2.985  -0.009  21.482  0.00  0.00    +0.031 C 
ATOM     18  C   UNL     1       2.820   1.690  23.339  0.00  0.00    +0.031 C 
ATOM     19  C   UNL     1       2.141  -0.973  22.315  0.00  0.00    +0.107 C 
ATOM     20  C   UNL     1       1.954   0.713  24.138  0.00  0.00    +0.107 C 
ATOM     23  C   UNL     1       0.097  -0.853  23.663  0.00  0.00    +0.122 A 
ATOM     26  C   UNL     1      -2.158  -0.635  24.388  0.00  0.00    +0.027 A 
ATOM     27  C   UNL     1      -0.976  -0.032  23.971  0.00  0.00    +0.055 A 
ATOM     28  C   UNL     1      -2.230  -2.020  24.481  0.00  0.00    +0.031 A 
ATOM     29  C   UNL     1      -1.101  -2.752  24.151  0.00  0.00    +0.113 A 
ENDROOT
BRANCH  26  25
ATOM      1  O   UNL     1      -5.309   0.863  24.934  0.00  0.00    -0.336 OA
ATOM      5  N   UNL     1      -3.168   1.376  25.346  0.00  0.00    -0.190 NA
ATOM      6  N   UNL     1      -4.551  -0.207  24.441  0.00  0.00    -0.056 NA
ATOM     15  C   UNL     1      -4.419   1.750  25.450  0.00  0.00    +0.245 A 
ATOM     25  C   UNL     1      -3.299   0.170  24.720  0.00  0.00    +0.202 A 
BRANCH  15   9
ATOM      3  N   UNL     1      -4.408   4.238  25.482  0.00  0.00    -0.291 NA
ATOM      9  C   UNL     1      -4.996   3.012  26.056  0.00  0.00    +0.146 C 
ATOM     10  C   UNL     1      -6.510   3.151  25.809  0.00  0.00    +0.030 C 
ATOM     11  C   UNL     1      -5.440   5.271  25.569  0.00  0.00    +0.085 C 
ATOM     12  C   UNL     1      -6.682   4.511  25.148  0.00  0.00    +0.017 C 
BRANCH   3  13
ATOM     13  C   UNL     1      -3.170   4.642  26.137  0.00  0.00    +0.088 C 
BRANCH  13  14
ATOM     14  C   UNL     1      -1.929   4.360  25.274  0.00  0.00    -0.003 C 
ATOM     21  C   UNL     1      -1.213   5.675  24.954  0.00  0.00    +0.008 C 
ATOM     22  C   UNL     1      -0.952   3.393  25.949  0.00  0.00    +0.008 C 
ENDBRANCH  13  14
ENDBRANCH   3  13
ENDBRANCH  15   9
ENDBRANCH  26  25
BRANCH  16  24
ATOM      2  O   UNL     1       5.715  -0.352  22.415  0.00  0.00    -0.276 OA
ATOM      8  N   UNL     1       4.959   0.583  24.377  0.00  0.00    -0.329 N 
ATOM     24  C   UNL     1       4.907   0.345  23.024  0.00  0.00    +0.214 C 
ATOM     30  H   UNL     1       5.703   0.190  24.943  0.00  0.00    +0.145 HD
ATOM     31  H   UNL     1       4.247   1.110  24.872  0.00  0.00    +0.145 HD
ENDBRANCH  16  24
TORSDOF 5
ENDMDL
MODEL 2
REMARK VINA RESULT:       7.5      1.711      2.597
REMARK  Name = 45783319
REMARK  7 active torsions:
REMARK  status: ('A' for Active; 'I' for Inactive)
REMARK    1  A    between atoms: N_3  and  C_13
REMARK    2  A    between atoms: C_9  and  C_15
REMARK    3  A    between atoms: C_13  and  C_14
REMARK    4  A    between atoms: C_14  and  C_21
REMARK    5  A    between atoms: C_14  and  C_22
REMARK    6  A    between atoms: C_16  and  C_24
REMARK    7  A    between atoms: C_25  and  C_26
REMARK                            x       y       z     vdW  Elec       q    Type
REMARK                         _______ _______ _______ _____ _____    ______ ____
ROOT
ATOM      4  N   UNL     1       3.483  -0.065  23.036  0.00  0.00    -0.315 N 
ATOM      7  N   UNL     1       1.930  -0.346  21.272  0.00  0.00    -0.240 NA
ATOM     16  C   UNL     1       6.244   0.187  23.897  0.00  0.00    +0.078 C 
ATOM     17  C   UNL     1       5.624   1.143  22.880  0.00  0.00    +0.031 C 
ATOM     18  C   UNL     1       5.177  -0.447  24.786  0.00  0.00    +0.031 C 
ATOM     19  C   UNL     1       4.463   0.515  22.109  0.00  0.00    +0.107 C 
ATOM     20  C   UNL     1       4.003  -1.037  24.001  0.00  0.00    +0.107 C 
ATOM     23  C   UNL     1       2.160  -0.173  22.592  0.00  0.00    +0.122 A 
ATOM     26  C   UNL     1      -0.158  -0.197  23.124  0.00  0.00    +0.027 A 
ATOM     27  C   UNL     1       1.161  -0.092  23.549  0.00  0.00    +0.055 A 
ATOM     28  C   UNL     1      -0.434  -0.375  21.773  0.00  0.00    +0.031 A 
ATOM     29  C   UNL     1       0.635  -0.443  20.895  0.00  0.00    +0.113 A 
ENDROOT
BRANCH  26  25
ATOM      1  O   UNL     1      -2.610  -0.613  25.631  0.00  0.00    -0.336 OA
ATOM      5  N   UNL     1      -2.021   0.986  24.178  0.00  0.00    -0.190 NA
ATOM      6  N   UNL     1      -1.521  -1.123  24.912  0.00  0.00    -0.056 NA
ATOM     15  C   UNL     1      -2.839   0.632  25.137  0.00  0.00    +0.245 A 
ATOM     25  C   UNL     1      -1.230  -0.122  24.075  0.00  0.00    +0.202 A 
BRANCH  15   9
ATOM      3  N   UNL     1      -4.066   2.793  25.262  0.00  0.00    -0.291 NA
ATOM      9  C   UNL     1      -3.983   1.405  25.758  0.00  0.00    +0.146 C 
ATOM     10  C   UNL     1      -5.359   0.792  25.438  0.00  0.00    +0.030 C 
ATOM     11  C   UNL     1      -5.477   3.173  25.333  0.00  0.00    +0.085 C 
ATOM     12  C   UNL     1      -6.165   1.924  24.820  0.00  0.00    +0.017 C 
BRANCH   3  13
ATOM     13  C   UNL     1      -3.210   3.717  25.994  0.00  0.00    +0.088 C 
BRANCH  13  14
ATOM     14  C   UNL     1      -1.866   3.959  25.288  0.00  0.00    -0.003 C 
ATOM     21  C   UNL     1      -1.615   5.464  25.157  0.00  0.00    +0.008 C 
ATOM     22  C   UNL     1      -0.691   3.304  26.019  0.00  0.00    +0.008 C 
ENDBRANCH  13  14
ENDBRANCH   3  13
ENDBRANCH  15   9
ENDBRANCH  26  25
BRANCH  16  24
ATOM      2  O   UNL     1       6.639  -1.979  22.962  0.00  0.00    -0.276 OA
ATOM      8  N   UNL     1       8.346  -0.437  22.898  0.00  0.00    -0.329 N 
ATOM     24  C   UNL     1       7.073  -0.855  23.205  0.00  0.00    +0.214 C 
ATOM     30  H   UNL     1       8.995  -1.058  22.426  0.00  0.00    +0.145 HD
ATOM     31  H   UNL     1       8.707   0.473  23.162  0.00  0.00    +0.145 HD
ENDBRANCH  16  24
TORSDOF 5
ENDMDL
