MODEL 1
REMARK VINA RESULT:      18.0      0.000      0.000
REMARK  Name = 45361701
REMARK  9 active torsions:
REMARK  status: ('A' for Active; 'I' for Inactive)
REMARK    1  A    between atoms: N_7  and  C_19
REMARK    2  A    between atoms: N_11  and  C_37
REMARK    3  A    between atoms: N_11  and  C_38
REMARK    4  A    between atoms: N_11  and  C_39
REMARK    5  A    between atoms: C_12  and  C_15
REMARK    6  A    between atoms: C_15  and  C_19
REMARK    7  A    between atoms: C_19  and  C_25
REMARK    8  A    between atoms: C_20  and  C_23
REMARK    9  A    between atoms: C_27  and  C_32
REMARK                            x       y       z     vdW  Elec       q    Type
REMARK                         _______ _______ _______ _____ _____    ______ ____
ROOT
ATOM      3  O   UNL     1      -2.918   4.908  27.460  0.00  0.00    -0.377 OA
ATOM      4  O   UNL     1      -2.734   3.293  23.213  0.00  0.00    -0.252 OA
ATOM      5  O   UNL     1       1.611  -1.591  21.596  0.00  0.00    -0.270 OA
ATOM      6  N   UNL     1      -0.911   2.003  23.793  0.00  0.00    -0.271 N 
ATOM      8  N   UNL     1       1.098   0.535  22.418  0.00  0.00    -0.294 N 
ATOM      9  N   UNL     1      -1.674   3.793  25.191  0.00  0.00    -0.281 N 
ATOM     20  C   UNL     1      -1.297   0.884  22.920  0.00  0.00    +0.181 C 
ATOM     21  C   UNL     1      -0.251   0.556  21.856  0.00  0.00    +0.140 C 
ATOM     22  C   UNL     1       0.483   2.006  24.278  0.00  0.00    +0.129 C 
ATOM     24  C   UNL     1       1.464   1.756  23.138  0.00  0.00    +0.127 C 
ATOM     26  C   UNL     1      -1.830   3.042  24.020  0.00  0.00    +0.306 C 
ATOM     27  C   UNL     1       1.926  -0.569  22.203  0.00  0.00    +0.247 C 
ATOM     28  C   UNL     1      -2.072   5.200  25.217  0.00  0.00    +0.137 C 
ATOM     29  C   UNL     1      -1.434   3.222  26.523  0.00  0.00    +0.137 C 
ATOM     30  C   UNL     1      -3.253   5.393  26.156  0.00  0.00    +0.179 C 
ATOM     31  C   UNL     1      -2.628   3.508  27.430  0.00  0.00    +0.179 C 
ENDROOT
BRANCH  27  32
ATOM     32  C   UNL     1       3.285  -0.532  22.756  0.00  0.00    +0.037 A 
ATOM     33  C   UNL     1       4.106   0.571  22.514  0.00  0.00    +0.015 A 
ATOM     34  C   UNL     1       3.757  -1.597  23.522  0.00  0.00    +0.015 A 
ATOM     35  C   UNL     1       5.398   0.606  23.037  0.00  0.00    +0.024 A 
ATOM     36  C   UNL     1       5.049  -1.562  24.046  0.00  0.00    +0.024 A 
ATOM     37  C   UNL     1       5.870  -0.461  23.803  0.00  0.00    +0.029 A 
BRANCH  37  11
ATOM     11  N   UNL     1       7.176  -0.425  24.333  0.00  0.00    -0.336 N 
ATOM     38  C   UNL     1       8.252   0.205  23.595  0.00  0.00    +0.129 C 
ATOM     39  C   UNL     1       7.461  -1.025  25.622  0.00  0.00    +0.129 C 
ENDBRANCH  37  11
ENDBRANCH  27  32
BRANCH  20  23
ATOM      1  O   UNL     1      -0.720  -1.168  24.000  0.00  0.00    -0.274 OA
ATOM      7  N   UNL     1      -2.805  -0.221  24.419  0.00  0.00    -0.302 N 
ATOM     23  C   UNL     1      -1.552  -0.280  23.834  0.00  0.00    +0.236 C 
ATOM     40  H   UNL     1      -3.415   0.562  24.208  0.00  0.00    +0.150 HD
BRANCH   7  19
ATOM     19  C   UNL     1      -3.303  -1.234  25.322  0.00  0.00    +0.159 C 
BRANCH  19  25
ATOM      2  O   UNL     1      -3.515  -3.585  24.746  0.00  0.00    -0.274 OA
ATOM     10  N   UNL     1      -4.585  -2.035  23.432  0.00  0.00    -0.328 N 
ATOM     25  C   UNL     1      -3.803  -2.416  24.502  0.00  0.00    +0.231 C 
ATOM     41  H   UNL     1      -4.797  -1.063  23.229  0.00  0.00    +0.145 HD
ATOM     42  H   UNL     1      -4.974  -2.726  22.800  0.00  0.00    +0.145 HD
ENDBRANCH  19  25
BRANCH  19  15
ATOM     15  C   UNL     1      -4.366  -0.683  26.278  0.00  0.00    +0.035 C 
BRANCH  15  12
ATOM     12  C   UNL     1      -5.198   0.460  25.700  0.00  0.00    -0.009 C 
ATOM     13  C   UNL     1      -5.981   1.175  26.809  0.00  0.00    +0.003 C 
ATOM     14  C   UNL     1      -4.306   1.447  24.937  0.00  0.00    +0.003 C 
ATOM     16  C   UNL     1      -6.780   2.356  26.263  0.00  0.00    +0.000 C 
ATOM     17  C   UNL     1      -5.107   2.627  24.393  0.00  0.00    +0.000 C 
ATOM     18  C   UNL     1      -5.891   3.331  25.497  0.00  0.00    +0.000 C 
ENDBRANCH  15  12
ENDBRANCH  19  15
ENDBRANCH   7  19
ENDBRANCH  20  23
TORSDOF 7
ENDMDL
MODEL 2
REMARK VINA RESULT:      20.6      3.092      5.792
REMARK  Name = 45361701
REMARK  9 active torsions:
REMARK  status: ('A' for Active; 'I' for Inactive)
REMARK    1  A    between atoms: N_7  and  C_19
REMARK    2  A    between atoms: N_11  and  C_37
REMARK    3  A    between atoms: N_11  and  C_38
REMARK    4  A    between atoms: N_11  and  C_39
REMARK    5  A    between atoms: C_12  and  C_15
REMARK    6  A    between atoms: C_15  and  C_19
REMARK    7  A    between atoms: C_19  and  C_25
REMARK    8  A    between atoms: C_20  and  C_23
REMARK    9  A    between atoms: C_27  and  C_32
REMARK                            x       y       z     vdW  Elec       q    Type
REMARK                         _______ _______ _______ _____ _____    ______ ____
ROOT
ATOM      3  O   UNL     1      -7.662   0.972  24.395  0.00  0.00    -0.377 OA
ATOM      4  O   UNL     1      -4.384   3.797  22.996  0.00  0.00    -0.252 OA
ATOM      5  O   UNL     1       1.916   3.124  25.278  0.00  0.00    -0.270 OA
ATOM      6  N   UNL     1      -2.921   2.826  24.494  0.00  0.00    -0.271 N 
ATOM      8  N   UNL     1      -0.376   3.454  25.592  0.00  0.00    -0.294 N 
ATOM      9  N   UNL     1      -5.286   2.467  24.640  0.00  0.00    -0.281 N 
ATOM     20  C   UNL     1      -1.759   2.963  23.603  0.00  0.00    +0.181 C 
ATOM     21  C   UNL     1      -0.636   3.811  24.198  0.00  0.00    +0.140 C 
ATOM     22  C   UNL     1      -2.631   2.552  25.914  0.00  0.00    +0.129 C 
ATOM     24  C   UNL     1      -1.562   3.497  26.451  0.00  0.00    +0.127 C 
ATOM     26  C   UNL     1      -4.208   3.069  23.982  0.00  0.00    +0.306 C 
ATOM     27  C   UNL     1       0.924   3.157  26.005  0.00  0.00    +0.247 C 
ATOM     28  C   UNL     1      -6.594   3.123  24.655  0.00  0.00    +0.137 C 
ATOM     29  C   UNL     1      -5.324   1.062  25.067  0.00  0.00    +0.137 C 
ATOM     30  C   UNL     1      -7.600   2.300  23.866  0.00  0.00    +0.179 C 
ATOM     31  C   UNL     1      -6.398   0.313  24.281  0.00  0.00    +0.179 C 
ENDROOT
BRANCH  27  32
ATOM     32  C   UNL     1       1.144   2.840  27.421  0.00  0.00    +0.037 A 
ATOM     33  C   UNL     1       2.389   3.080  28.004  0.00  0.00    +0.015 A 
ATOM     34  C   UNL     1       0.110   2.299  28.185  0.00  0.00    +0.015 A 
ATOM     35  C   UNL     1       2.600   2.777  29.349  0.00  0.00    +0.024 A 
ATOM     36  C   UNL     1       0.320   1.997  29.530  0.00  0.00    +0.024 A 
ATOM     37  C   UNL     1       1.566   2.235  30.112  0.00  0.00    +0.029 A 
BRANCH  37  11
ATOM     11  N   UNL     1       1.777   1.930  31.472  0.00  0.00    -0.336 N 
ATOM     38  C   UNL     1       3.034   1.357  31.910  0.00  0.00    +0.129 C 
ATOM     39  C   UNL     1       0.737   2.180  32.451  0.00  0.00    +0.129 C 
ENDBRANCH  37  11
ENDBRANCH  27  32
BRANCH  20  23
ATOM      1  O   UNL     1      -2.007   0.780  22.663  0.00  0.00    -0.274 OA
ATOM      7  N   UNL     1      -0.061   1.289  23.835  0.00  0.00    -0.302 N 
ATOM     23  C   UNL     1      -1.308   1.564  23.301  0.00  0.00    +0.236 C 
ATOM     40  H   UNL     1       0.430   2.014  24.349  0.00  0.00    +0.150 HD
BRANCH   7  19
ATOM     19  C   UNL     1       0.589   0.004  23.705  0.00  0.00    +0.159 C 
BRANCH  19  25
ATOM      2  O   UNL     1       1.717  -0.385  21.588  0.00  0.00    -0.274 OA
ATOM     10  N   UNL     1       2.791   0.864  23.189  0.00  0.00    -0.328 N 
ATOM     25  C   UNL     1       1.728   0.133  22.702  0.00  0.00    +0.231 C 
ATOM     41  H   UNL     1       2.796   1.268  24.120  0.00  0.00    +0.145 HD
ATOM     42  H   UNL     1       3.619   1.017  22.623  0.00  0.00    +0.145 HD
ENDBRANCH  19  25
BRANCH  19  15
ATOM     15  C   UNL     1      -0.399  -1.109  23.342  0.00  0.00    +0.035 C 
BRANCH  15  12
ATOM     12  C   UNL     1      -1.179  -1.668  24.531  0.00  0.00    -0.009 C 
ATOM     13  C   UNL     1      -1.218  -0.651  25.679  0.00  0.00    +0.003 C 
ATOM     14  C   UNL     1      -2.598  -2.069  24.107  0.00  0.00    +0.003 C 
ATOM     16  C   UNL     1      -2.038  -1.167  26.860  0.00  0.00    +0.000 C 
ATOM     17  C   UNL     1      -3.415  -2.583  25.290  0.00  0.00    +0.000 C 
ATOM     18  C   UNL     1      -3.445  -1.573  26.434  0.00  0.00    +0.000 C 
ENDBRANCH  15  12
ENDBRANCH  19  15
ENDBRANCH   7  19
ENDBRANCH  20  23
TORSDOF 7
ENDMDL
