MODEL 1
REMARK VINA RESULT:      -3.3      0.000      0.000
REMARK  Name = 11886046
REMARK  6 active torsions:
REMARK  status: ('A' for Active; 'I' for Inactive)
REMARK    1  A    between atoms: O_6  and  C_16
REMARK    2  A    between atoms: O_6  and  C_20
REMARK    3  A    between atoms: N_8  and  C_15
REMARK    4  A    between atoms: N_12  and  C_24
REMARK    5  A    between atoms: C_19  and  C_21
REMARK    6  A    between atoms: C_30  and  C_33
REMARK                            x       y       z     vdW  Elec       q    Type
REMARK                         _______ _______ _______ _____ _____    ______ ____
ROOT
ATOM      4  O   UNL     1      -2.159   0.242  24.368  0.00  0.00    -0.368 OA
ATOM      5  O   UNL     1      -4.802  -1.309  23.954  0.00  0.00    -0.368 OA
ATOM     13  C   UNL     1      -4.431  -0.251  24.866  0.00  0.00    +0.177 C 
ATOM     14  C   UNL     1      -2.992  -0.506  25.269  0.00  0.00    +0.192 C 
ATOM     15  C   UNL     1      -4.388   1.069  24.121  0.00  0.00    +0.168 C 
ATOM     16  C   UNL     1      -2.847  -1.994  25.058  0.00  0.00    +0.235 C 
ATOM     17  C   UNL     1      -2.977   1.083  23.542  0.00  0.00    +0.190 C 
ATOM     18  C   UNL     1      -3.707  -2.228  23.838  0.00  0.00    +0.207 C 
ENDROOT
BRANCH  15   8
ATOM      8  N   UNL     1      -4.727   2.208  24.977  0.00  0.00    -0.217 N 
ATOM      9  N   UNL     1      -5.996   2.434  25.334  0.00  0.00    -0.043 NA
ATOM     10  N   UNL     1      -4.651   3.980  26.215  0.00  0.00    -0.108 NA
ATOM     11  N   UNL     1      -5.944   3.522  26.093  0.00  0.00    -0.023 NA
ATOM     19  C   UNL     1      -3.914   3.148  25.515  0.00  0.00    +0.182 A 
BRANCH  19  21
ATOM     21  C   UNL     1      -2.487   3.201  25.329  0.00  0.00    +0.021 A 
ATOM     22  C   UNL     1      -1.638   2.602  26.263  0.00  0.00    +0.011 A 
ATOM     23  C   UNL     1      -1.948   3.852  24.218  0.00  0.00    +0.011 A 
ATOM     25  C   UNL     1      -0.255   2.654  26.084  0.00  0.00    +0.001 A 
ATOM     26  C   UNL     1      -0.565   3.904  24.040  0.00  0.00    +0.001 A 
ATOM     27  C   UNL     1       0.281   3.305  24.973  0.00  0.00    +0.000 A 
ENDBRANCH  19  21
ENDBRANCH  15   8
BRANCH  16   6
ATOM      6  O   UNL     1      -1.514  -2.407  24.855  0.00  0.00    -0.442 OA
BRANCH   6  20
ATOM      7  O   UNL     1      -0.404  -0.777  26.014  0.00  0.00    -0.226 OA
ATOM     12  N   UNL     1       0.223  -1.386  23.842  0.00  0.00    -0.251 N 
ATOM     20  C   UNL     1      -0.534  -1.446  24.996  0.00  0.00    +0.405 C 
ATOM     34  H   UNL     1      -0.041  -2.027  23.098  0.00  0.00    +0.158 HD
BRANCH  12  24
ATOM     24  C   UNL     1       1.323  -0.541  23.566  0.00  0.00    +0.037 A 
ATOM     28  C   UNL     1       2.611  -1.014  23.768  0.00  0.00    +0.035 A 
ATOM     29  C   UNL     1       1.092   0.742  23.098  0.00  0.00    +0.023 A 
ATOM     30  C   UNL     1       3.695  -0.181  23.494  0.00  0.00    +0.057 A 
ATOM     31  C   UNL     1       2.177   1.576  22.825  0.00  0.00    +0.002 A 
ATOM     32  C   UNL     1       3.478   1.115  23.023  0.00  0.00    +0.012 A 
BRANCH  30  33
ATOM      1  F   UNL     1       5.641  -0.258  24.883  0.00  0.00    -0.166 F 
ATOM      2  F   UNL     1       5.963  -0.273  22.738  0.00  0.00    -0.166 F 
ATOM      3  F   UNL     1       5.163  -2.036  23.728  0.00  0.00    -0.166 F 
ATOM     33  C   UNL     1       5.087  -0.674  23.706  0.00  0.00    +0.417 C 
ENDBRANCH  30  33
ENDBRANCH  12  24
ENDBRANCH   6  20
ENDBRANCH  16   6
TORSDOF 6
ENDMDL
MODEL 2
REMARK VINA RESULT:       0.5      3.727      5.358
REMARK  Name = 11886046
REMARK  6 active torsions:
REMARK  status: ('A' for Active; 'I' for Inactive)
REMARK    1  A    between atoms: O_6  and  C_16
REMARK    2  A    between atoms: O_6  and  C_20
REMARK    3  A    between atoms: N_8  and  C_15
REMARK    4  A    between atoms: N_12  and  C_24
REMARK    5  A    between atoms: C_19  and  C_21
REMARK    6  A    between atoms: C_30  and  C_33
REMARK                            x       y       z     vdW  Elec       q    Type
REMARK                         _______ _______ _______ _____ _____    ______ ____
ROOT
ATOM      4  O   UNL     1      -1.353   2.566  26.049  0.00  0.00    -0.368 OA
ATOM      5  O   UNL     1      -1.616   5.434  24.923  0.00  0.00    -0.368 OA
ATOM     13  C   UNL     1      -2.452   4.262  24.797  0.00  0.00    +0.177 C 
ATOM     14  C   UNL     1      -1.522   3.068  24.713  0.00  0.00    +0.192 C 
ATOM     15  C   UNL     1      -3.225   4.051  26.084  0.00  0.00    +0.168 C 
ATOM     16  C   UNL     1      -0.247   3.677  24.179  0.00  0.00    +0.235 C 
ATOM     17  C   UNL     1      -2.246   3.251  26.937  0.00  0.00    +0.190 C 
ATOM     18  C   UNL     1      -0.241   5.033  24.844  0.00  0.00    +0.207 C 
ENDROOT
BRANCH  15   8
ATOM      8  N   UNL     1      -4.526   3.416  25.859  0.00  0.00    -0.217 N 
ATOM      9  N   UNL     1      -5.483   3.480  26.792  0.00  0.00    -0.043 NA
ATOM     10  N   UNL     1      -6.199   2.332  25.019  0.00  0.00    -0.108 NA
ATOM     11  N   UNL     1      -6.506   2.814  26.272  0.00  0.00    -0.023 NA
ATOM     19  C   UNL     1      -4.966   2.719  24.785  0.00  0.00    +0.182 A 
BRANCH  19  21
ATOM     21  C   UNL     1      -4.187   2.461  23.601  0.00  0.00    +0.021 A 
ATOM     22  C   UNL     1      -3.502   1.252  23.464  0.00  0.00    +0.011 A 
ATOM     23  C   UNL     1      -4.113   3.420  22.588  0.00  0.00    +0.011 A 
ATOM     25  C   UNL     1      -2.746   1.003  22.318  0.00  0.00    +0.001 A 
ATOM     26  C   UNL     1      -3.357   3.170  21.442  0.00  0.00    +0.001 A 
ATOM     27  C   UNL     1      -2.674   1.962  21.308  0.00  0.00    +0.000 A 
ENDBRANCH  19  21
ENDBRANCH  15   8
BRANCH  16   6
ATOM      6  O   UNL     1       0.907   2.928  24.488  0.00  0.00    -0.442 OA
BRANCH   6  20
ATOM      7  O   UNL     1       1.664   1.051  23.423  0.00  0.00    -0.226 OA
ATOM     12  N   UNL     1      -0.155   0.980  24.894  0.00  0.00    -0.251 N 
ATOM     20  C   UNL     1       0.874   1.581  24.195  0.00  0.00    +0.405 C 
ATOM     34  H   UNL     1      -0.707   1.591  25.491  0.00  0.00    +0.158 HD
BRANCH  12  24
ATOM     24  C   UNL     1      -0.537  -0.381  24.883  0.00  0.00    +0.037 A 
ATOM     28  C   UNL     1      -1.872  -0.711  24.707  0.00  0.00    +0.035 A 
ATOM     29  C   UNL     1       0.431  -1.358  25.049  0.00  0.00    +0.023 A 
ATOM     30  C   UNL     1      -2.247  -2.054  24.695  0.00  0.00    +0.057 A 
ATOM     31  C   UNL     1       0.055  -2.702  25.038  0.00  0.00    +0.002 A 
ATOM     32  C   UNL     1      -1.283  -3.050  24.861  0.00  0.00    +0.012 A 
BRANCH  30  33
ATOM      1  F   UNL     1      -4.062  -2.476  23.195  0.00  0.00    -0.166 F 
ATOM      2  F   UNL     1      -4.553  -1.561  25.100  0.00  0.00    -0.166 F 
ATOM      3  F   UNL     1      -3.974  -3.655  25.020  0.00  0.00    -0.166 F 
ATOM     33  C   UNL     1      -3.679  -2.426  24.506  0.00  0.00    +0.417 C 
ENDBRANCH  30  33
ENDBRANCH  12  24
ENDBRANCH   6  20
ENDBRANCH  16   6
TORSDOF 6
ENDMDL
