MODEL 1
REMARK VINA RESULT:      -3.4      0.000      0.000
REMARK  Name = 45783350
REMARK  9 active torsions:
REMARK  status: ('A' for Active; 'I' for Inactive)
REMARK    1  A    between atoms: O_2  and  C_27
REMARK    2  A    between atoms: O_2  and  C_29
REMARK    3  A    between atoms: O_3  and  C_30
REMARK    4  A    between atoms: O_3  and  C_31
REMARK    5  A    between atoms: N_4  and  C_13
REMARK    6  A    between atoms: C_9  and  C_14
REMARK    7  A    between atoms: C_13  and  C_15
REMARK    8  A    between atoms: C_19  and  C_23
REMARK    9  A    between atoms: C_29  and  C_30
REMARK                            x       y       z     vdW  Elec       q    Type
REMARK                         _______ _______ _______ _____ _____    ______ ____
ROOT
ATOM      4  N   UNL     1      -9.235  -9.298  10.705  0.00  0.00    -0.287 NA
ATOM      9  C   UNL     1      -8.526  -9.736   9.486  0.00  0.00    +0.146 C 
ATOM     10  C   UNL     1      -9.010  -8.775   8.385  0.00  0.00    +0.030 C 
ATOM     11  C   UNL     1     -10.487  -8.689  10.257  0.00  0.00    +0.085 C 
ATOM     12  C   UNL     1     -10.032  -7.874   9.064  0.00  0.00    +0.017 C 
ENDROOT
BRANCH   9  14
ATOM      1  O   UNL     1      -6.292  -9.418   8.547  0.00  0.00    -0.336 OA
ATOM      5  N   UNL     1      -6.301  -9.968  10.718  0.00  0.00    -0.190 NA
ATOM      7  N   UNL     1      -4.949  -9.471   8.942  0.00  0.00    -0.056 NA
ATOM     14  C   UNL     1      -7.021  -9.724   9.653  0.00  0.00    +0.245 A 
ATOM     19  C   UNL     1      -5.037  -9.801  10.234  0.00  0.00    +0.202 A 
BRANCH  19  23
ATOM      8  N   UNL     1      -1.630 -10.295  12.691  0.00  0.00    -0.221 NA
ATOM     23  C   UNL     1      -3.881  -9.969  11.067  0.00  0.00    +0.029 A 
ATOM     25  C   UNL     1      -2.651  -9.465  10.663  0.00  0.00    +0.079 A 
ATOM     26  C   UNL     1      -3.988 -10.635  12.283  0.00  0.00    +0.031 A 
ATOM     27  C   UNL     1      -1.565  -9.652  11.503  0.00  0.00    +0.215 A 
ATOM     28  C   UNL     1      -2.844 -10.771  13.051  0.00  0.00    +0.115 A 
BRANCH  27   2
ATOM      2  O   UNL     1      -0.340  -9.165  11.127  0.00  0.00    -0.474 OA
BRANCH   2  29
ATOM     29  C   UNL     1       0.317  -8.305  12.050  0.00  0.00    +0.258 C 
BRANCH  29  30
ATOM     30  C   UNL     1       1.360  -7.490  11.310  0.00  0.00    +0.200 C 
BRANCH  30   3
ATOM      3  O   UNL     1       2.082  -6.699  12.246  0.00  0.00    -0.380 OA
ATOM     31  C   UNL     1       3.482  -6.908  12.132  0.00  0.00    +0.194 C 
ENDBRANCH  30   3
ENDBRANCH  29  30
ENDBRANCH   2  29
ENDBRANCH  27   2
ENDBRANCH  19  23
ENDBRANCH   9  14
BRANCH   4  13
ATOM     13  C   UNL     1      -9.459 -10.377  11.658  0.00  0.00    +0.122 C 
BRANCH  13  15
ATOM      6  N   UNL     1     -10.412  -8.960  14.917  0.00  0.00    -0.360 N 
ATOM     15  C   UNL     1      -9.581  -9.863  13.068  0.00  0.00    -0.008 A 
ATOM     16  C   UNL     1      -8.565  -9.875  14.064  0.00  0.00    +0.004 A 
ATOM     17  C   UNL     1     -10.705  -9.295  13.622  0.00  0.00    +0.088 A 
ATOM     18  C   UNL     1      -9.113  -9.303  15.214  0.00  0.00    +0.047 A 
ATOM     20  C   UNL     1      -7.228 -10.319  14.098  0.00  0.00    +0.010 A 
ATOM     21  C   UNL     1      -8.387  -9.151  16.401  0.00  0.00    +0.026 A 
ATOM     22  C   UNL     1      -6.491 -10.174  15.278  0.00  0.00    +0.001 A 
ATOM     24  C   UNL     1      -7.063  -9.599  16.411  0.00  0.00    +0.002 A 
ATOM     32  H   UNL     1     -11.057  -8.525  15.563  0.00  0.00    +0.165 HD
ENDBRANCH  13  15
ENDBRANCH   4  13
TORSDOF 8
ENDMDL
MODEL 2
REMARK VINA RESULT:      -2.9      2.042      2.864
REMARK  Name = 45783350
REMARK  9 active torsions:
REMARK  status: ('A' for Active; 'I' for Inactive)
REMARK    1  A    between atoms: O_2  and  C_27
REMARK    2  A    between atoms: O_2  and  C_29
REMARK    3  A    between atoms: O_3  and  C_30
REMARK    4  A    between atoms: O_3  and  C_31
REMARK    5  A    between atoms: N_4  and  C_13
REMARK    6  A    between atoms: C_9  and  C_14
REMARK    7  A    between atoms: C_13  and  C_15
REMARK    8  A    between atoms: C_19  and  C_23
REMARK    9  A    between atoms: C_29  and  C_30
REMARK                            x       y       z     vdW  Elec       q    Type
REMARK                         _______ _______ _______ _____ _____    ______ ____
ROOT
ATOM      4  N   UNL     1      -9.623  -9.165  11.410  0.00  0.00    -0.287 NA
ATOM      9  C   UNL     1      -8.760  -9.988  10.540  0.00  0.00    +0.146 C 
ATOM     10  C   UNL     1      -8.831  -9.305   9.161  0.00  0.00    +0.030 C 
ATOM     11  C   UNL     1     -10.631  -8.560  10.540  0.00  0.00    +0.085 C 
ATOM     12  C   UNL     1      -9.803  -8.148   9.340  0.00  0.00    +0.017 C 
ENDROOT
BRANCH   9  14
ATOM      1  O   UNL     1      -7.189 -10.727  12.261  0.00  0.00    -0.336 OA
ATOM      5  N   UNL     1      -6.225  -9.679  10.531  0.00  0.00    -0.190 NA
ATOM      7  N   UNL     1      -5.816 -10.708  12.533  0.00  0.00    -0.056 NA
ATOM     14  C   UNL     1      -7.344 -10.101  11.064  0.00  0.00    +0.245 A 
ATOM     19  C   UNL     1      -5.315 -10.074  11.468  0.00  0.00    +0.202 A 
BRANCH  19  23
ATOM      8  N   UNL     1      -1.178  -9.333  11.001  0.00  0.00    -0.221 NA
ATOM     23  C   UNL     1      -3.912  -9.822  11.310  0.00  0.00    +0.029 A 
ATOM     25  C   UNL     1      -3.012 -10.254  12.277  0.00  0.00    +0.079 A 
ATOM     26  C   UNL     1      -3.446  -9.147  10.187  0.00  0.00    +0.031 A 
ATOM     27  C   UNL     1      -1.667  -9.986  12.079  0.00  0.00    +0.215 A 
ATOM     28  C   UNL     1      -2.082  -8.929  10.080  0.00  0.00    +0.115 A 
BRANCH  27   2
ATOM      2  O   UNL     1      -0.760 -10.401  13.019  0.00  0.00    -0.474 OA
BRANCH   2  29
ATOM     29  C   UNL     1      -0.831  -9.776  14.295  0.00  0.00    +0.258 C 
BRANCH  29  30
ATOM     30  C   UNL     1      -1.346 -10.781  15.309  0.00  0.00    +0.200 C 
BRANCH  30   3
ATOM      3  O   UNL     1      -2.103 -10.095  16.299  0.00  0.00    -0.380 OA
ATOM     31  C   UNL     1      -3.467 -10.489  16.275  0.00  0.00    +0.194 C 
ENDBRANCH  30   3
ENDBRANCH  29  30
ENDBRANCH   2  29
ENDBRANCH  27   2
ENDBRANCH  19  23
ENDBRANCH   9  14
BRANCH   4  13
ATOM     13  C   UNL     1     -10.223  -9.919  12.503  0.00  0.00    +0.122 C 
BRANCH  13  15
ATOM      6  N   UNL     1     -10.308  -7.739  15.465  0.00  0.00    -0.360 N 
ATOM     15  C   UNL     1     -10.069  -9.213  13.824  0.00  0.00    -0.008 A 
ATOM     16  C   UNL     1      -9.234  -9.612  14.905  0.00  0.00    +0.004 A 
ATOM     17  C   UNL     1     -10.716  -8.058  14.198  0.00  0.00    +0.088 A 
ATOM     18  C   UNL     1      -9.404  -8.670  15.922  0.00  0.00    +0.047 A 
ATOM     20  C   UNL     1      -8.349 -10.687  15.117  0.00  0.00    +0.010 A 
ATOM     21  C   UNL     1      -8.728  -8.749  17.145  0.00  0.00    +0.026 A 
ATOM     22  C   UNL     1      -7.667 -10.779  16.335  0.00  0.00    +0.001 A 
ATOM     24  C   UNL     1      -7.855  -9.824  17.332  0.00  0.00    +0.002 A 
ATOM     32  H   UNL     1     -10.627  -6.935  15.991  0.00  0.00    +0.165 HD
ENDBRANCH  13  15
ENDBRANCH   4  13
TORSDOF 8
ENDMDL
MODEL 3
REMARK VINA RESULT:      -2.5      1.733      2.234
REMARK  Name = 45783350
REMARK  9 active torsions:
REMARK  status: ('A' for Active; 'I' for Inactive)
REMARK    1  A    between atoms: O_2  and  C_27
REMARK    2  A    between atoms: O_2  and  C_29
REMARK    3  A    between atoms: O_3  and  C_30
REMARK    4  A    between atoms: O_3  and  C_31
REMARK    5  A    between atoms: N_4  and  C_13
REMARK    6  A    between atoms: C_9  and  C_14
REMARK    7  A    between atoms: C_13  and  C_15
REMARK    8  A    between atoms: C_19  and  C_23
REMARK    9  A    between atoms: C_29  and  C_30
REMARK                            x       y       z     vdW  Elec       q    Type
REMARK                         _______ _______ _______ _____ _____    ______ ____
ROOT
ATOM      4  N   UNL     1      -9.585  -9.635  11.352  0.00  0.00    -0.287 NA
ATOM      9  C   UNL     1      -8.685 -10.558  10.633  0.00  0.00    +0.146 C 
ATOM     10  C   UNL     1      -8.699 -10.062   9.176  0.00  0.00    +0.030 C 
ATOM     11  C   UNL     1     -10.556  -9.156  10.369  0.00  0.00    +0.085 C 
ATOM     12  C   UNL     1      -9.679  -8.897   9.161  0.00  0.00    +0.017 C 
ENDROOT
BRANCH   9  14
ATOM      1  O   UNL     1      -6.259 -10.641  10.343  0.00  0.00    -0.336 OA
ATOM      5  N   UNL     1      -6.923 -10.583  12.481  0.00  0.00    -0.190 NA
ATOM      7  N   UNL     1      -5.091 -10.666  11.115  0.00  0.00    -0.056 NA
ATOM     14  C   UNL     1      -7.292 -10.593  11.226  0.00  0.00    +0.245 A 
ATOM     19  C   UNL     1      -5.564 -10.630  12.364  0.00  0.00    +0.202 A 
BRANCH  19  23
ATOM      8  N   UNL     1      -3.038 -10.648  15.755  0.00  0.00    -0.221 NA
ATOM     23  C   UNL     1      -4.708 -10.636  13.514  0.00  0.00    +0.029 A 
ATOM     25  C   UNL     1      -3.333 -10.498  13.361  0.00  0.00    +0.079 A 
ATOM     26  C   UNL     1      -5.248 -10.780  14.787  0.00  0.00    +0.031 A 
ATOM     27  C   UNL     1      -2.548 -10.511  14.502  0.00  0.00    +0.215 A 
ATOM     28  C   UNL     1      -4.379 -10.779  15.865  0.00  0.00    +0.115 A 
BRANCH  27   2
ATOM      2  O   UNL     1      -1.190 -10.377  14.378  0.00  0.00    -0.474 OA
BRANCH   2  29
ATOM     29  C   UNL     1      -0.716  -9.159  13.815  0.00  0.00    +0.258 C 
BRANCH  29  30
ATOM     30  C   UNL     1      -0.692  -9.288  12.304  0.00  0.00    +0.200 C 
BRANCH  30   3
ATOM      3  O   UNL     1      -0.139  -8.103  11.745  0.00  0.00    -0.380 OA
ATOM     31  C   UNL     1       0.400  -7.256  12.751  0.00  0.00    +0.194 C 
ENDBRANCH  30   3
ENDBRANCH  29  30
ENDBRANCH   2  29
ENDBRANCH  27   2
ENDBRANCH  19  23
ENDBRANCH   9  14
BRANCH   4  13
ATOM     13  C   UNL     1     -10.229 -10.245  12.508  0.00  0.00    +0.122 C 
BRANCH  13  15
ATOM      6  N   UNL     1     -10.441  -7.612  15.069  0.00  0.00    -0.360 N 
ATOM     15  C   UNL     1     -10.171  -9.353  13.719  0.00  0.00    -0.008 A 
ATOM     16  C   UNL     1      -9.557  -9.657  14.967  0.00  0.00    +0.004 A 
ATOM     17  C   UNL     1     -10.705  -8.089  13.813  0.00  0.00    +0.088 A 
ATOM     18  C   UNL     1      -9.742  -8.548  15.795  0.00  0.00    +0.047 A 
ATOM     20  C   UNL     1      -8.861 -10.774  15.472  0.00  0.00    +0.010 A 
ATOM     21  C   UNL     1      -9.263  -8.499  17.109  0.00  0.00    +0.026 A 
ATOM     22  C   UNL     1      -8.377 -10.738  16.784  0.00  0.00    +0.001 A 
ATOM     24  C   UNL     1      -8.575  -9.618  17.588  0.00  0.00    +0.002 A 
ATOM     32  H   UNL     1     -10.721  -6.703  15.414  0.00  0.00    +0.165 HD
ENDBRANCH  13  15
ENDBRANCH   4  13
TORSDOF 8
ENDMDL
MODEL 4
REMARK VINA RESULT:      -1.9     15.033     16.787
REMARK  Name = 45783350
REMARK  9 active torsions:
REMARK  status: ('A' for Active; 'I' for Inactive)
REMARK    1  A    between atoms: O_2  and  C_27
REMARK    2  A    between atoms: O_2  and  C_29
REMARK    3  A    between atoms: O_3  and  C_30
REMARK    4  A    between atoms: O_3  and  C_31
REMARK    5  A    between atoms: N_4  and  C_13
REMARK    6  A    between atoms: C_9  and  C_14
REMARK    7  A    between atoms: C_13  and  C_15
REMARK    8  A    between atoms: C_19  and  C_23
REMARK    9  A    between atoms: C_29  and  C_30
REMARK                            x       y       z     vdW  Elec       q    Type
REMARK                         _______ _______ _______ _____ _____    ______ ____
ROOT
ATOM      4  N   UNL     1      -4.660   2.220  25.716  0.00  0.00    -0.287 NA
ATOM      9  C   UNL     1      -4.087   2.352  24.362  0.00  0.00    +0.146 C 
ATOM     10  C   UNL     1      -4.407   3.798  23.941  0.00  0.00    +0.030 C 
ATOM     11  C   UNL     1      -5.782   3.155  25.783  0.00  0.00    +0.085 C 
ATOM     12  C   UNL     1      -5.213   4.379  25.095  0.00  0.00    +0.017 C 
ENDROOT
BRANCH   9  14
ATOM      1  O   UNL     1      -1.880   2.427  25.410  0.00  0.00    -0.336 OA
ATOM      5  N   UNL     1      -1.900   1.463  23.388  0.00  0.00    -0.190 NA
ATOM      7  N   UNL     1      -0.558   2.046  25.147  0.00  0.00    -0.056 NA
ATOM     14  C   UNL     1      -2.604   2.047  24.324  0.00  0.00    +0.245 A 
ATOM     19  C   UNL     1      -0.651   1.485  23.937  0.00  0.00    +0.202 A 
BRANCH  19  23
ATOM      8  N   UNL     1       2.696  -0.133  21.920  0.00  0.00    -0.221 NA
ATOM     23  C   UNL     1       0.484   0.937  23.253  0.00  0.00    +0.029 A 
ATOM     25  C   UNL     1       1.752   1.462  23.473  0.00  0.00    +0.079 A 
ATOM     26  C   UNL     1       0.321  -0.123  22.368  0.00  0.00    +0.031 A 
ATOM     27  C   UNL     1       2.816   0.898  22.788  0.00  0.00    +0.215 A 
ATOM     28  C   UNL     1       1.448  -0.617  21.732  0.00  0.00    +0.115 A 
BRANCH  27   2
ATOM      2  O   UNL     1       4.076   1.398  22.987  0.00  0.00    -0.474 OA
BRANCH   2  29
ATOM     29  C   UNL     1       5.150   0.465  22.938  0.00  0.00    +0.258 C 
BRANCH  29  30
ATOM     30  C   UNL     1       5.735   0.311  24.329  0.00  0.00    +0.200 C 
BRANCH  30   3
ATOM      3  O   UNL     1       5.682  -1.060  24.705  0.00  0.00    -0.380 OA
ATOM     31  C   UNL     1       4.707  -1.769  23.952  0.00  0.00    +0.194 C 
ENDBRANCH  30   3
ENDBRANCH  29  30
ENDBRANCH   2  29
ENDBRANCH  27   2
ENDBRANCH  19  23
ENDBRANCH   9  14
BRANCH   4  13
ATOM     13  C   UNL     1      -5.061   0.857  26.040  0.00  0.00    +0.122 C 
BRANCH  13  15
ATOM      6  N   UNL     1      -3.971  -1.549  23.478  0.00  0.00    -0.360 N 
ATOM     15  C   UNL     1      -4.381  -0.153  25.155  0.00  0.00    -0.008 A 
ATOM     16  C   UNL     1      -3.109  -0.753  25.375  0.00  0.00    +0.004 A 
ATOM     17  C   UNL     1      -4.886  -0.663  23.981  0.00  0.00    +0.088 A 
ATOM     18  C   UNL     1      -2.877  -1.624  24.309  0.00  0.00    +0.047 A 
ATOM     20  C   UNL     1      -2.131  -0.637  26.383  0.00  0.00    +0.010 A 
ATOM     21  C   UNL     1      -1.710  -2.389  24.200  0.00  0.00    +0.026 A 
ATOM     22  C   UNL     1      -0.960  -1.396  26.287  0.00  0.00    +0.001 A 
ATOM     24  C   UNL     1      -0.755  -2.259  25.211  0.00  0.00    +0.002 A 
ATOM     32  H   UNL     1      -4.083  -2.073  22.620  0.00  0.00    +0.165 HD
ENDBRANCH  13  15
ENDBRANCH   4  13
TORSDOF 8
ENDMDL
MODEL 5
REMARK VINA RESULT:      -0.3     14.691     16.921
REMARK  Name = 45783350
REMARK  9 active torsions:
REMARK  status: ('A' for Active; 'I' for Inactive)
REMARK    1  A    between atoms: O_2  and  C_27
REMARK    2  A    between atoms: O_2  and  C_29
REMARK    3  A    between atoms: O_3  and  C_30
REMARK    4  A    between atoms: O_3  and  C_31
REMARK    5  A    between atoms: N_4  and  C_13
REMARK    6  A    between atoms: C_9  and  C_14
REMARK    7  A    between atoms: C_13  and  C_15
REMARK    8  A    between atoms: C_19  and  C_23
REMARK    9  A    between atoms: C_29  and  C_30
REMARK                            x       y       z     vdW  Elec       q    Type
REMARK                         _______ _______ _______ _____ _____    ______ ____
ROOT
ATOM      4  N   UNL     1      -4.017  -0.892  24.071  0.00  0.00    -0.287 NA
ATOM      9  C   UNL     1      -2.992  -1.141  25.104  0.00  0.00    +0.146 C 
ATOM     10  C   UNL     1      -2.914  -2.675  25.215  0.00  0.00    +0.030 C 
ATOM     11  C   UNL     1      -4.930  -2.033  24.111  0.00  0.00    +0.085 C 
ATOM     12  C   UNL     1      -3.972  -3.198  24.254  0.00  0.00    +0.017 C 
ENDROOT
BRANCH   9  14
ATOM      1  O   UNL     1      -1.219   0.467  25.600  0.00  0.00    -0.336 OA
ATOM      5  N   UNL     1      -0.847  -0.769  23.770  0.00  0.00    -0.190 NA
ATOM      7  N   UNL     1       0.014   0.890  25.089  0.00  0.00    -0.056 NA
ATOM     14  C   UNL     1      -1.658  -0.511  24.764  0.00  0.00    +0.245 A 
ATOM     19  C   UNL     1       0.164   0.115  24.010  0.00  0.00    +0.202 A 
BRANCH  19  23
ATOM      8  N   UNL     1       3.552   0.359  21.489  0.00  0.00    -0.221 NA
ATOM     23  C   UNL     1       1.313   0.198  23.155  0.00  0.00    +0.029 A 
ATOM     25  C   UNL     1       2.447   0.883  23.575  0.00  0.00    +0.079 A 
ATOM     26  C   UNL     1       1.297  -0.407  21.903  0.00  0.00    +0.031 A 
ATOM     27  C   UNL     1       3.531   0.935  22.712  0.00  0.00    +0.215 A 
ATOM     28  C   UNL     1       2.431  -0.299  21.116  0.00  0.00    +0.115 A 
BRANCH  27   2
ATOM      2  O   UNL     1       4.660   1.605  23.103  0.00  0.00    -0.474 OA
BRANCH   2  29
ATOM     29  C   UNL     1       5.501   0.948  24.044  0.00  0.00    +0.258 C 
BRANCH  29  30
ATOM     30  C   UNL     1       5.977  -0.364  23.449  0.00  0.00    +0.200 C 
BRANCH  30   3
ATOM      3  O   UNL     1       5.590  -1.430  24.307  0.00  0.00    -0.380 OA
ATOM     31  C   UNL     1       4.330  -1.968  23.931  0.00  0.00    +0.194 C 
ENDBRANCH  30   3
ENDBRANCH  29  30
ENDBRANCH   2  29
ENDBRANCH  27   2
ENDBRANCH  19  23
ENDBRANCH   9  14
BRANCH   4  13
ATOM     13  C   UNL     1      -4.714   0.376  24.247  0.00  0.00    +0.122 C 
BRANCH  13  15
ATOM      6  N   UNL     1      -2.439   2.929  22.890  0.00  0.00    -0.360 N 
ATOM     15  C   UNL     1      -3.825   1.552  23.943  0.00  0.00    -0.008 A 
ATOM     16  C   UNL     1      -3.555   2.654  24.802  0.00  0.00    +0.004 A 
ATOM     17  C   UNL     1      -3.125   1.750  22.775  0.00  0.00    +0.088 A 
ATOM     18  C   UNL     1      -2.683   3.503  24.117  0.00  0.00    +0.047 A 
ATOM     20  C   UNL     1      -3.970   3.011  26.100  0.00  0.00    +0.010 A 
ATOM     21  C   UNL     1      -2.203   4.696  24.668  0.00  0.00    +0.026 A 
ATOM     22  C   UNL     1      -3.498   4.202  26.663  0.00  0.00    +0.001 A 
ATOM     24  C   UNL     1      -2.629   5.030  25.957  0.00  0.00    +0.002 A 
ATOM     32  H   UNL     1      -1.841   3.323  22.176  0.00  0.00    +0.165 HD
ENDBRANCH  13  15
ENDBRANCH   4  13
TORSDOF 8
ENDMDL
MODEL 6
REMARK VINA RESULT:       0.2      1.919      3.259
REMARK  Name = 45783350
REMARK  9 active torsions:
REMARK  status: ('A' for Active; 'I' for Inactive)
REMARK    1  A    between atoms: O_2  and  C_27
REMARK    2  A    between atoms: O_2  and  C_29
REMARK    3  A    between atoms: O_3  and  C_30
REMARK    4  A    between atoms: O_3  and  C_31
REMARK    5  A    between atoms: N_4  and  C_13
REMARK    6  A    between atoms: C_9  and  C_14
REMARK    7  A    between atoms: C_13  and  C_15
REMARK    8  A    between atoms: C_19  and  C_23
REMARK    9  A    between atoms: C_29  and  C_30
REMARK                            x       y       z     vdW  Elec       q    Type
REMARK                         _______ _______ _______ _____ _____    ______ ____
ROOT
ATOM      4  N   UNL     1      -6.425  -9.735  11.616  0.00  0.00    -0.287 NA
ATOM      9  C   UNL     1      -5.373 -10.148  10.665  0.00  0.00    +0.146 C 
ATOM     10  C   UNL     1      -5.648  -9.323   9.394  0.00  0.00    +0.030 C 
ATOM     11  C   UNL     1      -7.572  -9.320  10.808  0.00  0.00    +0.085 C 
ATOM     12  C   UNL     1      -6.907  -8.524   9.703  0.00  0.00    +0.017 C 
ENDROOT
BRANCH   9  14
ATOM      1  O   UNL     1      -3.751 -10.360  12.481  0.00  0.00    -0.336 OA
ATOM      5  N   UNL     1      -2.937  -9.383  10.638  0.00  0.00    -0.190 NA
ATOM      7  N   UNL     1      -2.413 -10.055  12.760  0.00  0.00    -0.056 NA
ATOM     14  C   UNL     1      -3.978  -9.931  11.212  0.00  0.00    +0.245 A 
ATOM     19  C   UNL     1      -2.001  -9.481  11.625  0.00  0.00    +0.202 A 
BRANCH  19  23
ATOM      8  N   UNL     1       1.947  -8.057  11.101  0.00  0.00    -0.221 NA
ATOM     23  C   UNL     1      -0.662  -8.998  11.447  0.00  0.00    +0.029 A 
ATOM     25  C   UNL     1      -0.221  -7.889  12.159  0.00  0.00    +0.079 A 
ATOM     26  C   UNL     1       0.199  -9.638  10.563  0.00  0.00    +0.031 A 
ATOM     27  C   UNL     1       1.081  -7.461  11.952  0.00  0.00    +0.215 A 
ATOM     28  C   UNL     1       1.482  -9.133  10.427  0.00  0.00    +0.115 A 
BRANCH  27   2
ATOM      2  O   UNL     1       1.540  -6.369  12.642  0.00  0.00    -0.474 OA
BRANCH   2  29
ATOM     29  C   UNL     1       2.602  -5.635  12.043  0.00  0.00    +0.258 C 
BRANCH  29  30
ATOM     30  C   UNL     1       3.890  -5.933  12.786  0.00  0.00    +0.200 C 
BRANCH  30   3
ATOM      3  O   UNL     1       4.582  -6.978  12.115  0.00  0.00    -0.380 OA
ATOM     31  C   UNL     1       5.767  -7.345  12.807  0.00  0.00    +0.194 C 
ENDBRANCH  30   3
ENDBRANCH  29  30
ENDBRANCH   2  29
ENDBRANCH  27   2
ENDBRANCH  19  23
ENDBRANCH   9  14
BRANCH   4  13
ATOM     13  C   UNL     1      -6.775 -10.776  12.573  0.00  0.00    +0.122 C 
BRANCH  13  15
ATOM      6  N   UNL     1      -8.719  -9.181  15.259  0.00  0.00    -0.360 N 
ATOM     15  C   UNL     1      -7.352 -10.202  13.840  0.00  0.00    -0.008 A 
ATOM     16  C   UNL     1      -6.758 -10.236  15.132  0.00  0.00    +0.004 A 
ATOM     17  C   UNL     1      -8.557  -9.547  13.949  0.00  0.00    +0.088 A 
ATOM     18  C   UNL     1      -7.636  -9.589  16.004  0.00  0.00    +0.047 A 
ATOM     20  C   UNL     1      -5.553 -10.757  15.646  0.00  0.00    +0.010 A 
ATOM     21  C   UNL     1      -7.369  -9.435  17.369  0.00  0.00    +0.026 A 
ATOM     22  C   UNL     1      -5.273 -10.611  17.008  0.00  0.00    +0.001 A 
ATOM     24  C   UNL     1      -6.168  -9.960  17.855  0.00  0.00    +0.002 A 
ATOM     32  H   UNL     1      -9.520  -8.684  15.626  0.00  0.00    +0.165 HD
ENDBRANCH  13  15
ENDBRANCH   4  13
TORSDOF 8
ENDMDL
MODEL 7
REMARK VINA RESULT:       0.4     14.443     16.858
REMARK  Name = 45783350
REMARK  9 active torsions:
REMARK  status: ('A' for Active; 'I' for Inactive)
REMARK    1  A    between atoms: O_2  and  C_27
REMARK    2  A    between atoms: O_2  and  C_29
REMARK    3  A    between atoms: O_3  and  C_30
REMARK    4  A    between atoms: O_3  and  C_31
REMARK    5  A    between atoms: N_4  and  C_13
REMARK    6  A    between atoms: C_9  and  C_14
REMARK    7  A    between atoms: C_13  and  C_15
REMARK    8  A    between atoms: C_19  and  C_23
REMARK    9  A    between atoms: C_29  and  C_30
REMARK                            x       y       z     vdW  Elec       q    Type
REMARK                         _______ _______ _______ _____ _____    ______ ____
ROOT
ATOM      4  N   UNL     1      -4.104  -0.543  24.619  0.00  0.00    -0.287 NA
ATOM      9  C   UNL     1      -3.150  -1.591  25.035  0.00  0.00    +0.146 C 
ATOM     10  C   UNL     1      -3.578  -2.844  24.249  0.00  0.00    +0.030 C 
ATOM     11  C   UNL     1      -5.340  -1.234  24.249  0.00  0.00    +0.085 C 
ATOM     12  C   UNL     1      -4.815  -2.421  23.468  0.00  0.00    +0.017 C 
ENDROOT
BRANCH   9  14
ATOM      1  O   UNL     1      -0.898  -1.125  25.863  0.00  0.00    -0.336 OA
ATOM      5  N   UNL     1      -1.116  -0.922  23.644  0.00  0.00    -0.190 NA
ATOM      7  N   UNL     1       0.363  -0.754  25.380  0.00  0.00    -0.056 NA
ATOM     14  C   UNL     1      -1.710  -1.202  24.776  0.00  0.00    +0.245 A 
ATOM     19  C   UNL     1       0.154  -0.654  24.064  0.00  0.00    +0.202 A 
BRANCH  19  23
ATOM      8  N   UNL     1       3.216   0.419  21.352  0.00  0.00    -0.221 NA
ATOM     23  C   UNL     1       1.192  -0.290  23.144  0.00  0.00    +0.029 A 
ATOM     25  C   UNL     1       2.247   0.512  23.565  0.00  0.00    +0.079 A 
ATOM     26  C   UNL     1       1.148  -0.737  21.829  0.00  0.00    +0.031 A 
ATOM     27  C   UNL     1       3.226   0.836  22.638  0.00  0.00    +0.215 A 
ATOM     28  C   UNL     1       2.175  -0.359  20.980  0.00  0.00    +0.115 A 
BRANCH  27   2
ATOM      2  O   UNL     1       4.276   1.625  23.028  0.00  0.00    -0.474 OA
BRANCH   2  29
ATOM     29  C   UNL     1       5.191   1.058  23.958  0.00  0.00    +0.258 C 
BRANCH  29  30
ATOM     30  C   UNL     1       5.768  -0.216  23.371  0.00  0.00    +0.200 C 
BRANCH  30   3
ATOM      3  O   UNL     1       5.566  -1.283  24.288  0.00  0.00    -0.380 OA
ATOM     31  C   UNL     1       4.447  -2.078  23.923  0.00  0.00    +0.194 C 
ENDBRANCH  30   3
ENDBRANCH  29  30
ENDBRANCH   2  29
ENDBRANCH  27   2
ENDBRANCH  19  23
ENDBRANCH   9  14
BRANCH   4  13
ATOM     13  C   UNL     1      -4.327   0.470  25.642  0.00  0.00    +0.122 C 
BRANCH  13  15
ATOM      6  N   UNL     1      -4.259   3.858  24.208  0.00  0.00    -0.360 N 
ATOM     15  C   UNL     1      -4.024   1.855  25.136  0.00  0.00    -0.008 A 
ATOM     16  C   UNL     1      -2.772   2.528  25.207  0.00  0.00    +0.004 A 
ATOM     17  C   UNL     1      -4.918   2.697  24.516  0.00  0.00    +0.088 A 
ATOM     18  C   UNL     1      -2.948   3.782  24.618  0.00  0.00    +0.047 A 
ATOM     20  C   UNL     1      -1.503   2.189  25.717  0.00  0.00    +0.010 A 
ATOM     21  C   UNL     1      -1.913   4.718  24.513  0.00  0.00    +0.026 A 
ATOM     22  C   UNL     1      -0.460   3.116  25.620  0.00  0.00    +0.001 A 
ATOM     24  C   UNL     1      -0.663   4.360  25.027  0.00  0.00    +0.002 A 
ATOM     32  H   UNL     1      -4.676   4.655  23.747  0.00  0.00    +0.165 HD
ENDBRANCH  13  15
ENDBRANCH   4  13
TORSDOF 8
ENDMDL
