MODEL 1
REMARK VINA RESULT:      -3.0      0.000      0.000
REMARK  Name = 28962427
REMARK  10 active torsions:
REMARK  status: ('A' for Active; 'I' for Inactive)
REMARK    1  A    between atoms: O_2  and  C_10
REMARK    2  A    between atoms: N_5  and  C_14
REMARK    3  A    between atoms: N_6  and  C_24
REMARK    4  A    between atoms: C_7  and  C_17
REMARK    5  A    between atoms: C_9  and  C_19
REMARK    6  A    between atoms: C_13  and  C_18
REMARK    7  A    between atoms: C_18  and  C_20
REMARK    8  A    between atoms: C_18  and  C_21
REMARK    9  A    between atoms: C_22  and  C_23
REMARK   10  A    between atoms: C_24  and  C_25
REMARK                            x       y       z     vdW  Elec       q    Type
REMARK                         _______ _______ _______ _____ _____    ______ ____
ROOT
ATOM      7  C   UNL     1      -2.210  -0.984  25.093  0.00  0.00    -0.027 C 
ATOM      8  C   UNL     1      -2.228   0.252  24.133  0.00  0.00    +0.028 C 
ATOM      9  C   UNL     1      -0.780   0.828  23.937  0.00  0.00    +0.012 C 
ATOM     10  C   UNL     1      -3.306   1.288  24.565  0.00  0.00    +0.122 C 
ATOM     11  C   UNL     1      -3.629  -1.593  25.174  0.00  0.00    +0.007 C 
ATOM     12  C   UNL     1      -1.267  -2.062  24.510  0.00  0.00    +0.009 C 
ATOM     13  C   UNL     1      -4.704   0.650  24.746  0.00  0.00    +0.029 C 
ATOM     14  C   UNL     1       0.177  -0.283  23.422  0.00  0.00    +0.076 C 
ATOM     15  C   UNL     1      -4.681  -0.594  25.635  0.00  0.00    +0.007 C 
ATOM     16  C   UNL     1       0.147  -1.552  24.274  0.00  0.00    +0.023 C 
ATOM     17  C   UNL     1      -1.743  -0.616  26.524  0.00  0.00    +0.011 C 
ATOM     19  C   UNL     1      -0.719   2.031  22.980  0.00  0.00    +0.010 C 
ENDROOT
BRANCH  14   5
ATOM      4  O   UNL     1       1.942  -0.385  21.119  0.00  0.00    -0.276 OA
ATOM      5  N   UNL     1       1.546   0.183  23.341  0.00  0.00    -0.312 N 
ATOM     22  C   UNL     1       2.308   0.089  22.191  0.00  0.00    +0.210 C 
ATOM     23  C   UNL     1       3.685   0.670  22.373  0.00  0.00    +0.109 C 
ATOM     31  H   UNL     1       1.977   0.541  24.189  0.00  0.00    +0.149 HD
ENDBRANCH  14   5
BRANCH  10   2
ATOM      2  O   UNL     1      -3.441   2.286  23.554  0.00  0.00    -0.391 OA
ATOM     32  H   UNL     1      -4.036   2.978  23.888  0.00  0.00    +0.210 HD
ENDBRANCH  10   2
BRANCH  13  18
ATOM     18  C   UNL     1      -5.720   1.656  25.298  0.00  0.00    +0.077 C 
ATOM     20  C   UNL     1      -6.858   1.852  24.302  0.00  0.00    +0.017 C 
BRANCH  18  21
ATOM      3  O   UNL     1      -5.333   4.036  25.074  0.00  0.00    -0.276 OA
ATOM      6  N   UNL     1      -4.025   2.835  26.566  0.00  0.00    -0.311 N 
ATOM     21  C   UNL     1      -5.025   2.976  25.615  0.00  0.00    +0.216 C 
ATOM     33  H   UNL     1      -3.866   1.934  27.005  0.00  0.00    +0.149 HD
BRANCH   6  24
ATOM     24  C   UNL     1      -3.224   3.945  27.027  0.00  0.00    +0.141 C 
BRANCH  24  25
ATOM      1 CL   UNL     1      -0.591   2.336  27.045  0.00  0.00    -0.083 Cl
ATOM     25  C   UNL     1      -2.161   4.322  26.037  0.00  0.00    -0.012 A 
ATOM     26  C   UNL     1      -0.942   3.647  25.978  0.00  0.00    +0.046 A 
ATOM     27  C   UNL     1      -2.417   5.378  25.161  0.00  0.00    +0.006 A 
ATOM     28  C   UNL     1       0.021   4.026  25.043  0.00  0.00    +0.020 A 
ATOM     29  C   UNL     1      -1.453   5.756  24.226  0.00  0.00    +0.000 A 
ATOM     30  C   UNL     1      -0.234   5.081  24.167  0.00  0.00    +0.001 A 
ENDBRANCH  24  25
ENDBRANCH   6  24
ENDBRANCH  18  21
ENDBRANCH  13  18
TORSDOF 6
ENDMDL
MODEL 2
REMARK VINA RESULT:      -0.6     16.139     20.020
REMARK  Name = 28962427
REMARK  10 active torsions:
REMARK  status: ('A' for Active; 'I' for Inactive)
REMARK    1  A    between atoms: O_2  and  C_10
REMARK    2  A    between atoms: N_5  and  C_14
REMARK    3  A    between atoms: N_6  and  C_24
REMARK    4  A    between atoms: C_7  and  C_17
REMARK    5  A    between atoms: C_9  and  C_19
REMARK    6  A    between atoms: C_13  and  C_18
REMARK    7  A    between atoms: C_18  and  C_20
REMARK    8  A    between atoms: C_18  and  C_21
REMARK    9  A    between atoms: C_22  and  C_23
REMARK   10  A    between atoms: C_24  and  C_25
REMARK                            x       y       z     vdW  Elec       q    Type
REMARK                         _______ _______ _______ _____ _____    ______ ____
ROOT
ATOM      7  C   UNL     1      12.007  -9.637  32.020  0.00  0.00    -0.027 C 
ATOM      8  C   UNL     1      11.596  -8.242  32.597  0.00  0.00    +0.028 C 
ATOM      9  C   UNL     1      10.082  -7.941  32.308  0.00  0.00    +0.012 C 
ATOM     10  C   UNL     1      12.593  -7.131  32.156  0.00  0.00    +0.122 C 
ATOM     11  C   UNL     1      13.468  -9.949  32.420  0.00  0.00    +0.007 C 
ATOM     12  C   UNL     1      11.105 -10.727  32.643  0.00  0.00    +0.009 C 
ATOM     13  C   UNL     1      14.064  -7.497  32.465  0.00  0.00    +0.029 C 
ATOM     14  C   UNL     1       9.189  -9.082  32.873  0.00  0.00    +0.076 C 
ATOM     15  C   UNL     1      14.453  -8.885  31.955  0.00  0.00    +0.007 C 
ATOM     16  C   UNL     1       9.622 -10.475  32.417  0.00  0.00    +0.023 C 
ATOM     17  C   UNL     1      11.890  -9.698  30.476  0.00  0.00    +0.011 C 
ATOM     19  C   UNL     1       9.601  -6.594  32.874  0.00  0.00    +0.010 C 
ENDROOT
BRANCH  14   5
ATOM      4  O   UNL     1       8.077  -8.656  30.225  0.00  0.00    -0.276 OA
ATOM      5  N   UNL     1       7.796  -8.896  32.523  0.00  0.00    -0.312 N 
ATOM     22  C   UNL     1       7.365  -8.699  31.224  0.00  0.00    +0.210 C 
ATOM     23  C   UNL     1       5.868  -8.559  31.138  0.00  0.00    +0.109 C 
ATOM     31  H   UNL     1       7.118  -8.853  33.278  0.00  0.00    +0.149 HD
ENDBRANCH  14   5
BRANCH  10   2
ATOM      2  O   UNL     1      12.314  -5.928  32.871  0.00  0.00    -0.391 OA
ATOM     32  H   UNL     1      12.890  -5.898  33.652  0.00  0.00    +0.210 HD
ENDBRANCH  10   2
BRANCH  13  18
ATOM     18  C   UNL     1      15.039  -6.454  31.906  0.00  0.00    +0.077 C 
ATOM     20  C   UNL     1      14.340  -5.587  30.864  0.00  0.00    +0.017 C 
BRANCH  18  21
ATOM      3  O   UNL     1      17.157  -7.623  32.020  0.00  0.00    -0.276 OA
ATOM      6  N   UNL     1      16.246  -7.178  29.934  0.00  0.00    -0.311 N 
ATOM     21  C   UNL     1      16.264  -7.149  31.320  0.00  0.00    +0.216 C 
ATOM     33  H   UNL     1      15.446  -6.811  29.429  0.00  0.00    +0.149 HD
BRANCH   6  24
ATOM     24  C   UNL     1      17.300  -7.781  29.152  0.00  0.00    +0.141 C 
BRANCH  24  25
ATOM      1 CL   UNL     1      15.917 -10.540  29.178  0.00  0.00    -0.083 Cl
ATOM     25  C   UNL     1      16.792  -8.328  27.850  0.00  0.00    -0.012 A 
ATOM     26  C   UNL     1      16.156  -9.567  27.773  0.00  0.00    +0.046 A 
ATOM     27  C   UNL     1      16.971  -7.563  26.696  0.00  0.00    +0.006 A 
ATOM     28  C   UNL     1      15.697 -10.041  26.544  0.00  0.00    +0.020 A 
ATOM     29  C   UNL     1      16.511  -8.038  25.468  0.00  0.00    +0.000 A 
ATOM     30  C   UNL     1      15.875  -9.276  25.391  0.00  0.00    +0.001 A 
ENDBRANCH  24  25
ENDBRANCH   6  24
ENDBRANCH  18  21
ENDBRANCH  13  18
TORSDOF 6
ENDMDL
