MODEL 1
REMARK VINA RESULT:      -2.9      0.000      0.000
REMARK  Name = 51136669
REMARK  9 active torsions:
REMARK  status: ('A' for Active; 'I' for Inactive)
REMARK    1  A    between atoms: O_1  and  C_18
REMARK    2  A    between atoms: O_4  and  C_26
REMARK    3  A    between atoms: O_4  and  C_28
REMARK    4  A    between atoms: N_7  and  C_24
REMARK    5  A    between atoms: C_8  and  C_12
REMARK    6  A    between atoms: C_9  and  C_14
REMARK    7  A    between atoms: C_12  and  C_15
REMARK    8  A    between atoms: C_14  and  C_18
REMARK    9  A    between atoms: C_24  and  C_27
REMARK                            x       y       z     vdW  Elec       q    Type
REMARK                         _______ _______ _______ _____ _____    ______ ____
ROOT
ATOM      2  O   UNL     1       9.860  -7.855  32.169  0.00  0.00    -0.253 OA
ATOM      5  N   UNL     1      12.080  -8.521  32.259  0.00  0.00    -0.285 N 
ATOM      7  N   UNL     1      11.443  -6.292  32.725  0.00  0.00    -0.300 N 
ATOM      8  C   UNL     1      14.327  -8.599  31.216  0.00  0.00    +0.016 C 
ATOM      9  C   UNL     1      14.022 -10.047  30.750  0.00  0.00    +0.006 C 
ATOM     10  C   UNL     1      12.509 -10.296  30.613  0.00  0.00    +0.023 C 
ATOM     11  C   UNL     1      13.513  -8.283  32.482  0.00  0.00    +0.113 C 
ATOM     13  C   UNL     1      11.758  -9.898  31.883  0.00  0.00    +0.109 C 
ATOM     16  C   UNL     1      11.046  -7.577  32.373  0.00  0.00    +0.302 C 
ATOM     29  H   UNL     1      12.417  -6.045  32.823  0.00  0.00    +0.150 HD
ENDROOT
BRANCH   7  24
ATOM     24  C   UNL     1      10.497  -5.208  32.873  0.00  0.00    +0.102 C 
ATOM     27  C   UNL     1      10.934  -3.982  32.102  0.00  0.00    +0.024 C 
ENDBRANCH   7  24
BRANCH   8  12
ATOM     12  C   UNL     1      14.084  -7.532  30.143  0.00  0.00    +0.061 C 
BRANCH  12  15
ATOM      6  N   UNL     1      15.904  -6.212  30.985  0.00  0.00    -0.287 NA
ATOM     15  C   UNL     1      15.335  -6.713  29.938  0.00  0.00    +0.044 C 
ATOM     17  C   UNL     1      15.846  -6.519  28.558  0.00  0.00    -0.001 A 
ATOM     19  C   UNL     1      16.749  -5.467  28.362  0.00  0.00    -0.033 A 
ATOM     20  C   UNL     1      17.125  -4.611  29.535  0.00  0.00    +0.059 C 
ATOM     21  C   UNL     1      17.153  -5.469  30.793  0.00  0.00    +0.146 C 
ATOM     22  C   UNL     1      15.450  -7.322  27.486  0.00  0.00    +0.013 A 
ATOM     23  C   UNL     1      17.237  -5.206  27.078  0.00  0.00    +0.050 A 
ATOM     25  C   UNL     1      15.954  -7.063  26.211  0.00  0.00    +0.046 A 
ATOM     26  C   UNL     1      16.842  -6.006  26.006  0.00  0.00    +0.120 A 
BRANCH  26   4
ATOM      4  O   UNL     1      17.322  -5.755  24.757  0.00  0.00    -0.495 OA
ATOM     28  C   UNL     1      17.187  -4.423  24.265  0.00  0.00    +0.277 C 
ENDBRANCH  26   4
ENDBRANCH  12  15
ENDBRANCH   8  12
BRANCH   9  14
ATOM     14  C   UNL     1      14.750 -10.428  29.461  0.00  0.00    +0.124 C 
BRANCH  14  18
ATOM      3  O   UNL     1      16.820 -10.779  30.701  0.00  0.00    -0.251 OA
ATOM     18  C   UNL     1      16.238 -10.495  29.664  0.00  0.00    +0.305 C 
BRANCH  18   1
ATOM      1  O   UNL     1      16.873 -10.187  28.504  0.00  0.00    -0.481 OA
ATOM     30  H   UNL     1      16.675  -9.273  28.210  0.00  0.00    +0.295 HD
ENDBRANCH  18   1
ENDBRANCH  14  18
ENDBRANCH   9  14
TORSDOF 7
ENDMDL
MODEL 2
REMARK VINA RESULT:      -0.9     16.213     19.734
REMARK  Name = 51136669
REMARK  9 active torsions:
REMARK  status: ('A' for Active; 'I' for Inactive)
REMARK    1  A    between atoms: O_1  and  C_18
REMARK    2  A    between atoms: O_4  and  C_26
REMARK    3  A    between atoms: O_4  and  C_28
REMARK    4  A    between atoms: N_7  and  C_24
REMARK    5  A    between atoms: C_8  and  C_12
REMARK    6  A    between atoms: C_9  and  C_14
REMARK    7  A    between atoms: C_12  and  C_15
REMARK    8  A    between atoms: C_14  and  C_18
REMARK    9  A    between atoms: C_24  and  C_27
REMARK                            x       y       z     vdW  Elec       q    Type
REMARK                         _______ _______ _______ _____ _____    ______ ____
ROOT
ATOM      2  O   UNL     1      -1.961  -2.790  24.016  0.00  0.00    -0.253 OA
ATOM      5  N   UNL     1      -0.536  -1.138  24.801  0.00  0.00    -0.285 N 
ATOM      7  N   UNL     1      -2.864  -1.047  25.200  0.00  0.00    -0.300 N 
ATOM      8  C   UNL     1       0.413   1.142  24.582  0.00  0.00    +0.016 C 
ATOM      9  C   UNL     1       1.672   0.516  23.925  0.00  0.00    +0.006 C 
ATOM     10  C   UNL     1       1.358  -0.837  23.262  0.00  0.00    +0.023 C 
ATOM     11  C   UNL     1      -0.245   0.113  25.517  0.00  0.00    +0.113 C 
ATOM     13  C   UNL     1       0.647  -1.783  24.229  0.00  0.00    +0.109 C 
ATOM     16  C   UNL     1      -1.796  -1.732  24.632  0.00  0.00    +0.302 C 
ATOM     29  H   UNL     1      -2.743  -0.147  25.643  0.00  0.00    +0.150 HD
ENDROOT
BRANCH   7  24
ATOM     24  C   UNL     1      -4.225  -1.527  25.105  0.00  0.00    +0.102 C 
ATOM     27  C   UNL     1      -4.599  -1.852  23.674  0.00  0.00    +0.024 C 
ENDBRANCH   7  24
BRANCH   8  12
ATOM     12  C   UNL     1      -0.610   1.686  23.579  0.00  0.00    +0.061 C 
BRANCH  12  15
ATOM      6  N   UNL     1      -0.561   4.005  24.198  0.00  0.00    -0.287 NA
ATOM     15  C   UNL     1      -1.268   2.925  24.136  0.00  0.00    +0.044 C 
ATOM     17  C   UNL     1      -2.680   2.845  24.588  0.00  0.00    -0.001 A 
ATOM     19  C   UNL     1      -3.129   3.865  25.436  0.00  0.00    -0.033 A 
ATOM     20  C   UNL     1      -2.170   4.945  25.837  0.00  0.00    +0.059 C 
ATOM     21  C   UNL     1      -1.217   5.224  24.682  0.00  0.00    +0.146 C 
ATOM     22  C   UNL     1      -3.534   1.807  24.213  0.00  0.00    +0.013 A 
ATOM     23  C   UNL     1      -4.437   3.826  25.929  0.00  0.00    +0.050 A 
ATOM     25  C   UNL     1      -4.843   1.785  24.698  0.00  0.00    +0.046 A 
ATOM     26  C   UNL     1      -5.292   2.789  25.556  0.00  0.00    +0.120 A 
BRANCH  26   4
ATOM      4  O   UNL     1      -6.567   2.756  26.031  0.00  0.00    -0.495 OA
ATOM     28  C   UNL     1      -6.882   1.733  26.974  0.00  0.00    +0.277 C 
ENDBRANCH  26   4
ENDBRANCH  12  15
ENDBRANCH   8  12
BRANCH   9  14
ATOM     14  C   UNL     1       2.361   1.455  22.934  0.00  0.00    +0.124 C 
BRANCH  14  18
ATOM      3  O   UNL     1       4.671   0.849  23.423  0.00  0.00    -0.251 OA
ATOM     18  C   UNL     1       3.760   1.003  22.622  0.00  0.00    +0.305 C 
BRANCH  18   1
ATOM      1  O   UNL     1       3.883   0.780  21.288  0.00  0.00    -0.481 OA
ATOM     30  H   UNL     1       3.026   0.867  20.822  0.00  0.00    +0.295 HD
ENDBRANCH  18   1
ENDBRANCH  14  18
ENDBRANCH   9  14
TORSDOF 7
ENDMDL
MODEL 3
REMARK VINA RESULT:       0.2     16.264     19.283
REMARK  Name = 51136669
REMARK  9 active torsions:
REMARK  status: ('A' for Active; 'I' for Inactive)
REMARK    1  A    between atoms: O_1  and  C_18
REMARK    2  A    between atoms: O_4  and  C_26
REMARK    3  A    between atoms: O_4  and  C_28
REMARK    4  A    between atoms: N_7  and  C_24
REMARK    5  A    between atoms: C_8  and  C_12
REMARK    6  A    between atoms: C_9  and  C_14
REMARK    7  A    between atoms: C_12  and  C_15
REMARK    8  A    between atoms: C_14  and  C_18
REMARK    9  A    between atoms: C_24  and  C_27
REMARK                            x       y       z     vdW  Elec       q    Type
REMARK                         _______ _______ _______ _____ _____    ______ ____
ROOT
ATOM      2  O   UNL     1      -5.233   4.127  24.641  0.00  0.00    -0.253 OA
ATOM      5  N   UNL     1      -4.597   2.055  25.466  0.00  0.00    -0.285 N 
ATOM      7  N   UNL     1      -3.151   3.921  25.581  0.00  0.00    -0.300 N 
ATOM      8  C   UNL     1      -3.310  -0.046  25.194  0.00  0.00    +0.016 C 
ATOM      9  C   UNL     1      -4.617  -0.747  24.737  0.00  0.00    +0.006 C 
ATOM     10  C   UNL     1      -5.624   0.254  24.143  0.00  0.00    +0.023 C 
ATOM     11  C   UNL     1      -3.654   1.135  26.117  0.00  0.00    +0.113 C 
ATOM     13  C   UNL     1      -5.866   1.432  25.086  0.00  0.00    +0.109 C 
ATOM     16  C   UNL     1      -4.387   3.416  25.194  0.00  0.00    +0.302 C 
ATOM     29  H   UNL     1      -2.432   3.327  25.968  0.00  0.00    +0.150 HD
ENDROOT
BRANCH   7  24
ATOM     24  C   UNL     1      -2.781   5.302  25.361  0.00  0.00    +0.102 C 
ATOM     27  C   UNL     1      -1.326   5.430  24.965  0.00  0.00    +0.024 C 
ENDBRANCH   7  24
BRANCH   8  12
ATOM     12  C   UNL     1      -2.415   0.419  24.040  0.00  0.00    +0.061 C 
BRANCH  12  15
ATOM      6  N   UNL     1      -1.266   1.798  25.636  0.00  0.00    -0.287 NA
ATOM     15  C   UNL     1      -1.157   1.049  24.588  0.00  0.00    +0.044 C 
ATOM     17  C   UNL     1       0.133   0.788  23.900  0.00  0.00    -0.001 A 
ATOM     19  C   UNL     1       1.186   1.667  24.180  0.00  0.00    -0.033 A 
ATOM     20  C   UNL     1       0.945   2.804  25.127  0.00  0.00    +0.059 C 
ATOM     21  C   UNL     1      -0.037   2.360  26.204  0.00  0.00    +0.146 C 
ATOM     22  C   UNL     1       0.309  -0.267  23.003  0.00  0.00    +0.013 A 
ATOM     23  C   UNL     1       2.415   1.499  23.534  0.00  0.00    +0.050 A 
ATOM     25  C   UNL     1       1.545  -0.436  22.375  0.00  0.00    +0.046 A 
ATOM     26  C   UNL     1       2.593   0.446  22.637  0.00  0.00    +0.120 A 
BRANCH  26   4
ATOM      4  O   UNL     1       3.792   0.279  22.014  0.00  0.00    -0.495 OA
ATOM     28  C   UNL     1       4.953   0.233  22.842  0.00  0.00    +0.277 C 
ENDBRANCH  26   4
ENDBRANCH  12  15
ENDBRANCH   8  12
BRANCH   9  14
ATOM     14  C   UNL     1      -4.371  -1.903  23.769  0.00  0.00    +0.124 C 
BRANCH  14  18
ATOM      3  O   UNL     1      -2.167  -2.945  23.721  0.00  0.00    -0.251 OA
ATOM     18  C   UNL     1      -3.262  -2.800  24.246  0.00  0.00    +0.305 C 
BRANCH  18   1
ATOM      1  O   UNL     1      -3.650  -3.448  25.374  0.00  0.00    -0.481 OA
ATOM     30  H   UNL     1      -3.151  -4.281  25.507  0.00  0.00    +0.295 HD
ENDBRANCH  18   1
ENDBRANCH  14  18
ENDBRANCH   9  14
TORSDOF 7
ENDMDL
MODEL 4
REMARK VINA RESULT:       0.2     16.014     19.810
REMARK  Name = 51136669
REMARK  9 active torsions:
REMARK  status: ('A' for Active; 'I' for Inactive)
REMARK    1  A    between atoms: O_1  and  C_18
REMARK    2  A    between atoms: O_4  and  C_26
REMARK    3  A    between atoms: O_4  and  C_28
REMARK    4  A    between atoms: N_7  and  C_24
REMARK    5  A    between atoms: C_8  and  C_12
REMARK    6  A    between atoms: C_9  and  C_14
REMARK    7  A    between atoms: C_12  and  C_15
REMARK    8  A    between atoms: C_14  and  C_18
REMARK    9  A    between atoms: C_24  and  C_27
REMARK                            x       y       z     vdW  Elec       q    Type
REMARK                         _______ _______ _______ _____ _____    ______ ____
ROOT
ATOM      2  O   UNL     1       3.478  -1.168  23.598  0.00  0.00    -0.253 OA
ATOM      5  N   UNL     1       1.248  -0.682  23.184  0.00  0.00    -0.285 N 
ATOM      7  N   UNL     1       2.948   0.915  22.798  0.00  0.00    -0.300 N 
ATOM      8  C   UNL     1      -0.860   0.420  23.881  0.00  0.00    +0.016 C 
ATOM      9  C   UNL     1      -1.365  -0.952  24.401  0.00  0.00    +0.006 C 
ATOM     10  C   UNL     1      -0.199  -1.889  24.764  0.00  0.00    +0.023 C 
ATOM     11  C   UNL     1       0.156   0.200  22.748  0.00  0.00    +0.113 C 
ATOM     13  C   UNL     1       0.803  -2.008  23.617  0.00  0.00    +0.109 C 
ATOM     16  C   UNL     1       2.616  -0.368  23.217  0.00  0.00    +0.302 C 
ATOM     29  H   UNL     1       2.241   1.593  22.554  0.00  0.00    +0.150 HD
ENDROOT
BRANCH   7  24
ATOM     24  C   UNL     1       4.314   1.390  22.783  0.00  0.00    +0.102 C 
ATOM     27  C   UNL     1       5.222   0.493  23.596  0.00  0.00    +0.024 C 
ENDBRANCH   7  24
BRANCH   8  12
ATOM     12  C   UNL     1      -0.262   1.319  24.969  0.00  0.00    +0.061 C 
BRANCH  12  15
ATOM      6  N   UNL     1       0.117   3.635  24.462  0.00  0.00    -0.287 NA
ATOM     15  C   UNL     1      -0.751   2.736  24.792  0.00  0.00    +0.044 C 
ATOM     17  C   UNL     1      -2.190   3.030  25.008  0.00  0.00    -0.001 A 
ATOM     19  C   UNL     1      -2.536   4.370  25.217  0.00  0.00    -0.033 A 
ATOM     20  C   UNL     1      -1.449   5.403  25.223  0.00  0.00    +0.059 C 
ATOM     21  C   UNL     1      -0.368   5.000  24.229  0.00  0.00    +0.146 C 
ATOM     22  C   UNL     1      -3.169   2.034  25.022  0.00  0.00    +0.013 A 
ATOM     23  C   UNL     1      -3.870   4.708  25.467  0.00  0.00    +0.050 A 
ATOM     25  C   UNL     1      -4.500   2.384  25.257  0.00  0.00    +0.046 A 
ATOM     26  C   UNL     1      -4.849   3.715  25.481  0.00  0.00    +0.120 A 
BRANCH  26   4
ATOM      4  O   UNL     1      -6.149   4.046  25.718  0.00  0.00    -0.495 OA
ATOM     28  C   UNL     1      -6.561   5.361  25.351  0.00  0.00    +0.277 C 
ENDBRANCH  26   4
ENDBRANCH  12  15
ENDBRANCH   8  12
BRANCH   9  14
ATOM     14  C   UNL     1      -2.341  -0.828  25.570  0.00  0.00    +0.124 C 
BRANCH  14  18
ATOM      3  O   UNL     1      -4.648  -0.987  24.795  0.00  0.00    -0.251 OA
ATOM     18  C   UNL     1      -3.650  -1.506  25.274  0.00  0.00    +0.305 C 
BRANCH  18   1
ATOM      1  O   UNL     1      -3.575  -2.817  25.621  0.00  0.00    -0.481 OA
ATOM     30  H   UNL     1      -3.586  -2.939  26.594  0.00  0.00    +0.295 HD
ENDBRANCH  18   1
ENDBRANCH  14  18
ENDBRANCH   9  14
TORSDOF 7
ENDMDL
