MODEL 1
REMARK VINA RESULT:      -4.4      0.000      0.000
REMARK  Name = 51137316
REMARK  5 active torsions:
REMARK  status: ('A' for Active; 'I' for Inactive)
REMARK    1  A    between atoms: N_2  and  C_10
REMARK    2  A    between atoms: C_6  and  C_11
REMARK    3  A    between atoms: C_10  and  C_12
REMARK    4  A    between atoms: C_10  and  C_13
REMARK    5  A    between atoms: C_14  and  C_15
REMARK                            x       y       z     vdW  Elec       q    Type
REMARK                         _______ _______ _______ _____ _____    ______ ____
ROOT
ATOM      1  O   UNL     1      16.981  -4.856  25.959  0.00  0.00    -0.420 OA
ATOM      3  N   UNL     1      17.117  -6.798  24.856  0.00  0.00    -0.112 NA
ATOM      4  N   UNL     1      17.225  -5.773  23.933  0.00  0.00    -0.107 NA
ATOM     11  C   UNL     1      16.977  -6.216  26.023  0.00  0.00    +0.222 A 
ATOM     14  C   UNL     1      17.140  -4.659  24.622  0.00  0.00    +0.248 A 
ENDROOT
BRANCH  14  15
ATOM      5  N   UNL     1      17.284  -0.628  23.353  0.00  0.00    -0.263 NA
ATOM     15  C   UNL     1      17.188  -3.292  24.191  0.00  0.00    +0.041 A 
ATOM     16  C   UNL     1      17.059  -2.263  25.118  0.00  0.00    +0.033 A 
ATOM     17  C   UNL     1      17.365  -2.990  22.846  0.00  0.00    +0.033 A 
ATOM     18  C   UNL     1      17.114  -0.959  24.652  0.00  0.00    +0.111 A 
ATOM     19  C   UNL     1      17.405  -1.653  22.481  0.00  0.00    +0.111 A 
ENDBRANCH  14  15
BRANCH  11   6
ATOM      2  N   UNL     1      15.372  -6.928  29.240  0.00  0.00    -0.299 NA
ATOM      6  C   UNL     1      16.814  -6.833  27.393  0.00  0.00    +0.092 C 
ATOM      7  C   UNL     1      15.345  -7.052  27.781  0.00  0.00    +0.097 C 
ATOM      8  C   UNL     1      17.404  -6.007  28.550  0.00  0.00    +0.029 C 
ATOM      9  C   UNL     1      16.239  -5.781  29.505  0.00  0.00    +0.085 C 
BRANCH   2  10
ATOM     10  C   UNL     1      14.042  -6.760  29.807  0.00  0.00    +0.050 C 
ATOM     12  C   UNL     1      13.603  -8.065  30.465  0.00  0.00    +0.024 C 
ATOM     13  C   UNL     1      14.036  -5.611  30.811  0.00  0.00    +0.024 C 
ENDBRANCH   2  10
ENDBRANCH  11   6
TORSDOF 3
ENDMDL
MODEL 2
REMARK VINA RESULT:      -4.1     26.560     27.894
REMARK  Name = 51137316
REMARK  5 active torsions:
REMARK  status: ('A' for Active; 'I' for Inactive)
REMARK    1  A    between atoms: N_2  and  C_10
REMARK    2  A    between atoms: C_6  and  C_11
REMARK    3  A    between atoms: C_10  and  C_12
REMARK    4  A    between atoms: C_10  and  C_13
REMARK    5  A    between atoms: C_14  and  C_15
REMARK                            x       y       z     vdW  Elec       q    Type
REMARK                         _______ _______ _______ _____ _____    ______ ____
ROOT
ATOM      1  O   UNL     1      -7.646 -10.212  14.970  0.00  0.00    -0.420 OA
ATOM      3  N   UNL     1      -5.454  -9.903  15.295  0.00  0.00    -0.112 NA
ATOM      4  N   UNL     1      -6.101  -9.679  16.497  0.00  0.00    -0.107 NA
ATOM     11  C   UNL     1      -6.395 -10.211  14.434  0.00  0.00    +0.222 A 
ATOM     14  C   UNL     1      -7.377  -9.871  16.260  0.00  0.00    +0.248 A 
ENDROOT
BRANCH  14  15
ATOM      5  N   UNL     1     -10.719  -9.596  18.837  0.00  0.00    -0.263 NA
ATOM     15  C   UNL     1      -8.511  -9.778  17.133  0.00  0.00    +0.041 A 
ATOM     16  C   UNL     1      -8.598 -10.599  18.253  0.00  0.00    +0.033 A 
ATOM     17  C   UNL     1      -9.525  -8.866  16.866  0.00  0.00    +0.033 A 
ATOM     18  C   UNL     1      -9.713 -10.470  19.066  0.00  0.00    +0.111 A 
ATOM     19  C   UNL     1     -10.599  -8.815  17.741  0.00  0.00    +0.111 A 
ENDBRANCH  14  15
BRANCH  11   6
ATOM      2  N   UNL     1      -5.939  -9.609  10.848  0.00  0.00    -0.299 NA
ATOM      6  C   UNL     1      -6.281 -10.555  12.967  0.00  0.00    +0.092 C 
ATOM      7  C   UNL     1      -5.366  -9.594  12.195  0.00  0.00    +0.097 C 
ATOM      8  C   UNL     1      -7.611 -10.532  12.192  0.00  0.00    +0.029 C 
ATOM      9  C   UNL     1      -7.386  -9.547  11.053  0.00  0.00    +0.085 C 
BRANCH   2  10
ATOM     10  C   UNL     1      -5.449  -8.515  10.024  0.00  0.00    +0.050 C 
ATOM     12  C   UNL     1      -4.181  -8.955   9.297  0.00  0.00    +0.024 C 
ATOM     13  C   UNL     1      -6.523  -8.075   9.033  0.00  0.00    +0.024 C 
ENDBRANCH   2  10
ENDBRANCH  11   6
TORSDOF 3
ENDMDL
MODEL 3
REMARK VINA RESULT:      -4.0      1.527      2.132
REMARK  Name = 51137316
REMARK  5 active torsions:
REMARK  status: ('A' for Active; 'I' for Inactive)
REMARK    1  A    between atoms: N_2  and  C_10
REMARK    2  A    between atoms: C_6  and  C_11
REMARK    3  A    between atoms: C_10  and  C_12
REMARK    4  A    between atoms: C_10  and  C_13
REMARK    5  A    between atoms: C_14  and  C_15
REMARK                            x       y       z     vdW  Elec       q    Type
REMARK                         _______ _______ _______ _____ _____    ______ ____
ROOT
ATOM      1  O   UNL     1      17.180  -5.133  25.918  0.00  0.00    -0.420 OA
ATOM      3  N   UNL     1      17.306  -6.974  24.653  0.00  0.00    -0.112 NA
ATOM      4  N   UNL     1      17.297  -5.876  23.812  0.00  0.00    -0.107 NA
ATOM     11  C   UNL     1      17.237  -6.493  25.871  0.00  0.00    +0.222 A 
ATOM     14  C   UNL     1      17.223  -4.825  24.594  0.00  0.00    +0.248 A 
ENDROOT
BRANCH  14  15
ATOM      5  N   UNL     1      17.099  -0.704  23.652  0.00  0.00    -0.263 NA
ATOM     15  C   UNL     1      17.180  -3.427  24.274  0.00  0.00    +0.041 A 
ATOM     16  C   UNL     1      17.105  -2.481  25.291  0.00  0.00    +0.033 A 
ATOM     17  C   UNL     1      17.215  -3.013  22.948  0.00  0.00    +0.033 A 
ATOM     18  C   UNL     1      17.067  -1.143  24.930  0.00  0.00    +0.111 A 
ATOM     19  C   UNL     1      17.172  -1.652  22.692  0.00  0.00    +0.111 A 
ENDBRANCH  14  15
BRANCH  11   6
ATOM      2  N   UNL     1      16.212  -9.026  28.312  0.00  0.00    -0.299 NA
ATOM      6  C   UNL     1      17.210  -7.223  27.194  0.00  0.00    +0.092 C 
ATOM      7  C   UNL     1      16.882  -8.716  27.049  0.00  0.00    +0.097 C 
ATOM      8  C   UNL     1      16.178  -6.694  28.205  0.00  0.00    +0.029 C 
ATOM      9  C   UNL     1      15.312  -7.898  28.549  0.00  0.00    +0.085 C 
BRANCH   2  10
ATOM     10  C   UNL     1      15.507 -10.298  28.269  0.00  0.00    +0.050 C 
ATOM     12  C   UNL     1      14.360 -10.278  29.275  0.00  0.00    +0.024 C 
ATOM     13  C   UNL     1      14.993 -10.571  26.858  0.00  0.00    +0.024 C 
ENDBRANCH   2  10
ENDBRANCH  11   6
TORSDOF 3
ENDMDL
MODEL 4
REMARK VINA RESULT:      -3.7     23.857     25.107
REMARK  Name = 51137316
REMARK  5 active torsions:
REMARK  status: ('A' for Active; 'I' for Inactive)
REMARK    1  A    between atoms: N_2  and  C_10
REMARK    2  A    between atoms: C_6  and  C_11
REMARK    3  A    between atoms: C_10  and  C_12
REMARK    4  A    between atoms: C_10  and  C_13
REMARK    5  A    between atoms: C_14  and  C_15
REMARK                            x       y       z     vdW  Elec       q    Type
REMARK                         _______ _______ _______ _____ _____    ______ ____
ROOT
ATOM      1  O   UNL     1      -4.493 -10.360  14.433  0.00  0.00    -0.420 OA
ATOM      3  N   UNL     1      -2.871 -10.620  15.952  0.00  0.00    -0.112 NA
ATOM      4  N   UNL     1      -4.056 -10.390  16.626  0.00  0.00    -0.107 NA
ATOM     11  C   UNL     1      -3.174 -10.594  14.676  0.00  0.00    +0.222 A 
ATOM     14  C   UNL     1      -4.974 -10.245  15.701  0.00  0.00    +0.248 A 
ENDROOT
BRANCH  14  15
ATOM      5  N   UNL     1      -9.121  -9.488  16.039  0.00  0.00    -0.263 NA
ATOM     15  C   UNL     1      -6.381  -9.988  15.816  0.00  0.00    +0.041 A 
ATOM     16  C   UNL     1      -7.191 -10.021  14.686  0.00  0.00    +0.033 A 
ATOM     17  C   UNL     1      -6.939  -9.705  17.057  0.00  0.00    +0.033 A 
ATOM     18  C   UNL     1      -8.544  -9.767  14.850  0.00  0.00    +0.111 A 
ATOM     19  C   UNL     1      -8.303  -9.464  17.114  0.00  0.00    +0.111 A 
ENDBRANCH  14  15
BRANCH  11   6
ATOM      2  N   UNL     1      -1.004  -9.608  11.892  0.00  0.00    -0.299 NA
ATOM      6  C   UNL     1      -2.281 -10.781  13.470  0.00  0.00    +0.092 C 
ATOM      7  C   UNL     1      -1.214  -9.686  13.339  0.00  0.00    +0.097 C 
ATOM      8  C   UNL     1      -3.012 -10.777  12.116  0.00  0.00    +0.029 C 
ATOM      9  C   UNL     1      -2.345  -9.670  11.312  0.00  0.00    +0.085 C 
BRANCH   2  10
ATOM     10  C   UNL     1      -0.284  -8.406  11.499  0.00  0.00    +0.050 C 
ATOM     12  C   UNL     1       0.168  -7.654  12.748  0.00  0.00    +0.024 C 
ATOM     13  C   UNL     1       0.907  -8.766  10.616  0.00  0.00    +0.024 C 
ENDBRANCH   2  10
ENDBRANCH  11   6
TORSDOF 3
ENDMDL
MODEL 5
REMARK VINA RESULT:      -3.6      1.835      2.947
REMARK  Name = 51137316
REMARK  5 active torsions:
REMARK  status: ('A' for Active; 'I' for Inactive)
REMARK    1  A    between atoms: N_2  and  C_10
REMARK    2  A    between atoms: C_6  and  C_11
REMARK    3  A    between atoms: C_10  and  C_12
REMARK    4  A    between atoms: C_10  and  C_13
REMARK    5  A    between atoms: C_14  and  C_15
REMARK                            x       y       z     vdW  Elec       q    Type
REMARK                         _______ _______ _______ _____ _____    ______ ____
ROOT
ATOM      1  O   UNL     1      16.611  -5.995  27.728  0.00  0.00    -0.420 OA
ATOM      3  N   UNL     1      16.840  -8.190  28.097  0.00  0.00    -0.112 NA
ATOM      4  N   UNL     1      17.085  -7.953  26.757  0.00  0.00    -0.107 NA
ATOM     11  C   UNL     1      16.569  -7.019  28.624  0.00  0.00    +0.222 A 
ATOM     14  C   UNL     1      16.940  -6.660  26.588  0.00  0.00    +0.248 A 
ENDROOT
BRANCH  14  15
ATOM      5  N   UNL     1      17.331  -4.282  23.112  0.00  0.00    -0.263 NA
ATOM     15  C   UNL     1      17.072  -5.854  25.408  0.00  0.00    +0.041 A 
ATOM     16  C   UNL     1      16.990  -4.468  25.498  0.00  0.00    +0.033 A 
ATOM     17  C   UNL     1      17.284  -6.453  24.173  0.00  0.00    +0.033 A 
ATOM     18  C   UNL     1      17.125  -3.734  24.330  0.00  0.00    +0.111 A 
ATOM     19  C   UNL     1      17.405  -5.630  23.065  0.00  0.00    +0.111 A 
ENDBRANCH  14  15
BRANCH  11   6
ATOM      2  N   UNL     1      14.416  -6.348  31.512  0.00  0.00    -0.299 NA
ATOM      6  C   UNL     1      16.223  -6.664  30.052  0.00  0.00    +0.092 C 
ATOM      7  C   UNL     1      14.917  -7.312  30.531  0.00  0.00    +0.097 C 
ATOM      8  C   UNL     1      16.032  -5.160  30.316  0.00  0.00    +0.029 C 
ATOM      9  C   UNL     1      14.629  -5.038  30.897  0.00  0.00    +0.085 C 
BRANCH   2  10
ATOM     10  C   UNL     1      13.020  -6.578  31.855  0.00  0.00    +0.050 C 
ATOM     12  C   UNL     1      12.557  -5.511  32.843  0.00  0.00    +0.024 C 
ATOM     13  C   UNL     1      12.157  -6.571  30.597  0.00  0.00    +0.024 C 
ENDBRANCH   2  10
ENDBRANCH  11   6
TORSDOF 3
ENDMDL
MODEL 6
REMARK VINA RESULT:      -3.5     26.117     26.775
REMARK  Name = 51137316
REMARK  5 active torsions:
REMARK  status: ('A' for Active; 'I' for Inactive)
REMARK    1  A    between atoms: N_2  and  C_10
REMARK    2  A    between atoms: C_6  and  C_11
REMARK    3  A    between atoms: C_10  and  C_12
REMARK    4  A    between atoms: C_10  and  C_13
REMARK    5  A    between atoms: C_14  and  C_15
REMARK                            x       y       z     vdW  Elec       q    Type
REMARK                         _______ _______ _______ _____ _____    ______ ____
ROOT
ATOM      1  O   UNL     1      -5.747  -9.931  11.302  0.00  0.00    -0.420 OA
ATOM      3  N   UNL     1      -6.066  -9.746  13.509  0.00  0.00    -0.112 NA
ATOM      4  N   UNL     1      -7.180  -9.234  12.871  0.00  0.00    -0.107 NA
ATOM     11  C   UNL     1      -5.257 -10.142  12.554  0.00  0.00    +0.222 A 
ATOM     14  C   UNL     1      -6.950  -9.363  11.585  0.00  0.00    +0.248 A 
ENDROOT
BRANCH  14  15
ATOM      5  N   UNL     1      -9.325  -8.302   8.251  0.00  0.00    -0.263 NA
ATOM     15  C   UNL     1      -7.755  -9.003  10.454  0.00  0.00    +0.041 A 
ATOM     16  C   UNL     1      -9.118  -9.282  10.451  0.00  0.00    +0.033 A 
ATOM     17  C   UNL     1      -7.178  -8.375   9.357  0.00  0.00    +0.033 A 
ATOM     18  C   UNL     1      -9.852  -8.913   9.334  0.00  0.00    +0.111 A 
ATOM     19  C   UNL     1      -7.999  -8.048   8.290  0.00  0.00    +0.111 A 
ENDBRANCH  14  15
BRANCH  11   6
ATOM      2  N   UNL     1      -1.880 -10.711  13.860  0.00  0.00    -0.299 NA
ATOM      6  C   UNL     1      -3.890 -10.780  12.654  0.00  0.00    +0.092 C 
ATOM      7  C   UNL     1      -3.326 -10.768  14.082  0.00  0.00    +0.097 C 
ATOM      8  C   UNL     1      -2.800 -10.112  11.799  0.00  0.00    +0.029 C 
ATOM      9  C   UNL     1      -1.702  -9.735  12.784  0.00  0.00    +0.085 C 
BRANCH   2  10
ATOM     10  C   UNL     1      -1.148 -10.348  15.064  0.00  0.00    +0.050 C 
ATOM     12  C   UNL     1      -0.684  -8.899  14.959  0.00  0.00    +0.024 C 
ATOM     13  C   UNL     1      -2.021 -10.556  16.298  0.00  0.00    +0.024 C 
ENDBRANCH   2  10
ENDBRANCH  11   6
TORSDOF 3
ENDMDL
MODEL 7
REMARK VINA RESULT:      -3.3     17.658     18.478
REMARK  Name = 51137316
REMARK  5 active torsions:
REMARK  status: ('A' for Active; 'I' for Inactive)
REMARK    1  A    between atoms: N_2  and  C_10
REMARK    2  A    between atoms: C_6  and  C_11
REMARK    3  A    between atoms: C_10  and  C_12
REMARK    4  A    between atoms: C_10  and  C_13
REMARK    5  A    between atoms: C_14  and  C_15
REMARK                            x       y       z     vdW  Elec       q    Type
REMARK                         _______ _______ _______ _____ _____    ______ ____
ROOT
ATOM      1  O   UNL     1       0.221   0.726  23.193  0.00  0.00    -0.420 OA
ATOM      3  N   UNL     1      -0.983  -0.823  24.269  0.00  0.00    -0.112 NA
ATOM      4  N   UNL     1       0.345  -1.201  24.321  0.00  0.00    -0.107 NA
ATOM     11  C   UNL     1      -1.008   0.307  23.602  0.00  0.00    +0.222 A 
ATOM     14  C   UNL     1       1.011  -0.268  23.682  0.00  0.00    +0.248 A 
ENDROOT
BRANCH  14  15
ATOM      5  N   UNL     1       5.152   0.119  22.918  0.00  0.00    -0.263 NA
ATOM     15  C   UNL     1       2.416  -0.138  23.422  0.00  0.00    +0.041 A 
ATOM     16  C   UNL     1       2.910   1.016  22.823  0.00  0.00    +0.033 A 
ATOM     17  C   UNL     1       3.288  -1.162  23.770  0.00  0.00    +0.033 A 
ATOM     18  C   UNL     1       4.275   1.094  22.595  0.00  0.00    +0.111 A 
ATOM     19  C   UNL     1       4.635  -0.987  23.498  0.00  0.00    +0.111 A 
ENDBRANCH  14  15
BRANCH  11   6
ATOM      2  N   UNL     1      -3.596   2.860  24.065  0.00  0.00    -0.299 NA
ATOM      6  C   UNL     1      -2.184   1.182  23.234  0.00  0.00    +0.092 C 
ATOM      7  C   UNL     1      -2.172   2.537  23.955  0.00  0.00    +0.097 C 
ATOM      8  C   UNL     1      -3.564   0.581  23.557  0.00  0.00    +0.029 C 
ATOM      9  C   UNL     1      -4.238   1.606  24.459  0.00  0.00    +0.085 C 
BRANCH   2  10
ATOM     10  C   UNL     1      -3.850   3.935  25.013  0.00  0.00    +0.050 C 
ATOM     12  C   UNL     1      -5.180   3.686  25.718  0.00  0.00    +0.024 C 
ATOM     13  C   UNL     1      -2.707   4.035  26.019  0.00  0.00    +0.024 C 
ENDBRANCH   2  10
ENDBRANCH  11   6
TORSDOF 3
ENDMDL
MODEL 8
REMARK VINA RESULT:      -3.2     17.704     18.508
REMARK  Name = 51137316
REMARK  5 active torsions:
REMARK  status: ('A' for Active; 'I' for Inactive)
REMARK    1  A    between atoms: N_2  and  C_10
REMARK    2  A    between atoms: C_6  and  C_11
REMARK    3  A    between atoms: C_10  and  C_12
REMARK    4  A    between atoms: C_10  and  C_13
REMARK    5  A    between atoms: C_14  and  C_15
REMARK                            x       y       z     vdW  Elec       q    Type
REMARK                         _______ _______ _______ _____ _____    ______ ____
ROOT
ATOM      1  O   UNL     1       0.729   1.322  23.550  0.00  0.00    -0.420 OA
ATOM      3  N   UNL     1      -0.871  -0.226  23.773  0.00  0.00    -0.112 NA
ATOM      4  N   UNL     1       0.344  -0.878  23.667  0.00  0.00    -0.107 NA
ATOM     11  C   UNL     1      -0.597   1.055  23.701  0.00  0.00    +0.222 A 
ATOM     14  C   UNL     1       1.248   0.064  23.539  0.00  0.00    +0.248 A 
ENDROOT
BRANCH  14  15
ATOM      5  N   UNL     1       5.446  -0.201  23.101  0.00  0.00    -0.263 NA
ATOM     15  C   UNL     1       2.672  -0.025  23.390  0.00  0.00    +0.041 A 
ATOM     16  C   UNL     1       3.346  -1.169  23.806  0.00  0.00    +0.033 A 
ATOM     17  C   UNL     1       3.383   1.030  22.831  0.00  0.00    +0.033 A 
ATOM     18  C   UNL     1       4.722  -1.206  23.640  0.00  0.00    +0.111 A 
ATOM     19  C   UNL     1       4.757   0.894  22.709  0.00  0.00    +0.111 A 
ENDBRANCH  14  15
BRANCH  11   6
ATOM      2  N   UNL     1      -3.591   2.960  24.616  0.00  0.00    -0.299 NA
ATOM      6  C   UNL     1      -1.530   2.243  23.758  0.00  0.00    +0.092 C 
ATOM      7  C   UNL     1      -2.363   2.290  25.047  0.00  0.00    +0.097 C 
ATOM      8  C   UNL     1      -2.566   2.308  22.622  0.00  0.00    +0.029 C 
ATOM      9  C   UNL     1      -3.917   2.357  23.324  0.00  0.00    +0.085 C 
BRANCH   2  10
ATOM     10  C   UNL     1      -4.670   2.816  25.582  0.00  0.00    +0.050 C 
ATOM     12  C   UNL     1      -5.547   4.064  25.554  0.00  0.00    +0.024 C 
ATOM     13  C   UNL     1      -5.489   1.564  25.279  0.00  0.00    +0.024 C 
ENDBRANCH   2  10
ENDBRANCH  11   6
TORSDOF 3
ENDMDL
MODEL 9
REMARK VINA RESULT:      -3.1     18.171     19.435
REMARK  Name = 51137316
REMARK  5 active torsions:
REMARK  status: ('A' for Active; 'I' for Inactive)
REMARK    1  A    between atoms: N_2  and  C_10
REMARK    2  A    between atoms: C_6  and  C_11
REMARK    3  A    between atoms: C_10  and  C_12
REMARK    4  A    between atoms: C_10  and  C_13
REMARK    5  A    between atoms: C_14  and  C_15
REMARK                            x       y       z     vdW  Elec       q    Type
REMARK                         _______ _______ _______ _____ _____    ______ ____
ROOT
ATOM      1  O   UNL     1      -1.637   1.130  24.346  0.00  0.00    -0.420 OA
ATOM      3  N   UNL     1      -0.095   2.730  24.081  0.00  0.00    -0.112 NA
ATOM      4  N   UNL     1      -1.295   3.340  24.395  0.00  0.00    -0.107 NA
ATOM     11  C   UNL     1      -0.341   1.441  24.064  0.00  0.00    +0.222 A 
ATOM     14  C   UNL     1      -2.165   2.368  24.541  0.00  0.00    +0.248 A 
ENDROOT
BRANCH  14  15
ATOM      5  N   UNL     1      -6.281   2.487  25.505  0.00  0.00    -0.263 NA
ATOM     15  C   UNL     1      -3.562   2.409  24.868  0.00  0.00    +0.041 A 
ATOM     16  C   UNL     1      -4.341   1.264  24.741  0.00  0.00    +0.033 A 
ATOM     17  C   UNL     1      -4.140   3.591  25.313  0.00  0.00    +0.033 A 
ATOM     18  C   UNL     1      -5.685   1.355  25.070  0.00  0.00    +0.111 A 
ATOM     19  C   UNL     1      -5.492   3.578  25.615  0.00  0.00    +0.111 A 
ENDBRANCH  14  15
BRANCH  11   6
ATOM      2  N   UNL     1       2.702  -0.236  22.902  0.00  0.00    -0.299 NA
ATOM      6  C   UNL     1       0.592   0.286  23.779  0.00  0.00    +0.092 C 
ATOM      7  C   UNL     1       2.073   0.681  23.854  0.00  0.00    +0.097 C 
ATOM      8  C   UNL     1       0.427  -0.351  22.389  0.00  0.00    +0.029 C 
ATOM      9  C   UNL     1       1.805  -0.255  21.747  0.00  0.00    +0.085 C 
BRANCH   2  10
ATOM     10  C   UNL     1       4.053   0.172  22.548  0.00  0.00    +0.050 C 
ATOM     12  C   UNL     1       4.119   1.694  22.468  0.00  0.00    +0.024 C 
ATOM     13  C   UNL     1       5.054  -0.367  23.566  0.00  0.00    +0.024 C 
ENDBRANCH   2  10
ENDBRANCH  11   6
TORSDOF 3
ENDMDL
MODEL 10
REMARK VINA RESULT:      -3.1      3.122      5.229
REMARK  Name = 51137316
REMARK  5 active torsions:
REMARK  status: ('A' for Active; 'I' for Inactive)
REMARK    1  A    between atoms: N_2  and  C_10
REMARK    2  A    between atoms: C_6  and  C_11
REMARK    3  A    between atoms: C_10  and  C_12
REMARK    4  A    between atoms: C_10  and  C_13
REMARK    5  A    between atoms: C_14  and  C_15
REMARK                            x       y       z     vdW  Elec       q    Type
REMARK                         _______ _______ _______ _____ _____    ______ ____
ROOT
ATOM      1  O   UNL     1      14.912  -6.569  29.373  0.00  0.00    -0.420 OA
ATOM      3  N   UNL     1      15.927  -5.100  30.721  0.00  0.00    -0.112 NA
ATOM      4  N   UNL     1      16.639  -5.157  29.537  0.00  0.00    -0.107 NA
ATOM     11  C   UNL     1      14.929  -5.939  30.580  0.00  0.00    +0.222 A 
ATOM     14  C   UNL     1      16.010  -6.026  28.781  0.00  0.00    +0.248 A 
ENDROOT
BRANCH  14  15
ATOM      5  N   UNL     1      16.856  -7.377  24.863  0.00  0.00    -0.263 NA
ATOM     15  C   UNL     1      16.296  -6.484  27.452  0.00  0.00    +0.041 A 
ATOM     16  C   UNL     1      17.119  -5.734  26.617  0.00  0.00    +0.033 A 
ATOM     17  C   UNL     1      15.754  -7.679  26.993  0.00  0.00    +0.033 A 
ATOM     18  C   UNL     1      17.366  -6.221  25.343  0.00  0.00    +0.111 A 
ATOM     19  C   UNL     1      16.062  -8.077  25.702  0.00  0.00    +0.111 A 
ENDBRANCH  14  15
BRANCH  11   6
ATOM      2  N   UNL     1      12.352  -8.014  32.155  0.00  0.00    -0.299 NA
ATOM      6  C   UNL     1      13.825  -6.293  31.550  0.00  0.00    +0.092 C 
ATOM      7  C   UNL     1      13.772  -7.792  31.875  0.00  0.00    +0.097 C 
ATOM      8  C   UNL     1      12.405  -5.948  31.068  0.00  0.00    +0.029 C 
ATOM      9  C   UNL     1      11.642  -7.264  31.119  0.00  0.00    +0.085 C 
BRANCH   2  10
ATOM     10  C   UNL     1      12.000  -9.426  32.157  0.00  0.00    +0.050 C 
ATOM     12  C   UNL     1      10.485  -9.572  32.265  0.00  0.00    +0.024 C 
ATOM     13  C   UNL     1      12.527 -10.105  30.897  0.00  0.00    +0.024 C 
ENDBRANCH   2  10
ENDBRANCH  11   6
TORSDOF 3
ENDMDL
