MODEL 1
REMARK VINA RESULT:      -3.7      0.000      0.000
REMARK  Name = 40777175
REMARK  6 active torsions:
REMARK  status: ('A' for Active; 'I' for Inactive)
REMARK    1  A    between atoms: N_3  and  C_18
REMARK    2  A    between atoms: N_4  and  C_15
REMARK    3  A    between atoms: N_6  and  C_23
REMARK    4  A    between atoms: C_8  and  C_14
REMARK    5  A    between atoms: C_9  and  C_15
REMARK    6  A    between atoms: C_17  and  C_20
REMARK                            x       y       z     vdW  Elec       q    Type
REMARK                         _______ _______ _______ _____ _____    ______ ____
ROOT
ATOM      2  N   UNL     1     -10.127  -8.327  15.419  0.00  0.00    -0.297 NA
ATOM      7  C   UNL     1      -9.227  -9.150  17.720  0.00  0.00    +0.002 C 
ATOM      8  C   UNL     1      -8.088  -8.491  16.895  0.00  0.00    +0.055 C 
ATOM      9  C   UNL     1     -10.535  -9.738  15.650  0.00  0.00    +0.074 C 
ATOM     10  C   UNL     1      -9.842 -10.307  16.906  0.00  0.00    +0.024 C 
ATOM     11  C   UNL     1     -10.328  -8.081  17.893  0.00  0.00    +0.019 C 
ATOM     12  C   UNL     1      -8.648  -8.211  15.471  0.00  0.00    +0.094 C 
ATOM     13  C   UNL     1     -10.693  -7.504  16.514  0.00  0.00    +0.085 C 
ENDROOT
BRANCH   8  14
ATOM      3  N   UNL     1      -6.323 -10.068  17.812  0.00  0.00    -0.270 N 
ATOM      5  N   UNL     1      -5.094 -10.568  17.595  0.00  0.00    -0.171 NA
ATOM     14  C   UNL     1      -6.733  -9.184  16.857  0.00  0.00    +0.044 A 
ATOM     16  C   UNL     1      -5.700  -9.099  15.956  0.00  0.00    +0.053 A 
ATOM     17  C   UNL     1      -4.719  -9.973  16.460  0.00  0.00    +0.093 A 
ATOM     18  C   UNL     1      -7.062 -10.490  18.979  0.00  0.00    +0.172 C 
BRANCH  17  20
ATOM     20  C   UNL     1      -3.431 -10.247  15.881  0.00  0.00    +0.002 A 
ATOM     21  C   UNL     1      -3.290 -10.311  14.494  0.00  0.00    +0.010 A 
ATOM     22  C   UNL     1      -2.323 -10.450  16.704  0.00  0.00    +0.010 A 
ATOM     24  C   UNL     1      -2.041 -10.578  13.932  0.00  0.00    +0.001 A 
ATOM     25  C   UNL     1      -1.075 -10.716  16.142  0.00  0.00    +0.001 A 
ATOM     26  C   UNL     1      -0.934 -10.780  14.756  0.00  0.00    +0.000 A 
ENDBRANCH  17  20
ENDBRANCH   8  14
BRANCH   9  15
ATOM     15  C   UNL     1     -10.305 -10.620  14.421  0.00  0.00    +0.124 C 
BRANCH  15   4
ATOM      1  O   UNL     1      -7.579 -10.781  13.559  0.00  0.00    -0.253 OA
ATOM      4  N   UNL     1      -9.688  -9.859  13.348  0.00  0.00    -0.298 N 
ATOM      6  N   UNL     1      -8.036  -9.147  11.936  0.00  0.00    -0.269 N 
ATOM     19  C   UNL     1      -8.346 -10.004  12.996  0.00  0.00    +0.304 C 
ATOM     32  H   UNL     1     -10.259  -9.191  12.841  0.00  0.00    +0.150 HD
ATOM     33  H   UNL     1      -8.790  -8.564  11.583  0.00  0.00    +0.156 HD
BRANCH   6  23
ATOM     23  C   UNL     1      -6.790  -8.988  11.286  0.00  0.00    +0.035 A 
ATOM     27  C   UNL     1      -6.719  -8.293  10.078  0.00  0.00    +0.023 A 
ATOM     28  C   UNL     1      -5.634  -9.525  11.850  0.00  0.00    +0.023 A 
ATOM     29  C   UNL     1      -5.490  -8.135   9.436  0.00  0.00    +0.002 A 
ATOM     30  C   UNL     1      -4.405  -9.367  11.209  0.00  0.00    +0.002 A 
ATOM     31  C   UNL     1      -4.334  -8.672  10.001  0.00  0.00    +0.000 A 
ENDBRANCH   6  23
ENDBRANCH  15   4
ENDBRANCH   9  15
TORSDOF 5
ENDMDL
