MODEL 1
REMARK VINA RESULT:       0.6      0.000      0.000
REMARK  Name = 45783657
REMARK  6 active torsions:
REMARK  status: ('A' for Active; 'I' for Inactive)
REMARK    1  A    between atoms: N_2  and  C_13
REMARK    2  A    between atoms: N_6  and  C_26
REMARK    3  A    between atoms: C_9  and  C_14
REMARK    4  A    between atoms: C_13  and  C_15
REMARK    5  A    between atoms: C_18  and  C_21
REMARK    6  A    between atoms: C_22  and  C_27
REMARK                            x       y       z     vdW  Elec       q    Type
REMARK                         _______ _______ _______ _____ _____    ______ ____
ROOT
ATOM      1  O   UNL     1      -3.504   2.430  22.290  0.00  0.00    -0.336 OA
ATOM      3  N   UNL     1      -2.348   2.048  24.171  0.00  0.00    -0.190 NA
ATOM      4  N   UNL     1      -2.247   1.962  21.887  0.00  0.00    -0.056 NA
ATOM     14  C   UNL     1      -3.479   2.450  23.648  0.00  0.00    +0.245 A 
ATOM     18  C   UNL     1      -1.624   1.760  23.051  0.00  0.00    +0.204 A 
ENDROOT
BRANCH  18  21
ATOM      5  N   UNL     1       2.005   1.614  23.852  0.00  0.00    -0.237 NA
ATOM     21  C   UNL     1      -0.277   1.271  23.131  0.00  0.00    +0.041 A 
ATOM     23  C   UNL     1       0.071   0.038  22.592  0.00  0.00    +0.017 A 
ATOM     24  C   UNL     1       0.718   2.015  23.744  0.00  0.00    +0.124 A 
ATOM     25  C   UNL     1       1.385  -0.409  22.683  0.00  0.00    +0.047 A 
ATOM     26  C   UNL     1       2.306   0.410  23.317  0.00  0.00    +0.139 A 
BRANCH  26   6
ATOM      6  N   UNL     1       3.617  -0.030  23.411  0.00  0.00    -0.290 N 
ATOM      7  N   UNL     1       5.335  -1.386  23.787  0.00  0.00    -0.244 NA
ATOM     28  C   UNL     1       4.738   0.701  23.136  0.00  0.00    +0.114 A 
ATOM     29  C   UNL     1       4.025  -1.276  23.798  0.00  0.00    +0.205 A 
ATOM     30  C   UNL     1       5.785  -0.157  23.375  0.00  0.00    +0.130 A 
ENDBRANCH  26   6
ENDBRANCH  18  21
BRANCH  14   9
ATOM      2  N   UNL     1      -4.884   2.374  25.701  0.00  0.00    -0.287 NA
ATOM      9  C   UNL     1      -4.741   2.924  24.338  0.00  0.00    +0.146 C 
ATOM     10  C   UNL     1      -4.777   4.452  24.529  0.00  0.00    +0.030 C 
ATOM     11  C   UNL     1      -5.004   4.662  26.019  0.00  0.00    +0.017 C 
ATOM     12  C   UNL     1      -5.640   3.363  26.470  0.00  0.00    +0.085 C 
BRANCH   2  13
ATOM     13  C   UNL     1      -5.516   1.060  25.727  0.00  0.00    +0.120 C 
BRANCH  13  15
ATOM     15  C   UNL     1      -4.582  -0.021  25.254  0.00  0.00    -0.033 A 
ATOM     16  C   UNL     1      -4.823  -0.671  24.043  0.00  0.00    +0.006 A 
ATOM     17  C   UNL     1      -3.474  -0.372  26.025  0.00  0.00    +0.006 A 
ATOM     19  C   UNL     1      -3.956  -1.672  23.605  0.00  0.00    +0.019 A 
ATOM     20  C   UNL     1      -2.608  -1.375  25.587  0.00  0.00    +0.019 A 
ATOM     22  C   UNL     1      -2.850  -2.024  24.377  0.00  0.00    +0.052 A 
BRANCH  22  27
ATOM      8  N   UNL     1      -1.242  -3.884  23.562  0.00  0.00    -0.191 NA
ATOM     27  C   UNL     1      -1.962  -3.051  23.927  0.00  0.00    +0.099 C 
ENDBRANCH  22  27
ENDBRANCH  13  15
ENDBRANCH   2  13
ENDBRANCH  14   9
TORSDOF 6
ENDMDL
