MODEL 1
REMARK VINA RESULT:       8.5      0.000      0.000
REMARK  Name = 11941473
REMARK  8 active torsions:
REMARK  status: ('A' for Active; 'I' for Inactive)
REMARK    1  A    between atoms: O_5  and  C_27
REMARK    2  A    between atoms: O_5  and  C_33
REMARK    3  A    between atoms: O_6  and  C_29
REMARK    4  A    between atoms: N_9  and  C_11
REMARK    5  A    between atoms: C_19  and  C_22
REMARK    6  A    between atoms: C_22  and  C_25
REMARK    7  A    between atoms: C_23  and  C_26
REMARK    8  A    between atoms: C_25  and  C_29
REMARK                            x       y       z     vdW  Elec       q    Type
REMARK                         _______ _______ _______ _____ _____    ______ ____
ROOT
ATOM      2  O   UNL     1      -5.091  -0.477  26.036  0.00  0.00    -0.273 OA
ATOM      3  O   UNL     1      -2.438   1.474  21.922  0.00  0.00    -0.270 OA
ATOM      8  N   UNL     1      -3.659   1.552  23.870  0.00  0.00    -0.284 N 
ATOM     10  N   UNL     1      -2.975  -0.918  25.315  0.00  0.00    -0.283 N 
ATOM     11  C   UNL     1      -4.953   2.317  25.695  0.00  0.00    +0.104 C 
ATOM     12  C   UNL     1      -3.777   1.410  25.309  0.00  0.00    +0.183 C 
ATOM     13  C   UNL     1      -5.803   2.359  24.424  0.00  0.00    +0.043 C 
ATOM     14  C   UNL     1      -4.770   2.306  23.309  0.00  0.00    +0.111 C 
ATOM     15  C   UNL     1      -4.034  -0.066  25.554  0.00  0.00    +0.240 C 
ATOM     16  C   UNL     1      -2.566   1.188  23.112  0.00  0.00    +0.249 C 
ATOM     17  C   UNL     1      -1.498   0.386  23.765  0.00  0.00    +0.059 A 
ATOM     18  C   UNL     1      -1.734  -0.630  24.706  0.00  0.00    +0.046 A 
ATOM     20  C   UNL     1      -0.199   0.571  23.259  0.00  0.00    +0.023 A 
ATOM     21  C   UNL     1      -0.674  -1.480  25.067  0.00  0.00    +0.024 A 
ATOM     23  C   UNL     1       0.850  -0.251  23.666  0.00  0.00    -0.014 A 
ATOM     24  C   UNL     1       0.611  -1.285  24.561  0.00  0.00    +0.010 A 
ATOM     35  H   UNL     1      -3.074  -1.854  25.701  0.00  0.00    +0.155 HD
ENDROOT
BRANCH  23  26
ATOM      1 CL   UNL     1       5.849   0.547  24.629  0.00  0.00    -0.084 Cl
ATOM     26  C   UNL     1       2.182  -0.043  23.138  0.00  0.00    +0.025 A 
ATOM     27  C   UNL     1       2.413  -0.017  21.762  0.00  0.00    +0.128 A 
ATOM     28  C   UNL     1       3.247   0.133  24.024  0.00  0.00    +0.032 A 
ATOM     30  C   UNL     1       3.703   0.185  21.273  0.00  0.00    +0.047 A 
ATOM     31  C   UNL     1       4.538   0.334  23.535  0.00  0.00    +0.042 A 
ATOM     32  C   UNL     1       4.766   0.359  22.160  0.00  0.00    +0.023 A 
BRANCH  27   5
ATOM      5  O   UNL     1       1.393  -0.184  20.873  0.00  0.00    -0.495 OA
ATOM     33  C   UNL     1       0.809  -1.483  20.795  0.00  0.00    +0.277 C 
ENDBRANCH  27   5
ENDBRANCH  23  26
BRANCH  11   9
ATOM      4  O   UNL     1      -2.260   3.092  26.418  0.00  0.00    -0.276 OA
ATOM      9  N   UNL     1      -4.490   3.637  26.059  0.00  0.00    -0.310 N 
ATOM     19  C   UNL     1      -3.173   3.914  26.391  0.00  0.00    +0.214 C 
ATOM     34  H   UNL     1      -5.156   4.405  26.019  0.00  0.00    +0.149 HD
BRANCH  19  22
ATOM     22  C   UNL     1      -2.978   5.381  26.731  0.00  0.00    +0.107 C 
BRANCH  22  25
ATOM     25  C   UNL     1      -2.266   6.148  25.622  0.00  0.00    +0.129 C 
BRANCH  25  29
ATOM      7  O   UNL     1      -0.244   5.125  24.736  0.00  0.00    -0.251 OA
ATOM     29  C   UNL     1      -1.462   5.233  24.728  0.00  0.00    +0.305 C 
BRANCH  29   6
ATOM      6  O   UNL     1      -2.265   4.523  23.894  0.00  0.00    -0.481 OA
ATOM     36  H   UNL     1      -2.083   3.560  23.943  0.00  0.00    +0.295 HD
ENDBRANCH  29   6
ENDBRANCH  25  29
ENDBRANCH  22  25
ENDBRANCH  19  22
ENDBRANCH  11   9
TORSDOF 7
ENDMDL
MODEL 2
REMARK VINA RESULT:      11.7      2.005      4.397
REMARK  Name = 11941473
REMARK  8 active torsions:
REMARK  status: ('A' for Active; 'I' for Inactive)
REMARK    1  A    between atoms: O_5  and  C_27
REMARK    2  A    between atoms: O_5  and  C_33
REMARK    3  A    between atoms: O_6  and  C_29
REMARK    4  A    between atoms: N_9  and  C_11
REMARK    5  A    between atoms: C_19  and  C_22
REMARK    6  A    between atoms: C_22  and  C_25
REMARK    7  A    between atoms: C_23  and  C_26
REMARK    8  A    between atoms: C_25  and  C_29
REMARK                            x       y       z     vdW  Elec       q    Type
REMARK                         _______ _______ _______ _____ _____    ______ ____
ROOT
ATOM      2  O   UNL     1      -2.847   6.179  24.655  0.00  0.00    -0.273 OA
ATOM      3  O   UNL     1      -0.196   2.409  27.207  0.00  0.00    -0.270 OA
ATOM      8  N   UNL     1      -2.028   3.413  26.247  0.00  0.00    -0.284 N 
ATOM     10  N   UNL     1      -0.954   5.061  24.059  0.00  0.00    -0.283 N 
ATOM     11  C   UNL     1      -4.246   3.927  25.607  0.00  0.00    +0.104 C 
ATOM     12  C   UNL     1      -2.807   3.808  25.088  0.00  0.00    +0.183 C 
ATOM     13  C   UNL     1      -4.065   4.249  27.091  0.00  0.00    +0.043 C 
ATOM     14  C   UNL     1      -2.816   3.467  27.470  0.00  0.00    +0.111 C 
ATOM     15  C   UNL     1      -2.210   5.125  24.625  0.00  0.00    +0.240 C 
ATOM     16  C   UNL     1      -0.757   2.881  26.219  0.00  0.00    +0.249 C 
ATOM     17  C   UNL     1      -0.017   2.905  24.930  0.00  0.00    +0.059 A 
ATOM     18  C   UNL     1      -0.067   3.964  24.008  0.00  0.00    +0.046 A 
ATOM     20  C   UNL     1       0.909   1.863  24.738  0.00  0.00    +0.023 A 
ATOM     21  C   UNL     1       0.858   3.985  22.949  0.00  0.00    +0.024 A 
ATOM     23  C   UNL     1       1.786   1.878  23.655  0.00  0.00    -0.014 A 
ATOM     24  C   UNL     1       1.770   2.945  22.767  0.00  0.00    +0.010 A 
ATOM     35  H   UNL     1      -0.666   5.889  23.544  0.00  0.00    +0.155 HD
ENDROOT
BRANCH  23  26
ATOM      1 CL   UNL     1       6.700   0.326  23.639  0.00  0.00    -0.084 Cl
ATOM     26  C   UNL     1       2.728   0.795  23.470  0.00  0.00    +0.025 A 
ATOM     27  C   UNL     1       2.291  -0.490  23.144  0.00  0.00    +0.128 A 
ATOM     28  C   UNL     1       4.094   1.046  23.621  0.00  0.00    +0.032 A 
ATOM     30  C   UNL     1       3.214  -1.520  22.970  0.00  0.00    +0.047 A 
ATOM     31  C   UNL     1       5.017   0.015  23.448  0.00  0.00    +0.042 A 
ATOM     32  C   UNL     1       4.578  -1.268  23.123  0.00  0.00    +0.023 A 
BRANCH  27   5
ATOM      5  O   UNL     1       0.964  -0.764  22.989  0.00  0.00    -0.495 OA
ATOM     33  C   UNL     1       0.232  -1.102  24.164  0.00  0.00    +0.277 C 
ENDBRANCH  27   5
ENDBRANCH  23  26
BRANCH  11   9
ATOM      4  O   UNL     1      -3.402   1.620  24.076  0.00  0.00    -0.276 OA
ATOM      9  N   UNL     1      -4.965   2.686  25.424  0.00  0.00    -0.310 N 
ATOM     19  C   UNL     1      -4.478   1.631  24.669  0.00  0.00    +0.214 C 
ATOM     34  H   UNL     1      -5.847   2.568  25.917  0.00  0.00    +0.149 HD
BRANCH  19  22
ATOM     22  C   UNL     1      -5.446   0.461  24.653  0.00  0.00    +0.107 C 
BRANCH  22  25
ATOM     25  C   UNL     1      -4.834  -0.795  24.043  0.00  0.00    +0.129 C 
BRANCH  25  29
ATOM      7  O   UNL     1      -3.516  -1.048  26.073  0.00  0.00    -0.251 OA
ATOM     29  C   UNL     1      -3.914  -1.504  25.011  0.00  0.00    +0.305 C 
BRANCH  29   6
ATOM      6  O   UNL     1      -3.574  -2.739  24.558  0.00  0.00    -0.481 OA
ATOM     36  H   UNL     1      -3.758  -3.435  25.224  0.00  0.00    +0.295 HD
ENDBRANCH  29   6
ENDBRANCH  25  29
ENDBRANCH  22  25
ENDBRANCH  19  22
ENDBRANCH  11   9
TORSDOF 7
ENDMDL
