MODEL 1
REMARK VINA RESULT:       5.1      0.000      0.000
REMARK  Name = 45783676
REMARK  7 active torsions:
REMARK  status: ('A' for Active; 'I' for Inactive)
REMARK    1  A    between atoms: N_3  and  C_14
REMARK    2  A    between atoms: N_6  and  C_22
REMARK    3  A    between atoms: N_8  and  C_27
REMARK    4  A    between atoms: C_10  and  C_15
REMARK    5  A    between atoms: C_14  and  C_16
REMARK    6  A    between atoms: C_19  and  C_23
REMARK    7  A    between atoms: C_28  and  C_29
REMARK                            x       y       z     vdW  Elec       q    Type
REMARK                         _______ _______ _______ _____ _____    ______ ____
ROOT
ATOM      3  N   UNL     1      -5.040   2.479  25.389  0.00  0.00    -0.287 NA
ATOM     10  C   UNL     1      -4.840   3.061  24.047  0.00  0.00    +0.146 C 
ATOM     11  C   UNL     1      -4.908   4.583  24.266  0.00  0.00    +0.030 C 
ATOM     12  C   UNL     1      -5.210   4.758  25.748  0.00  0.00    +0.017 C 
ATOM     13  C   UNL     1      -5.846   3.441  26.141  0.00  0.00    +0.085 C 
ENDROOT
BRANCH  10  15
ATOM      1  O   UNL     1      -3.467   2.712  22.056  0.00  0.00    -0.336 OA
ATOM      4  N   UNL     1      -2.455   2.151  23.973  0.00  0.00    -0.190 NA
ATOM      5  N   UNL     1      -2.192   2.254  21.703  0.00  0.00    -0.056 NA
ATOM     15  C   UNL     1      -3.540   2.619  23.410  0.00  0.00    +0.245 A 
ATOM     19  C   UNL     1      -1.657   1.942  22.888  0.00  0.00    +0.204 A 
BRANCH  19  23
ATOM      7  N   UNL     1       1.918   1.681  23.879  0.00  0.00    -0.237 NA
ATOM     23  C   UNL     1      -0.327   1.419  23.020  0.00  0.00    +0.041 A 
ATOM     24  C   UNL     1       0.025   0.199  22.453  0.00  0.00    +0.017 A 
ATOM     25  C   UNL     1       0.648   2.115  23.718  0.00  0.00    +0.124 A 
ATOM     26  C   UNL     1       1.321  -0.281  22.598  0.00  0.00    +0.047 A 
ATOM     27  C   UNL     1       2.222   0.492  23.313  0.00  0.00    +0.139 A 
BRANCH  27   8
ATOM      8  N   UNL     1       3.516   0.017  23.461  0.00  0.00    -0.290 N 
ATOM      9  N   UNL     1       5.180  -1.390  23.895  0.00  0.00    -0.244 NA
ATOM     30  C   UNL     1       4.667   0.722  23.249  0.00  0.00    +0.114 A 
ATOM     31  C   UNL     1       3.875  -1.245  23.847  0.00  0.00    +0.205 A 
ATOM     32  C   UNL     1       5.680  -0.166  23.523  0.00  0.00    +0.130 A 
ENDBRANCH  27   8
ENDBRANCH  19  23
ENDBRANCH  10  15
BRANCH   3  14
ATOM     14  C   UNL     1      -5.653   1.157  25.358  0.00  0.00    +0.120 C 
BRANCH  14  16
ATOM     16  C   UNL     1      -4.622   0.064  25.258  0.00  0.00    -0.033 A 
ATOM     17  C   UNL     1      -4.666  -0.841  24.199  0.00  0.00    +0.007 A 
ATOM     18  C   UNL     1      -3.624  -0.044  26.226  0.00  0.00    +0.007 A 
ATOM     20  C   UNL     1      -3.713  -1.855  24.106  0.00  0.00    +0.023 A 
ATOM     21  C   UNL     1      -2.669  -1.057  26.135  0.00  0.00    +0.023 A 
ATOM     22  C   UNL     1      -2.714  -1.962  25.074  0.00  0.00    +0.033 A 
BRANCH  22   6
ATOM      2  O   UNL     1       0.246  -1.914  25.620  0.00  0.00    -0.276 OA
ATOM      6  N   UNL     1      -1.759  -2.976  24.982  0.00  0.00    -0.286 N 
ATOM     28  C   UNL     1      -0.386  -2.897  25.249  0.00  0.00    +0.214 C 
ATOM     29  C   UNL     1       0.303  -4.221  25.030  0.00  0.00    +0.109 C 
ATOM     33  H   UNL     1      -2.115  -3.882  24.684  0.00  0.00    +0.155 HD
ENDBRANCH  22   6
ENDBRANCH  14  16
ENDBRANCH   3  14
TORSDOF 6
ENDMDL
MODEL 2
REMARK VINA RESULT:       6.7      2.438      3.709
REMARK  Name = 45783676
REMARK  7 active torsions:
REMARK  status: ('A' for Active; 'I' for Inactive)
REMARK    1  A    between atoms: N_3  and  C_14
REMARK    2  A    between atoms: N_6  and  C_22
REMARK    3  A    between atoms: N_8  and  C_27
REMARK    4  A    between atoms: C_10  and  C_15
REMARK    5  A    between atoms: C_14  and  C_16
REMARK    6  A    between atoms: C_19  and  C_23
REMARK    7  A    between atoms: C_28  and  C_29
REMARK                            x       y       z     vdW  Elec       q    Type
REMARK                         _______ _______ _______ _____ _____    ______ ____
ROOT
ATOM      3  N   UNL     1      -4.893   3.274  24.881  0.00  0.00    -0.287 NA
ATOM     10  C   UNL     1      -4.344   1.949  25.233  0.00  0.00    +0.146 C 
ATOM     11  C   UNL     1      -5.515   0.972  25.024  0.00  0.00    +0.030 C 
ATOM     12  C   UNL     1      -6.693   1.845  24.614  0.00  0.00    +0.017 C 
ATOM     13  C   UNL     1      -6.329   3.213  25.155  0.00  0.00    +0.085 C 
ENDROOT
BRANCH  10  15
ATOM      1  O   UNL     1      -3.287   1.582  23.061  0.00  0.00    -0.336 OA
ATOM      4  N   UNL     1      -1.919   1.270  24.807  0.00  0.00    -0.190 NA
ATOM      5  N   UNL     1      -2.044   1.222  22.523  0.00  0.00    -0.056 NA
ATOM     15  C   UNL     1      -3.126   1.587  24.410  0.00  0.00    +0.245 A 
ATOM     19  C   UNL     1      -1.292   1.055  23.615  0.00  0.00    +0.204 A 
BRANCH  19  23
ATOM      7  N   UNL     1       2.417   1.332  23.576  0.00  0.00    -0.237 NA
ATOM     23  C   UNL     1       0.090   0.674  23.550  0.00  0.00    +0.041 A 
ATOM     24  C   UNL     1       0.461  -0.658  23.401  0.00  0.00    +0.017 A 
ATOM     25  C   UNL     1       1.097   1.623  23.632  0.00  0.00    +0.124 A 
ATOM     26  C   UNL     1       1.809  -0.995  23.340  0.00  0.00    +0.047 A 
ATOM     27  C   UNL     1       2.738   0.028  23.430  0.00  0.00    +0.139 A 
BRANCH  27   8
ATOM      8  N   UNL     1       4.083  -0.304  23.370  0.00  0.00    -0.290 N 
ATOM      9  N   UNL     1       5.944  -1.497  23.594  0.00  0.00    -0.244 NA
ATOM     30  C   UNL     1       5.091   0.484  22.895  0.00  0.00    +0.114 A 
ATOM     31  C   UNL     1       4.643  -1.483  23.779  0.00  0.00    +0.205 A 
ATOM     32  C   UNL     1       6.230  -0.272  23.043  0.00  0.00    +0.130 A 
ENDBRANCH  27   8
ENDBRANCH  19  23
ENDBRANCH  10  15
BRANCH   3  14
ATOM     14  C   UNL     1      -4.246   4.371  25.589  0.00  0.00    +0.120 C 
BRANCH  14  16
ATOM     16  C   UNL     1      -2.843   4.019  26.008  0.00  0.00    -0.033 A 
ATOM     17  C   UNL     1      -2.620   3.363  27.218  0.00  0.00    +0.007 A 
ATOM     18  C   UNL     1      -1.766   4.350  25.184  0.00  0.00    +0.007 A 
ATOM     20  C   UNL     1      -1.321   3.038  27.606  0.00  0.00    +0.023 A 
ATOM     21  C   UNL     1      -0.466   4.024  25.572  0.00  0.00    +0.023 A 
ATOM     22  C   UNL     1      -0.244   3.368  26.783  0.00  0.00    +0.033 A 
BRANCH  22   6
ATOM      2  O   UNL     1       0.877   2.697  29.495  0.00  0.00    -0.276 OA
ATOM      6  N   UNL     1       1.056   3.042  27.171  0.00  0.00    -0.286 N 
ATOM     28  C   UNL     1       1.526   2.738  28.455  0.00  0.00    +0.214 C 
ATOM     29  C   UNL     1       3.004   2.439  28.455  0.00  0.00    +0.109 C 
ATOM     33  H   UNL     1       1.742   3.025  26.418  0.00  0.00    +0.155 HD
ENDBRANCH  22   6
ENDBRANCH  14  16
ENDBRANCH   3  14
TORSDOF 6
ENDMDL
