MODEL 1
REMARK VINA RESULT:       4.6      0.000      0.000
REMARK  Name = 11941658
REMARK  6 active torsions:
REMARK  status: ('A' for Active; 'I' for Inactive)
REMARK    1  A    between atoms: O_4  and  C_32
REMARK    2  A    between atoms: O_4  and  C_33
REMARK    3  A    between atoms: N_5  and  C_12
REMARK    4  A    between atoms: N_6  and  C_13
REMARK    5  A    between atoms: N_7  and  C_16
REMARK    6  A    between atoms: C_24  and  C_27
REMARK                            x       y       z     vdW  Elec       q    Type
REMARK                         _______ _______ _______ _____ _____    ______ ____
ROOT
ATOM      1  O   UNL     1      -3.209   3.314  23.531  0.00  0.00    -0.370 OA
ATOM      2  O   UNL     1      -5.256   2.963  25.859  0.00  0.00    -0.370 OA
ATOM     10  C   UNL     1      -3.825   2.859  25.784  0.00  0.00    +0.171 C 
ATOM     11  C   UNL     1      -3.487   2.237  24.443  0.00  0.00    +0.171 C 
ATOM     12  C   UNL     1      -3.202   4.235  25.718  0.00  0.00    +0.131 C 
ATOM     13  C   UNL     1      -4.755   1.522  24.037  0.00  0.00    +0.130 C 
ATOM     14  C   UNL     1      -3.287   4.561  24.238  0.00  0.00    +0.185 C 
ATOM     15  C   UNL     1      -5.835   2.366  24.690  0.00  0.00    +0.185 C 
ENDROOT
BRANCH  13   6
ATOM      6  N   UNL     1      -4.766   0.184  24.586  0.00  0.00    -0.306 N 
ATOM      8  N   UNL     1      -2.482  -0.072  24.254  0.00  0.00    -0.214 NA
ATOM      9  N   UNL     1      -3.808  -1.832  25.228  0.00  0.00    -0.223 NA
ATOM     23  C   UNL     1      -3.637  -0.607  24.693  0.00  0.00    +0.216 A 
ATOM     24  C   UNL     1      -1.401  -0.871  24.373  0.00  0.00    +0.076 A 
ATOM     25  C   UNL     1      -2.687  -2.576  25.318  0.00  0.00    +0.116 A 
ATOM     26  C   UNL     1      -1.444  -2.144  24.904  0.00  0.00    +0.048 A 
ATOM     35  H   UNL     1      -5.627  -0.192  24.963  0.00  0.00    +0.149 HD
BRANCH  24  27
ATOM     27  C   UNL     1      -0.162  -0.300  23.903  0.00  0.00    +0.001 A 
ATOM     28  C   UNL     1       0.726  -1.079  23.160  0.00  0.00    +0.013 A 
ATOM     29  C   UNL     1       0.150   1.029  24.192  0.00  0.00    +0.013 A 
ATOM     30  C   UNL     1       1.925  -0.529  22.706  0.00  0.00    +0.046 A 
ATOM     31  C   UNL     1       1.348   1.579  23.737  0.00  0.00    +0.046 A 
ATOM     32  C   UNL     1       2.236   0.800  22.995  0.00  0.00    +0.120 A 
BRANCH  32   4
ATOM      4  O   UNL     1       3.405   1.337  22.550  0.00  0.00    -0.495 OA
ATOM     33  C   UNL     1       4.613   0.731  23.006  0.00  0.00    +0.277 C 
ENDBRANCH  32   4
ENDBRANCH  24  27
ENDBRANCH  13   6
BRANCH  12   5
ATOM      3  O   UNL     1      -1.693   1.921  26.519  0.00  0.00    -0.253 OA
ATOM      5  N   UNL     1      -1.831   4.210  26.170  0.00  0.00    -0.292 N 
ATOM      7  N   UNL     1       0.134   3.292  26.933  0.00  0.00    -0.297 N 
ATOM     19  C   UNL     1      -1.177   3.038  26.539  0.00  0.00    +0.300 C 
ATOM     34  H   UNL     1      -1.340   5.093  26.285  0.00  0.00    +0.151 HD
ATOM     36  H   UNL     1       0.436   4.260  26.982  0.00  0.00    +0.151 HD
BRANCH   7  16
ATOM     16  C   UNL     1       1.045   2.257  27.369  0.00  0.00    +0.074 C 
ATOM     17  C   UNL     1       0.556   1.600  28.663  0.00  0.00    +0.022 C 
ATOM     18  C   UNL     1       2.467   2.805  27.527  0.00  0.00    +0.022 C 
ATOM     20  C   UNL     1       0.699   2.520  29.876  0.00  0.00    +0.002 C 
ATOM     21  C   UNL     1       2.608   3.723  28.741  0.00  0.00    +0.002 C 
ATOM     22  C   UNL     1       2.124   3.044  30.020  0.00  0.00    +0.000 C 
ENDBRANCH   7  16
ENDBRANCH  12   5
TORSDOF 5
ENDMDL
MODEL 2
REMARK VINA RESULT:       5.8      2.106      5.471
REMARK  Name = 11941658
REMARK  6 active torsions:
REMARK  status: ('A' for Active; 'I' for Inactive)
REMARK    1  A    between atoms: O_4  and  C_32
REMARK    2  A    between atoms: O_4  and  C_33
REMARK    3  A    between atoms: N_5  and  C_12
REMARK    4  A    between atoms: N_6  and  C_13
REMARK    5  A    between atoms: N_7  and  C_16
REMARK    6  A    between atoms: C_24  and  C_27
REMARK                            x       y       z     vdW  Elec       q    Type
REMARK                         _______ _______ _______ _____ _____    ______ ____
ROOT
ATOM      1  O   UNL     1      -2.528  -1.365  26.054  0.00  0.00    -0.370 OA
ATOM      2  O   UNL     1      -3.584  -1.358  23.118  0.00  0.00    -0.370 OA
ATOM     10  C   UNL     1      -2.490  -0.694  23.772  0.00  0.00    +0.171 C 
ATOM     11  C   UNL     1      -2.956  -0.319  25.164  0.00  0.00    +0.171 C 
ATOM     12  C   UNL     1      -1.355  -1.664  24.013  0.00  0.00    +0.131 C 
ATOM     13  C   UNL     1      -4.464  -0.307  25.059  0.00  0.00    +0.130 C 
ATOM     14  C   UNL     1      -1.768  -2.331  25.313  0.00  0.00    +0.185 C 
ATOM     15  C   UNL     1      -4.729  -1.344  23.982  0.00  0.00    +0.185 C 
ENDROOT
BRANCH  13   6
ATOM      6  N   UNL     1      -4.919   0.995  24.622  0.00  0.00    -0.306 N 
ATOM      8  N   UNL     1      -3.028   2.043  25.469  0.00  0.00    -0.214 NA
ATOM      9  N   UNL     1      -4.761   3.297  24.359  0.00  0.00    -0.223 NA
ATOM     23  C   UNL     1      -4.205   2.162  24.826  0.00  0.00    +0.216 A 
ATOM     24  C   UNL     1      -2.359   3.201  25.651  0.00  0.00    +0.076 A 
ATOM     25  C   UNL     1      -4.039   4.415  24.575  0.00  0.00    +0.116 A 
ATOM     26  C   UNL     1      -2.820   4.429  25.220  0.00  0.00    +0.048 A 
ATOM     35  H   UNL     1      -5.780   1.070  24.093  0.00  0.00    +0.149 HD
BRANCH  24  27
ATOM     27  C   UNL     1      -1.096   3.077  26.339  0.00  0.00    +0.001 A 
ATOM     28  C   UNL     1      -1.072   2.888  27.721  0.00  0.00    +0.013 A 
ATOM     29  C   UNL     1       0.099   3.148  25.624  0.00  0.00    +0.013 A 
ATOM     30  C   UNL     1       0.147   2.770  28.388  0.00  0.00    +0.046 A 
ATOM     31  C   UNL     1       1.319   3.029  26.290  0.00  0.00    +0.046 A 
ATOM     32  C   UNL     1       1.343   2.841  27.672  0.00  0.00    +0.120 A 
BRANCH  32   4
ATOM      4  O   UNL     1       2.532   2.723  28.323  0.00  0.00    -0.495 OA
ATOM     33  C   UNL     1       2.485   2.369  29.704  0.00  0.00    +0.277 C 
ENDBRANCH  32   4
ENDBRANCH  24  27
ENDBRANCH  13   6
BRANCH  12   5
ATOM      3  O   UNL     1       0.508  -1.024  21.918  0.00  0.00    -0.253 OA
ATOM      5  N   UNL     1      -0.097  -0.972  24.157  0.00  0.00    -0.292 N 
ATOM      7  N   UNL     1       1.891  -0.026  23.493  0.00  0.00    -0.297 N 
ATOM     19  C   UNL     1       0.746  -0.703  23.082  0.00  0.00    +0.300 C 
ATOM     34  H   UNL     1       0.220  -0.726  25.091  0.00  0.00    +0.151 HD
ATOM     36  H   UNL     1       2.022   0.125  24.488  0.00  0.00    +0.151 HD
BRANCH   7  16
ATOM     16  C   UNL     1       2.940   0.380  22.584  0.00  0.00    +0.074 C 
ATOM     17  C   UNL     1       3.809  -0.814  22.177  0.00  0.00    +0.022 C 
ATOM     18  C   UNL     1       3.789   1.503  23.189  0.00  0.00    +0.022 C 
ATOM     20  C   UNL     1       4.705  -1.302  23.316  0.00  0.00    +0.002 C 
ATOM     21  C   UNL     1       4.684   1.012  24.327  0.00  0.00    +0.002 C 
ATOM     22  C   UNL     1       5.547  -0.170  23.894  0.00  0.00    +0.000 C 
ENDBRANCH   7  16
ENDBRANCH  12   5
TORSDOF 5
ENDMDL
MODEL 3
REMARK VINA RESULT:       7.5      2.331      4.525
REMARK  Name = 11941658
REMARK  6 active torsions:
REMARK  status: ('A' for Active; 'I' for Inactive)
REMARK    1  A    between atoms: O_4  and  C_32
REMARK    2  A    between atoms: O_4  and  C_33
REMARK    3  A    between atoms: N_5  and  C_12
REMARK    4  A    between atoms: N_6  and  C_13
REMARK    5  A    between atoms: N_7  and  C_16
REMARK    6  A    between atoms: C_24  and  C_27
REMARK                            x       y       z     vdW  Elec       q    Type
REMARK                         _______ _______ _______ _____ _____    ______ ____
ROOT
ATOM      1  O   UNL     1      -0.977   4.317  24.035  0.00  0.00    -0.370 OA
ATOM      2  O   UNL     1      -2.272   3.791  26.824  0.00  0.00    -0.370 OA
ATOM     10  C   UNL     1      -1.834   2.925  25.763  0.00  0.00    +0.171 C 
ATOM     11  C   UNL     1      -2.161   3.616  24.454  0.00  0.00    +0.171 C 
ATOM     12  C   UNL     1      -0.326   2.822  25.758  0.00  0.00    +0.131 C 
ATOM     13  C   UNL     1      -3.251   4.598  24.816  0.00  0.00    +0.130 C 
ATOM     14  C   UNL     1       0.082   4.051  24.966  0.00  0.00    +0.185 C 
ATOM     15  C   UNL     1      -2.928   4.936  26.260  0.00  0.00    +0.185 C 
ENDROOT
BRANCH  13   6
ATOM      6  N   UNL     1      -4.544   3.956  24.729  0.00  0.00    -0.306 N 
ATOM      8  N   UNL     1      -3.607   1.837  24.860  0.00  0.00    -0.214 NA
ATOM      9  N   UNL     1      -5.989   2.139  24.663  0.00  0.00    -0.223 NA
ATOM     23  C   UNL     1      -4.720   2.585  24.751  0.00  0.00    +0.216 A 
ATOM     24  C   UNL     1      -3.815   0.504  24.879  0.00  0.00    +0.076 A 
ATOM     25  C   UNL     1      -6.124   0.798  24.688  0.00  0.00    +0.116 A 
ATOM     26  C   UNL     1      -5.064  -0.078  24.796  0.00  0.00    +0.048 A 
ATOM     35  H   UNL     1      -5.382   4.527  24.700  0.00  0.00    +0.149 HD
BRANCH  24  27
ATOM     27  C   UNL     1      -2.623  -0.302  24.997  0.00  0.00    +0.001 A 
ATOM     28  C   UNL     1      -2.023  -0.478  26.244  0.00  0.00    +0.013 A 
ATOM     29  C   UNL     1      -2.071  -0.903  23.866  0.00  0.00    +0.013 A 
ATOM     30  C   UNL     1      -0.869  -1.254  26.360  0.00  0.00    +0.046 A 
ATOM     31  C   UNL     1      -0.918  -1.680  23.981  0.00  0.00    +0.046 A 
ATOM     32  C   UNL     1      -0.317  -1.855  25.228  0.00  0.00    +0.120 A 
BRANCH  32   4
ATOM      4  O   UNL     1       0.806  -2.615  25.341  0.00  0.00    -0.495 OA
ATOM     33  C   UNL     1       0.627  -3.998  25.644  0.00  0.00    +0.277 C 
ENDBRANCH  32   4
ENDBRANCH  24  27
ENDBRANCH  13   6
BRANCH  12   5
ATOM      3  O   UNL     1       1.553   2.614  23.592  0.00  0.00    -0.253 OA
ATOM      5  N   UNL     1       0.112   1.611  25.108  0.00  0.00    -0.292 N 
ATOM      7  N   UNL     1       1.282   0.309  23.615  0.00  0.00    -0.297 N 
ATOM     19  C   UNL     1       1.031   1.604  24.061  0.00  0.00    +0.300 C 
ATOM     34  H   UNL     1      -0.313   0.729  25.380  0.00  0.00    +0.151 HD
ATOM     36  H   UNL     1       0.742  -0.447  24.025  0.00  0.00    +0.151 HD
BRANCH   7  16
ATOM     16  C   UNL     1       2.196   0.006  22.536  0.00  0.00    +0.074 C 
ATOM     17  C   UNL     1       2.771  -1.406  22.682  0.00  0.00    +0.022 C 
ATOM     18  C   UNL     1       3.310   1.054  22.448  0.00  0.00    +0.022 C 
ATOM     20  C   UNL     1       3.772  -1.515  23.832  0.00  0.00    +0.002 C 
ATOM     21  C   UNL     1       4.310   0.942  23.599  0.00  0.00    +0.002 C 
ATOM     22  C   UNL     1       4.878  -0.470  23.717  0.00  0.00    +0.000 C 
ENDBRANCH   7  16
ENDBRANCH  12   5
TORSDOF 5
ENDMDL
