MODEL 1
REMARK VINA RESULT:      -3.0      0.000      0.000
REMARK  Name = 26743954
REMARK  5 active torsions:
REMARK  status: ('A' for Active; 'I' for Inactive)
REMARK    1  A    between atoms: O_1  and  C_13
REMARK    2  A    between atoms: N_4  and  C_9
REMARK    3  A    between atoms: C_10  and  C_18
REMARK    4  A    between atoms: C_19  and  C_21
REMARK    5  A    between atoms: C_20  and  C_22
REMARK                            x       y       z     vdW  Elec       q    Type
REMARK                         _______ _______ _______ _____ _____    ______ ____
ROOT
ATOM      4  N   UNL     1      -1.405   2.308  25.429  0.00  0.00    -0.286 NA
ATOM     10  C   UNL     1      -1.047   2.408  23.998  0.00  0.00    +0.149 C 
ATOM     11  C   UNL     1      -1.902   3.624  25.823  0.00  0.00    +0.116 C 
ATOM     12  C   UNL     1      -0.685   3.890  23.786  0.00  0.00    +0.061 C 
ATOM     13  C   UNL     1      -0.913   4.549  25.140  0.00  0.00    +0.130 C 
ENDROOT
BRANCH   4   9
ATOM      3  O   UNL     1      -3.120  -3.541  24.623  0.00  0.00    -0.276 OA
ATOM      5  N   UNL     1      -3.570  -1.300  25.035  0.00  0.00    -0.302 N 
ATOM      9  C   UNL     1      -2.370   1.249  25.707  0.00  0.00    +0.060 C 
ATOM     14  C   UNL     1      -1.640  -0.076  25.960  0.00  0.00    +0.038 C 
ATOM     15  C   UNL     1      -3.348   1.105  24.533  0.00  0.00    +0.038 C 
ATOM     16  C   UNL     1      -2.635  -1.218  26.159  0.00  0.00    +0.109 C 
ATOM     17  C   UNL     1      -4.310  -0.061  24.760  0.00  0.00    +0.109 C 
ATOM     19  C   UNL     1      -3.728  -2.503  24.348  0.00  0.00    +0.212 C 
ATOM     21  C   UNL     1      -4.708  -2.504  23.202  0.00  0.00    +0.109 C 
ENDBRANCH   4   9
BRANCH  10  18
ATOM      2  O   UNL     1      -0.250   0.438  22.791  0.00  0.00    -0.336 OA
ATOM      6  N   UNL     1       1.340   1.501  23.955  0.00  0.00    -0.190 NA
ATOM      7  N   UNL     1       0.934  -0.280  22.579  0.00  0.00    -0.056 NA
ATOM     18  C   UNL     1       0.077   1.470  23.611  0.00  0.00    +0.245 A 
ATOM     20  C   UNL     1       1.825   0.409  23.297  0.00  0.00    +0.204 A 
BRANCH  20  22
ATOM      8  N   UNL     1       4.861  -1.667  23.849  0.00  0.00    -0.263 NA
ATOM     22  C   UNL     1       3.207   0.033  23.378  0.00  0.00    +0.041 A 
ATOM     23  C   UNL     1       4.216   0.943  23.084  0.00  0.00    +0.014 A 
ATOM     24  C   UNL     1       3.579  -1.248  23.752  0.00  0.00    +0.122 A 
ATOM     25  C   UNL     1       5.546   0.550  23.172  0.00  0.00    +0.020 A 
ATOM     26  C   UNL     1       5.814  -0.754  23.556  0.00  0.00    +0.111 A 
ENDBRANCH  20  22
ENDBRANCH  10  18
BRANCH  13   1
ATOM      1  O   UNL     1      -1.439   5.853  24.980  0.00  0.00    -0.390 OA
ATOM     27  H   UNL     1      -0.686   6.467  24.927  0.00  0.00    +0.210 HD
ENDBRANCH  13   1
TORSDOF 4
ENDMDL
MODEL 2
REMARK VINA RESULT:      -1.6      1.337      4.561
REMARK  Name = 26743954
REMARK  5 active torsions:
REMARK  status: ('A' for Active; 'I' for Inactive)
REMARK    1  A    between atoms: O_1  and  C_13
REMARK    2  A    between atoms: N_4  and  C_9
REMARK    3  A    between atoms: C_10  and  C_18
REMARK    4  A    between atoms: C_19  and  C_21
REMARK    5  A    between atoms: C_20  and  C_22
REMARK                            x       y       z     vdW  Elec       q    Type
REMARK                         _______ _______ _______ _____ _____    ______ ____
ROOT
ATOM      4  N   UNL     1      -2.883  -0.574  23.537  0.00  0.00    -0.286 NA
ATOM     10  C   UNL     1      -1.740  -0.887  24.420  0.00  0.00    +0.149 C 
ATOM     11  C   UNL     1      -3.974  -1.458  23.943  0.00  0.00    +0.116 C 
ATOM     12  C   UNL     1      -1.945  -2.361  24.820  0.00  0.00    +0.061 C 
ATOM     13  C   UNL     1      -3.249  -2.774  24.150  0.00  0.00    +0.130 C 
ENDROOT
BRANCH   4   9
ATOM      3  O   UNL     1      -1.606   5.148  25.391  0.00  0.00    -0.276 OA
ATOM      5  N   UNL     1      -3.082   3.461  24.779  0.00  0.00    -0.302 N 
ATOM      9  C   UNL     1      -3.272   0.833  23.577  0.00  0.00    +0.060 C 
ATOM     14  C   UNL     1      -2.041   1.725  23.370  0.00  0.00    +0.038 C 
ATOM     15  C   UNL     1      -3.948   1.155  24.916  0.00  0.00    +0.038 C 
ATOM     16  C   UNL     1      -2.410   3.201  23.504  0.00  0.00    +0.109 C 
ATOM     17  C   UNL     1      -4.279   2.644  25.020  0.00  0.00    +0.109 C 
ATOM     19  C   UNL     1      -2.595   4.449  25.633  0.00  0.00    +0.212 C 
ATOM     21  C   UNL     1      -3.341   4.653  26.927  0.00  0.00    +0.109 C 
ENDBRANCH   4   9
BRANCH  10  18
ATOM      2  O   UNL     1      -0.429  -0.385  22.421  0.00  0.00    -0.336 OA
ATOM      6  N   UNL     1       0.797  -0.640  24.277  0.00  0.00    -0.190 NA
ATOM      7  N   UNL     1       0.904  -0.195  22.036  0.00  0.00    -0.056 NA
ATOM     18  C   UNL     1      -0.403  -0.641  23.754  0.00  0.00    +0.245 A 
ATOM     20  C   UNL     1       1.566  -0.361  23.185  0.00  0.00    +0.204 A 
BRANCH  20  22
ATOM      8  N   UNL     1       5.107  -1.270  23.869  0.00  0.00    -0.263 NA
ATOM     22  C   UNL     1       2.994  -0.255  23.276  0.00  0.00    +0.041 A 
ATOM     23  C   UNL     1       3.652   0.905  22.884  0.00  0.00    +0.014 A 
ATOM     24  C   UNL     1       3.759  -1.304  23.757  0.00  0.00    +0.122 A 
ATOM     25  C   UNL     1       5.036   0.979  22.984  0.00  0.00    +0.020 A 
ATOM     26  C   UNL     1       5.711  -0.125  23.479  0.00  0.00    +0.111 A 
ENDBRANCH  20  22
ENDBRANCH  10  18
BRANCH  13   1
ATOM      1  O   UNL     1      -3.983  -3.652  24.981  0.00  0.00    -0.390 OA
ATOM     27  H   UNL     1      -4.823  -3.846  24.531  0.00  0.00    +0.210 HD
ENDBRANCH  13   1
TORSDOF 4
ENDMDL
MODEL 3
REMARK VINA RESULT:      -1.1      1.281      4.741
REMARK  Name = 26743954
REMARK  5 active torsions:
REMARK  status: ('A' for Active; 'I' for Inactive)
REMARK    1  A    between atoms: O_1  and  C_13
REMARK    2  A    between atoms: N_4  and  C_9
REMARK    3  A    between atoms: C_10  and  C_18
REMARK    4  A    between atoms: C_19  and  C_21
REMARK    5  A    between atoms: C_20  and  C_22
REMARK                            x       y       z     vdW  Elec       q    Type
REMARK                         _______ _______ _______ _____ _____    ______ ____
ROOT
ATOM      4  N   UNL     1      -2.843  -0.273  24.245  0.00  0.00    -0.286 NA
ATOM     10  C   UNL     1      -1.696  -1.091  24.692  0.00  0.00    +0.149 C 
ATOM     11  C   UNL     1      -4.033  -1.108  24.403  0.00  0.00    +0.116 C 
ATOM     12  C   UNL     1      -2.128  -2.548  24.435  0.00  0.00    +0.061 C 
ATOM     13  C   UNL     1      -3.546  -2.447  23.885  0.00  0.00    +0.130 C 
ENDROOT
BRANCH   4   9
ATOM      3  O   UNL     1      -2.850   5.871  24.028  0.00  0.00    -0.276 OA
ATOM      5  N   UNL     1      -2.500   3.848  25.114  0.00  0.00    -0.302 N 
ATOM      9  C   UNL     1      -2.961   0.993  24.962  0.00  0.00    +0.060 C 
ATOM     14  C   UNL     1      -3.792   1.987  24.141  0.00  0.00    +0.038 C 
ATOM     15  C   UNL     1      -1.567   1.568  25.247  0.00  0.00    +0.038 C 
ATOM     16  C   UNL     1      -3.847   3.350  24.830  0.00  0.00    +0.109 C 
ATOM     17  C   UNL     1      -1.665   2.941  25.913  0.00  0.00    +0.109 C 
ATOM     19  C   UNL     1      -2.117   5.112  24.667  0.00  0.00    +0.212 C 
ATOM     21  C   UNL     1      -0.713   5.550  24.999  0.00  0.00    +0.109 C 
ENDBRANCH   4   9
BRANCH  10  18
ATOM      2  O   UNL     1      -0.531  -0.217  22.730  0.00  0.00    -0.336 OA
ATOM      6  N   UNL     1       0.827  -0.837  24.399  0.00  0.00    -0.190 NA
ATOM      7  N   UNL     1       0.773   0.036  22.286  0.00  0.00    -0.056 NA
ATOM     18  C   UNL     1      -0.409  -0.728  23.982  0.00  0.00    +0.245 A 
ATOM     20  C   UNL     1       1.516  -0.355  23.325  0.00  0.00    +0.204 A 
BRANCH  20  22
ATOM      8  N   UNL     1       5.075  -1.306  23.841  0.00  0.00    -0.263 NA
ATOM     22  C   UNL     1       2.949  -0.277  23.321  0.00  0.00    +0.041 A 
ATOM     23  C   UNL     1       3.605   0.844  22.824  0.00  0.00    +0.014 A 
ATOM     24  C   UNL     1       3.723  -1.315  23.814  0.00  0.00    +0.122 A 
ATOM     25  C   UNL     1       4.994   0.891  22.835  0.00  0.00    +0.020 A 
ATOM     26  C   UNL     1       5.676  -0.199  23.350  0.00  0.00    +0.111 A 
ENDBRANCH  20  22
ENDBRANCH  10  18
BRANCH  13   1
ATOM      1  O   UNL     1      -4.343  -3.515  24.360  0.00  0.00    -0.390 OA
ATOM     27  H   UNL     1      -3.781  -4.307  24.393  0.00  0.00    +0.210 HD
ENDBRANCH  13   1
TORSDOF 4
ENDMDL
MODEL 4
REMARK VINA RESULT:      -1.1     18.068     19.442
REMARK  Name = 26743954
REMARK  5 active torsions:
REMARK  status: ('A' for Active; 'I' for Inactive)
REMARK    1  A    between atoms: O_1  and  C_13
REMARK    2  A    between atoms: N_4  and  C_9
REMARK    3  A    between atoms: C_10  and  C_18
REMARK    4  A    between atoms: C_19  and  C_21
REMARK    5  A    between atoms: C_20  and  C_22
REMARK                            x       y       z     vdW  Elec       q    Type
REMARK                         _______ _______ _______ _____ _____    ______ ____
ROOT
ATOM      4  N   UNL     1      15.666  -7.150  27.469  0.00  0.00    -0.286 NA
ATOM     10  C   UNL     1      17.030  -6.636  27.714  0.00  0.00    +0.149 C 
ATOM     11  C   UNL     1      15.545  -7.327  26.023  0.00  0.00    +0.116 C 
ATOM     12  C   UNL     1      17.405  -5.884  26.423  0.00  0.00    +0.061 C 
ATOM     13  C   UNL     1      16.210  -6.069  25.497  0.00  0.00    +0.130 C 
ENDROOT
BRANCH   4   9
ATOM      3  O   UNL     1      14.497  -9.871  32.856  0.00  0.00    -0.276 OA
ATOM      5  N   UNL     1      15.306  -9.874  30.679  0.00  0.00    -0.302 N 
ATOM      9  C   UNL     1      15.374  -8.380  28.200  0.00  0.00    +0.060 C 
ATOM     14  C   UNL     1      14.307  -8.115  29.269  0.00  0.00    +0.038 C 
ATOM     15  C   UNL     1      16.655  -8.926  28.844  0.00  0.00    +0.038 C 
ATOM     16  C   UNL     1      14.056  -9.366  30.110  0.00  0.00    +0.109 C 
ATOM     17  C   UNL     1      16.358 -10.161  29.694  0.00  0.00    +0.109 C 
ATOM     19  C   UNL     1      15.409 -10.086  32.053  0.00  0.00    +0.212 C 
ATOM     21  C   UNL     1      16.729 -10.609  32.560  0.00  0.00    +0.109 C 
ENDBRANCH   4   9
BRANCH  10  18
ATOM      2  O   UNL     1      17.376  -6.389  30.121  0.00  0.00    -0.336 OA
ATOM      6  N   UNL     1      16.956  -4.465  29.055  0.00  0.00    -0.190 NA
ATOM      7  N   UNL     1      17.399  -5.388  31.100  0.00  0.00    -0.056 NA
ATOM     18  C   UNL     1      17.110  -5.760  28.946  0.00  0.00    +0.245 A 
ATOM     20  C   UNL     1      17.143  -4.283  30.394  0.00  0.00    +0.204 A 
BRANCH  20  22
ATOM      8  N   UNL     1      17.353  -0.591  30.789  0.00  0.00    -0.263 NA
ATOM     22  C   UNL     1      17.069  -2.983  30.996  0.00  0.00    +0.041 A 
ATOM     23  C   UNL     1      16.661  -2.827  32.317  0.00  0.00    +0.014 A 
ATOM     24  C   UNL     1      17.400  -1.844  30.282  0.00  0.00    +0.122 A 
ATOM     25  C   UNL     1      16.600  -1.555  32.873  0.00  0.00    +0.020 A 
ATOM     26  C   UNL     1      16.953  -0.479  32.075  0.00  0.00    +0.111 A 
ENDBRANCH  20  22
ENDBRANCH  10  18
BRANCH  13   1
ATOM      1  O   UNL     1      16.633  -6.221  24.156  0.00  0.00    -0.390 OA
ATOM     27  H   UNL     1      16.649  -5.336  23.753  0.00  0.00    +0.210 HD
ENDBRANCH  13   1
TORSDOF 4
ENDMDL
MODEL 5
REMARK VINA RESULT:       0.5      1.906      4.542
REMARK  Name = 26743954
REMARK  5 active torsions:
REMARK  status: ('A' for Active; 'I' for Inactive)
REMARK    1  A    between atoms: O_1  and  C_13
REMARK    2  A    between atoms: N_4  and  C_9
REMARK    3  A    between atoms: C_10  and  C_18
REMARK    4  A    between atoms: C_19  and  C_21
REMARK    5  A    between atoms: C_20  and  C_22
REMARK                            x       y       z     vdW  Elec       q    Type
REMARK                         _______ _______ _______ _____ _____    ______ ____
ROOT
ATOM      4  N   UNL     1      -2.876  -0.430  24.216  0.00  0.00    -0.286 NA
ATOM     10  C   UNL     1      -1.712  -1.232  24.646  0.00  0.00    +0.149 C 
ATOM     11  C   UNL     1      -4.044  -1.301  24.332  0.00  0.00    +0.116 C 
ATOM     12  C   UNL     1      -2.102  -2.690  24.334  0.00  0.00    +0.061 C 
ATOM     13  C   UNL     1      -3.516  -2.608  23.773  0.00  0.00    +0.130 C 
ENDROOT
BRANCH   4   9
ATOM      3  O   UNL     1      -6.260   4.558  25.428  0.00  0.00    -0.276 OA
ATOM      5  N   UNL     1      -4.239   3.420  25.301  0.00  0.00    -0.302 N 
ATOM      9  C   UNL     1      -3.035   0.807  24.975  0.00  0.00    +0.060 C 
ATOM     14  C   UNL     1      -4.495   0.970  25.415  0.00  0.00    +0.038 C 
ATOM     15  C   UNL     1      -2.593   2.007  24.126  0.00  0.00    +0.038 C 
ATOM     16  C   UNL     1      -4.702   2.305  26.129  0.00  0.00    +0.109 C 
ATOM     17  C   UNL     1      -2.840   3.322  24.866  0.00  0.00    +0.109 C 
ATOM     19  C   UNL     1      -5.098   4.482  25.020  0.00  0.00    +0.212 C 
ATOM     21  C   UNL     1      -4.546   5.589  24.158  0.00  0.00    +0.109 C 
ENDBRANCH   4   9
BRANCH  10  18
ATOM      2  O   UNL     1      -0.554  -0.225  22.744  0.00  0.00    -0.336 OA
ATOM      6  N   UNL     1       0.808  -0.929  24.376  0.00  0.00    -0.190 NA
ATOM      7  N   UNL     1       0.747   0.071  22.320  0.00  0.00    -0.056 NA
ATOM     18  C   UNL     1      -0.428  -0.810  23.963  0.00  0.00    +0.245 A 
ATOM     20  C   UNL     1       1.494  -0.374  23.335  0.00  0.00    +0.204 A 
BRANCH  20  22
ATOM      8  N   UNL     1       5.062  -1.296  23.835  0.00  0.00    -0.263 NA
ATOM     22  C   UNL     1       2.925  -0.278  23.339  0.00  0.00    +0.041 A 
ATOM     23  C   UNL     1       3.568   0.866  22.880  0.00  0.00    +0.014 A 
ATOM     24  C   UNL     1       3.710  -1.321  23.802  0.00  0.00    +0.122 A 
ATOM     25  C   UNL     1       4.957   0.930  22.898  0.00  0.00    +0.020 A 
ATOM     26  C   UNL     1       5.651  -0.167  23.381  0.00  0.00    +0.111 A 
ENDBRANCH  20  22
ENDBRANCH  10  18
BRANCH  13   1
ATOM      1  O   UNL     1      -4.289  -3.712  24.203  0.00  0.00    -0.390 OA
ATOM     27  H   UNL     1      -3.725  -4.503  24.146  0.00  0.00    +0.210 HD
ENDBRANCH  13   1
TORSDOF 4
ENDMDL
