MODEL 1
REMARK VINA RESULT:      31.9      0.000      0.000
REMARK  Name = 45360619
REMARK  9 active torsions:
REMARK  status: ('A' for Active; 'I' for Inactive)
REMARK    1  A    between atoms: O_6  and  C_35
REMARK    2  A    between atoms: O_6  and  C_38
REMARK    3  A    between atoms: O_7  and  C_36
REMARK    4  A    between atoms: O_7  and  C_37
REMARK    5  A    between atoms: N_13  and  C_24
REMARK    6  A    between atoms: C_15  and  C_20
REMARK    7  A    between atoms: C_23  and  C_25
REMARK    8  A    between atoms: C_32  and  C_36
REMARK    9  A    between atoms: C_37  and  C_39
REMARK                            x       y       z     vdW  Elec       q    Type
REMARK                         _______ _______ _______ _____ _____    ______ ____
ROOT
ATOM      5  O   UNL     1       1.818  -0.135  21.613  0.00  0.00    -0.252 OA
ATOM      9  N   UNL     1       0.470  -0.709  23.416  0.00  0.00    -0.267 N 
ATOM     10  N   UNL     1      -1.097  -2.535  26.282  0.00  0.00    -0.347 N 
ATOM     11  N   UNL     1      -2.404  -3.441  24.713  0.00  0.00    -0.240 NA
ATOM     13  N   UNL     1       2.731  -0.107  23.749  0.00  0.00    -0.269 N 
ATOM     15  C   UNL     1      -0.746  -0.810  22.536  0.00  0.00    +0.172 C 
ATOM     16  C   UNL     1      -1.491  -2.165  22.726  0.00  0.00    +0.089 C 
ATOM     17  C   UNL     1       0.298  -0.929  24.882  0.00  0.00    +0.165 C 
ATOM     18  C   UNL     1      -1.554  -2.528  24.158  0.00  0.00    +0.066 A 
ATOM     19  C   UNL     1      -0.738  -1.957  25.102  0.00  0.00    +0.056 A 
ATOM     21  C   UNL     1       1.701  -0.310  22.829  0.00  0.00    +0.307 C 
ATOM     22  C   UNL     1      -2.104  -3.423  25.997  0.00  0.00    +0.197 A 
ATOM     40  H   UNL     1      -0.702  -2.350  27.194  0.00  0.00    +0.167 HD
ATOM     41  H   UNL     1       2.475   0.166  24.694  0.00  0.00    +0.156 HD
ENDROOT
BRANCH  13  24
ATOM     24  C   UNL     1       4.121  -0.284  23.540  0.00  0.00    +0.035 A 
ATOM     26  C   UNL     1       4.889   0.762  23.027  0.00  0.00    +0.024 A 
ATOM     27  C   UNL     1       4.723  -1.505  23.845  0.00  0.00    +0.024 A 
ATOM     30  C   UNL     1       6.256   0.587  22.819  0.00  0.00    +0.017 A 
ATOM     31  C   UNL     1       6.091  -1.680  23.637  0.00  0.00    +0.017 A 
ATOM     32  C   UNL     1       6.858  -0.635  23.125  0.00  0.00    +0.059 A 
BRANCH  32  36
ATOM      8  O   UNL     1       8.774  -1.521  22.016  0.00  0.00    -0.245 OA
ATOM     36  C   UNL     1       8.284  -0.816  22.908  0.00  0.00    +0.339 C 
BRANCH  36   7
ATOM      7  O   UNL     1       9.025  -0.107  23.815  0.00  0.00    -0.461 OA
BRANCH   7  37
ATOM     37  C   UNL     1       9.930   0.870  23.289  0.00  0.00    +0.229 C 
ATOM     39  C   UNL     1      10.009   2.037  24.250  0.00  0.00    +0.048 C 
ENDBRANCH   7  37
ENDBRANCH  36   7
ENDBRANCH  32  36
ENDBRANCH  13  24
BRANCH  15  20
ATOM      4  O   UNL     1      -1.894   1.094  21.493  0.00  0.00    -0.336 OA
ATOM     12  N   UNL     1      -2.085   1.030  23.723  0.00  0.00    -0.190 NA
ATOM     14  N   UNL     1      -2.666   2.207  21.850  0.00  0.00    -0.056 NA
ATOM     20  C   UNL     1      -1.595   0.455  22.653  0.00  0.00    +0.249 A 
ATOM     23  C   UNL     1      -2.734   2.100  23.180  0.00  0.00    +0.202 A 
BRANCH  23  25
ATOM     25  C   UNL     1      -3.444   3.043  23.994  0.00  0.00    +0.023 A 
ATOM     28  C   UNL     1      -4.733   2.750  24.440  0.00  0.00    +0.015 A 
ATOM     29  C   UNL     1      -2.846   4.255  24.340  0.00  0.00    +0.015 A 
ATOM     33  C   UNL     1      -5.423   3.668  25.231  0.00  0.00    +0.046 A 
ATOM     34  C   UNL     1      -3.536   5.173  25.131  0.00  0.00    +0.046 A 
ATOM     35  C   UNL     1      -4.824   4.880  25.577  0.00  0.00    +0.130 A 
BRANCH  35   6
ATOM      6  O   UNL     1      -5.497   5.776  26.349  0.00  0.00    -0.406 OA
BRANCH   6  38
ATOM      1  F   UNL     1      -7.661   5.156  26.168  0.00  0.00    -0.133 F 
ATOM      2  F   UNL     1      -7.226   7.244  26.644  0.00  0.00    -0.133 F 
ATOM      3  F   UNL     1      -6.831   6.455  24.619  0.00  0.00    -0.133 F 
ATOM     38  C   UNL     1      -6.801   6.175  25.939  0.00  0.00    +0.575 C 
ENDBRANCH   6  38
ENDBRANCH  35   6
ENDBRANCH  23  25
ENDBRANCH  15  20
TORSDOF 8
ENDMDL
MODEL 2
REMARK VINA RESULT:      32.4      1.673      2.257
REMARK  Name = 45360619
REMARK  9 active torsions:
REMARK  status: ('A' for Active; 'I' for Inactive)
REMARK    1  A    between atoms: O_6  and  C_35
REMARK    2  A    between atoms: O_6  and  C_38
REMARK    3  A    between atoms: O_7  and  C_36
REMARK    4  A    between atoms: O_7  and  C_37
REMARK    5  A    between atoms: N_13  and  C_24
REMARK    6  A    between atoms: C_15  and  C_20
REMARK    7  A    between atoms: C_23  and  C_25
REMARK    8  A    between atoms: C_32  and  C_36
REMARK    9  A    between atoms: C_37  and  C_39
REMARK                            x       y       z     vdW  Elec       q    Type
REMARK                         _______ _______ _______ _____ _____    ______ ____
ROOT
ATOM      5  O   UNL     1       3.273   0.914  21.953  0.00  0.00    -0.252 OA
ATOM      9  N   UNL     1       1.901  -0.187  23.471  0.00  0.00    -0.267 N 
ATOM     10  N   UNL     1       0.198  -2.825  25.505  0.00  0.00    -0.347 N 
ATOM     11  N   UNL     1      -1.221  -2.937  23.783  0.00  0.00    -0.240 NA
ATOM     13  N   UNL     1       4.217   0.036  23.885  0.00  0.00    -0.269 N 
ATOM     15  C   UNL     1       0.667   0.169  22.686  0.00  0.00    +0.172 C 
ATOM     16  C   UNL     1      -0.212  -1.082  22.386  0.00  0.00    +0.089 C 
ATOM     17  C   UNL     1       1.730  -0.937  24.750  0.00  0.00    +0.165 C 
ATOM     18  C   UNL     1      -0.289  -1.961  23.572  0.00  0.00    +0.066 A 
ATOM     19  C   UNL     1       0.597  -1.873  24.616  0.00  0.00    +0.056 A 
ATOM     21  C   UNL     1       3.157   0.296  23.014  0.00  0.00    +0.307 C 
ATOM     22  C   UNL     1      -0.900  -3.441  24.958  0.00  0.00    +0.197 A 
ATOM     40  H   UNL     1       0.625  -3.042  26.396  0.00  0.00    +0.167 HD
ATOM     41  H   UNL     1       4.006  -0.054  24.874  0.00  0.00    +0.156 HD
ENDROOT
BRANCH  13  24
ATOM     24  C   UNL     1       5.578  -0.171  23.548  0.00  0.00    +0.035 A 
ATOM     26  C   UNL     1       6.552   0.720  24.000  0.00  0.00    +0.024 A 
ATOM     27  C   UNL     1       5.944  -1.264  22.763  0.00  0.00    +0.024 A 
ATOM     30  C   UNL     1       7.891   0.517  23.668  0.00  0.00    +0.017 A 
ATOM     31  C   UNL     1       7.283  -1.467  22.430  0.00  0.00    +0.017 A 
ATOM     32  C   UNL     1       8.257  -0.578  22.882  0.00  0.00    +0.059 A 
BRANCH  32  36
ATOM      8  O   UNL     1      10.539   0.070  22.645  0.00  0.00    -0.245 OA
ATOM     36  C   UNL     1       9.653  -0.788  22.537  0.00  0.00    +0.339 C 
BRANCH  36   7
ATOM      7  O   UNL     1       9.872  -2.057  22.074  0.00  0.00    -0.461 OA
BRANCH   7  37
ATOM     37  C   UNL     1      11.230  -2.507  22.035  0.00  0.00    +0.229 C 
ATOM     39  C   UNL     1      11.309  -3.766  21.198  0.00  0.00    +0.048 C 
ENDBRANCH   7  37
ENDBRANCH  36   7
ENDBRANCH  32  36
ENDBRANCH  13  24
BRANCH  15  20
ATOM      4  O   UNL     1       0.714   2.466  23.552  0.00  0.00    -0.336 OA
ATOM     12  N   UNL     1      -1.295   1.484  23.691  0.00  0.00    -0.190 NA
ATOM     14  N   UNL     1      -0.142   3.411  24.132  0.00  0.00    -0.056 NA
ATOM     20  C   UNL     1      -0.043   1.362  23.323  0.00  0.00    +0.249 A 
ATOM     23  C   UNL     1      -1.307   2.758  24.182  0.00  0.00    +0.202 A 
BRANCH  23  25
ATOM     25  C   UNL     1      -2.501   3.349  24.711  0.00  0.00    +0.023 A 
ATOM     28  C   UNL     1      -2.422   4.246  25.777  0.00  0.00    +0.015 A 
ATOM     29  C   UNL     1      -3.742   3.027  24.162  0.00  0.00    +0.015 A 
ATOM     33  C   UNL     1      -3.584   4.820  26.293  0.00  0.00    +0.046 A 
ATOM     34  C   UNL     1      -4.904   3.601  24.677  0.00  0.00    +0.046 A 
ATOM     35  C   UNL     1      -4.825   4.497  25.743  0.00  0.00    +0.130 A 
BRANCH  35   6
ATOM      6  O   UNL     1      -5.959   5.057  26.246  0.00  0.00    -0.406 OA
BRANCH   6  38
ATOM      1  F   UNL     1      -6.007   6.291  24.356  0.00  0.00    -0.133 F 
ATOM      2  F   UNL     1      -7.766   5.090  24.844  0.00  0.00    -0.133 F 
ATOM      3  F   UNL     1      -7.292   6.902  26.015  0.00  0.00    -0.133 F 
ATOM     38  C   UNL     1      -6.772   5.834  25.373  0.00  0.00    +0.575 C 
ENDBRANCH   6  38
ENDBRANCH  35   6
ENDBRANCH  23  25
ENDBRANCH  15  20
TORSDOF 8
ENDMDL
MODEL 3
REMARK VINA RESULT:      35.0      3.819      5.699
REMARK  Name = 45360619
REMARK  9 active torsions:
REMARK  status: ('A' for Active; 'I' for Inactive)
REMARK    1  A    between atoms: O_6  and  C_35
REMARK    2  A    between atoms: O_6  and  C_38
REMARK    3  A    between atoms: O_7  and  C_36
REMARK    4  A    between atoms: O_7  and  C_37
REMARK    5  A    between atoms: N_13  and  C_24
REMARK    6  A    between atoms: C_15  and  C_20
REMARK    7  A    between atoms: C_23  and  C_25
REMARK    8  A    between atoms: C_32  and  C_36
REMARK    9  A    between atoms: C_37  and  C_39
REMARK                            x       y       z     vdW  Elec       q    Type
REMARK                         _______ _______ _______ _____ _____    ______ ____
ROOT
ATOM      5  O   UNL     1       4.893   3.513  21.666  0.00  0.00    -0.252 OA
ATOM      9  N   UNL     1       4.793   1.696  23.110  0.00  0.00    -0.267 N 
ATOM     10  N   UNL     1       5.564  -1.476  24.939  0.00  0.00    -0.347 N 
ATOM     11  N   UNL     1       4.491  -2.463  23.246  0.00  0.00    -0.240 NA
ATOM     13  N   UNL     1       6.330   3.451  23.490  0.00  0.00    -0.269 N 
ATOM     15  C   UNL     1       3.601   1.127  22.388  0.00  0.00    +0.172 C 
ATOM     16  C   UNL     1       3.817  -0.366  21.997  0.00  0.00    +0.089 C 
ATOM     17  C   UNL     1       5.292   0.979  24.321  0.00  0.00    +0.165 C 
ATOM     18  C   UNL     1       4.465  -1.105  23.102  0.00  0.00    +0.066 A 
ATOM     19  C   UNL     1       5.119  -0.474  24.130  0.00  0.00    +0.056 A 
ATOM     21  C   UNL     1       5.322   2.940  22.670  0.00  0.00    +0.307 C 
ATOM     22  C   UNL     1       5.163  -2.656  24.364  0.00  0.00    +0.197 A 
ATOM     40  H   UNL     1       6.089  -1.376  25.797  0.00  0.00    +0.167 HD
ATOM     41  H   UNL     1       6.318   3.192  24.472  0.00  0.00    +0.156 HD
ENDROOT
BRANCH  13  24
ATOM     24  C   UNL     1       7.421   4.269  23.106  0.00  0.00    +0.035 A 
ATOM     26  C   UNL     1       7.219   5.625  22.844  0.00  0.00    +0.024 A 
ATOM     27  C   UNL     1       8.697   3.719  22.989  0.00  0.00    +0.024 A 
ATOM     30  C   UNL     1       8.292   6.429  22.464  0.00  0.00    +0.017 A 
ATOM     31  C   UNL     1       9.772   4.524  22.609  0.00  0.00    +0.017 A 
ATOM     32  C   UNL     1       9.570   5.878  22.347  0.00  0.00    +0.059 A 
BRANCH  32  36
ATOM      8  O   UNL     1      10.966   7.808  22.471  0.00  0.00    -0.245 OA
ATOM     36  C   UNL     1      10.688   6.719  21.952  0.00  0.00    +0.339 C 
BRANCH  36   7
ATOM      7  O   UNL     1      11.403   6.156  20.928  0.00  0.00    -0.461 OA
BRANCH   7  37
ATOM     37  C   UNL     1      12.620   6.810  20.554  0.00  0.00    +0.229 C 
ATOM     39  C   UNL     1      12.633   7.005  19.053  0.00  0.00    +0.048 C 
ENDBRANCH   7  37
ENDBRANCH  36   7
ENDBRANCH  32  36
ENDBRANCH  13  24
BRANCH  15  20
ATOM      4  O   UNL     1       2.366   2.508  23.998  0.00  0.00    -0.336 OA
ATOM     12  N   UNL     1       1.149   0.857  23.096  0.00  0.00    -0.190 NA
ATOM     14  N   UNL     1       1.089   2.609  24.566  0.00  0.00    -0.056 NA
ATOM     20  C   UNL     1       2.315   1.453  23.145  0.00  0.00    +0.249 A 
ATOM     23  C   UNL     1       0.430   1.602  23.985  0.00  0.00    +0.202 A 
BRANCH  23  25
ATOM     25  C   UNL     1      -0.945   1.316  24.268  0.00  0.00    +0.023 A 
ATOM     28  C   UNL     1      -1.276   0.379  25.247  0.00  0.00    +0.015 A 
ATOM     29  C   UNL     1      -1.954   1.974  23.564  0.00  0.00    +0.015 A 
ATOM     33  C   UNL     1      -2.615   0.100  25.522  0.00  0.00    +0.046 A 
ATOM     34  C   UNL     1      -3.293   1.695  23.839  0.00  0.00    +0.046 A 
ATOM     35  C   UNL     1      -3.623   0.758  24.817  0.00  0.00    +0.130 A 
BRANCH  35   6
ATOM      6  O   UNL     1      -4.930   0.486  25.085  0.00  0.00    -0.406 OA
BRANCH   6  38
ATOM      1  F   UNL     1      -6.406   1.201  26.636  0.00  0.00    -0.133 F 
ATOM      2  F   UNL     1      -5.050   2.670  25.753  0.00  0.00    -0.133 F 
ATOM      3  F   UNL     1      -6.710   1.825  24.564  0.00  0.00    -0.133 F 
ATOM     38  C   UNL     1      -5.771   1.557  25.496  0.00  0.00    +0.575 C 
ENDBRANCH   6  38
ENDBRANCH  35   6
ENDBRANCH  23  25
ENDBRANCH  15  20
TORSDOF 8
ENDMDL
