MODEL 1
REMARK VINA RESULT:      -2.8      0.000      0.000
REMARK  Name = 71694024
REMARK  8 active torsions:
REMARK  status: ('A' for Active; 'I' for Inactive)
REMARK    1  A    between atoms: S_1  and  N_9
REMARK    2  A    between atoms: S_1  and  C_19
REMARK    3  A    between atoms: O_5  and  C_13
REMARK    4  A    between atoms: O_6  and  C_15
REMARK    5  A    between atoms: N_9  and  C_12
REMARK    6  A    between atoms: C_11  and  C_16
REMARK    7  A    between atoms: C_22  and  C_25
REMARK    8  A    between atoms: C_26  and  C_29
REMARK                            x       y       z     vdW  Elec       q    Type
REMARK                         _______ _______ _______ _____ _____    ______ ____
ROOT
ATOM     11  C   UNL     1      -4.279   2.610  24.338  0.00  0.00    +0.043 C 
ATOM     12  C   UNL     1      -3.332   3.422  25.264  0.00  0.00    +0.115 C 
ATOM     13  C   UNL     1      -4.241   4.342  26.091  0.00  0.00    +0.162 C 
ATOM     14  C   UNL     1      -5.704   3.005  24.761  0.00  0.00    +0.043 C 
ATOM     15  C   UNL     1      -5.529   4.426  25.276  0.00  0.00    +0.145 C 
ENDROOT
BRANCH  11  16
ATOM     16  C   UNL     1      -4.042   1.117  24.372  0.00  0.00    -0.043 A 
ATOM     17  C   UNL     1      -3.555   0.462  23.241  0.00  0.00    +0.004 A 
ATOM     18  C   UNL     1      -4.310   0.395  25.534  0.00  0.00    +0.004 A 
ATOM     20  C   UNL     1      -3.335  -0.915  23.273  0.00  0.00    +0.012 A 
ATOM     21  C   UNL     1      -4.092  -0.983  25.566  0.00  0.00    +0.012 A 
ATOM     22  C   UNL     1      -3.604  -1.637  24.435  0.00  0.00    +0.055 A 
BRANCH  22  25
ATOM      2  F   UNL     1      -3.410  -3.619  25.734  0.00  0.00    -0.166 F 
ATOM      3  F   UNL     1      -4.289  -3.828  23.756  0.00  0.00    -0.166 F 
ATOM      4  F   UNL     1      -2.157  -3.483  23.962  0.00  0.00    -0.166 F 
ATOM     25  C   UNL     1      -3.370  -3.111  24.468  0.00  0.00    +0.417 C 
ENDBRANCH  22  25
ENDBRANCH  11  16
BRANCH  13   5
ATOM      5  O   UNL     1      -4.481   3.711  27.348  0.00  0.00    -0.388 OA
ATOM     31  H   UNL     1      -5.026   2.923  27.179  0.00  0.00    +0.210 HD
ENDBRANCH  13   5
BRANCH  15   6
ATOM      6  O   UNL     1      -6.638   4.837  26.048  0.00  0.00    -0.389 OA
ATOM     32  H   UNL     1      -6.335   5.548  26.639  0.00  0.00    +0.210 HD
ENDBRANCH  15   6
BRANCH  12   9
ATOM      9  N   UNL     1      -2.420   4.249  24.431  0.00  0.00    -0.184 NA
ATOM     30  H   UNL     1      -2.814   4.711  23.603  0.00  0.00    +0.148 HD
BRANCH   9   1
ATOM      1  S   UNL     1      -0.739   4.133  24.645  0.00  0.00    +0.059 S 
ATOM      7  O   UNL     1      -0.385   4.620  25.965  0.00  0.00    -0.153 OA
ATOM      8  O   UNL     1      -0.080   4.667  23.469  0.00  0.00    -0.153 OA
BRANCH   1  19
ATOM     19  C   UNL     1      -0.490   2.382  24.626  0.00  0.00    +0.106 A 
ATOM     23  C   UNL     1       0.121   1.777  23.529  0.00  0.00    +0.047 A 
ATOM     24  C   UNL     1      -0.906   1.608  25.710  0.00  0.00    +0.028 A 
ATOM     26  C   UNL     1       0.316   0.395  23.514  0.00  0.00    +0.054 A 
ATOM     27  C   UNL     1      -0.711   0.227  25.695  0.00  0.00    +0.003 A 
ATOM     28  C   UNL     1      -0.100  -0.379  24.597  0.00  0.00    +0.019 A 
BRANCH  26  29
ATOM     10  N   UNL     1       1.451  -0.731  21.476  0.00  0.00    -0.191 NA
ATOM     29  C   UNL     1       0.942  -0.227  22.390  0.00  0.00    +0.099 C 
ENDBRANCH  26  29
ENDBRANCH   1  19
ENDBRANCH   9   1
ENDBRANCH  12   9
TORSDOF 8
ENDMDL
MODEL 2
REMARK VINA RESULT:      -2.6     18.630     20.469
REMARK  Name = 71694024
REMARK  8 active torsions:
REMARK  status: ('A' for Active; 'I' for Inactive)
REMARK    1  A    between atoms: S_1  and  N_9
REMARK    2  A    between atoms: S_1  and  C_19
REMARK    3  A    between atoms: O_5  and  C_13
REMARK    4  A    between atoms: O_6  and  C_15
REMARK    5  A    between atoms: N_9  and  C_12
REMARK    6  A    between atoms: C_11  and  C_16
REMARK    7  A    between atoms: C_22  and  C_25
REMARK    8  A    between atoms: C_26  and  C_29
REMARK                            x       y       z     vdW  Elec       q    Type
REMARK                         _______ _______ _______ _____ _____    ______ ____
ROOT
ATOM     11  C   UNL     1      13.821  -6.444  30.178  0.00  0.00    +0.043 C 
ATOM     12  C   UNL     1      14.484  -6.544  31.579  0.00  0.00    +0.115 C 
ATOM     13  C   UNL     1      13.332  -6.737  32.575  0.00  0.00    +0.162 C 
ATOM     14  C   UNL     1      12.325  -6.715  30.413  0.00  0.00    +0.043 C 
ATOM     15  C   UNL     1      12.104  -6.218  31.833  0.00  0.00    +0.145 C 
ENDROOT
BRANCH  11  16
ATOM     16  C   UNL     1      14.434  -7.359  29.141  0.00  0.00    -0.043 A 
ATOM     17  C   UNL     1      15.067  -6.820  28.021  0.00  0.00    +0.004 A 
ATOM     18  C   UNL     1      14.365  -8.743  29.304  0.00  0.00    +0.004 A 
ATOM     20  C   UNL     1      15.633  -7.663  27.066  0.00  0.00    +0.012 A 
ATOM     21  C   UNL     1      14.931  -9.587  28.348  0.00  0.00    +0.012 A 
ATOM     22  C   UNL     1      15.564  -9.047  27.228  0.00  0.00    +0.055 A 
BRANCH  22  25
ATOM      2  F   UNL     1      16.769  -9.263  25.190  0.00  0.00    -0.166 F 
ATOM      3  F   UNL     1      17.131 -10.778  26.707  0.00  0.00    -0.166 F 
ATOM      4  F   UNL     1      15.264 -10.777  25.604  0.00  0.00    -0.166 F 
ATOM     25  C   UNL     1      16.169  -9.949  26.205  0.00  0.00    +0.417 C 
ENDBRANCH  22  25
ENDBRANCH  11  16
BRANCH  13   5
ATOM      5  O   UNL     1      13.208  -8.134  32.839  0.00  0.00    -0.388 OA
ATOM     31  H   UNL     1      13.486  -8.608  32.037  0.00  0.00    +0.210 HD
ENDBRANCH  13   5
BRANCH  15   6
ATOM      6  O   UNL     1      10.893  -6.708  32.371  0.00  0.00    -0.389 OA
ATOM     32  H   UNL     1      11.073  -6.991  33.284  0.00  0.00    +0.210 HD
ENDBRANCH  15   6
BRANCH  12   9
ATOM      9  N   UNL     1      15.188  -5.270  31.881  0.00  0.00    -0.184 NA
ATOM     30  H   UNL     1      14.622  -4.416  31.957  0.00  0.00    +0.148 HD
BRANCH   9   1
ATOM      1  S   UNL     1      16.879  -5.183  31.744  0.00  0.00    +0.059 S 
ATOM      7  O   UNL     1      17.405  -6.498  31.429  0.00  0.00    -0.153 OA
ATOM      8  O   UNL     1      17.401  -4.439  32.873  0.00  0.00    -0.153 OA
BRANCH   1  19
ATOM     19  C   UNL     1      17.076  -4.160  30.315  0.00  0.00    +0.106 A 
ATOM     23  C   UNL     1      17.112  -4.735  29.045  0.00  0.00    +0.047 A 
ATOM     24  C   UNL     1      17.197  -2.778  30.459  0.00  0.00    +0.028 A 
ATOM     26  C   UNL     1      17.270  -3.928  27.918  0.00  0.00    +0.054 A 
ATOM     27  C   UNL     1      17.354  -1.971  29.333  0.00  0.00    +0.003 A 
ATOM     28  C   UNL     1      17.390  -2.545  28.063  0.00  0.00    +0.019 A 
BRANCH  26  29
ATOM     10  N   UNL     1      17.336  -4.992  25.558  0.00  0.00    -0.191 NA
ATOM     29  C   UNL     1      17.306  -4.515  26.617  0.00  0.00    +0.099 C 
ENDBRANCH  26  29
ENDBRANCH   1  19
ENDBRANCH   9   1
ENDBRANCH  12   9
TORSDOF 8
ENDMDL
MODEL 3
REMARK VINA RESULT:      -2.1     18.645     20.573
REMARK  Name = 71694024
REMARK  8 active torsions:
REMARK  status: ('A' for Active; 'I' for Inactive)
REMARK    1  A    between atoms: S_1  and  N_9
REMARK    2  A    between atoms: S_1  and  C_19
REMARK    3  A    between atoms: O_5  and  C_13
REMARK    4  A    between atoms: O_6  and  C_15
REMARK    5  A    between atoms: N_9  and  C_12
REMARK    6  A    between atoms: C_11  and  C_16
REMARK    7  A    between atoms: C_22  and  C_25
REMARK    8  A    between atoms: C_26  and  C_29
REMARK                            x       y       z     vdW  Elec       q    Type
REMARK                         _______ _______ _______ _____ _____    ______ ____
ROOT
ATOM     11  C   UNL     1      13.810  -6.651  29.883  0.00  0.00    +0.043 C 
ATOM     12  C   UNL     1      14.413  -6.937  31.287  0.00  0.00    +0.115 C 
ATOM     13  C   UNL     1      13.218  -7.239  32.202  0.00  0.00    +0.162 C 
ATOM     14  C   UNL     1      12.303  -6.928  30.021  0.00  0.00    +0.043 C 
ATOM     15  C   UNL     1      12.027  -6.612  31.482  0.00  0.00    +0.145 C 
ENDROOT
BRANCH  11  16
ATOM     16  C   UNL     1      14.458  -7.436  28.765  0.00  0.00    -0.043 A 
ATOM     17  C   UNL     1      14.975  -6.770  27.653  0.00  0.00    +0.004 A 
ATOM     18  C   UNL     1      14.538  -8.826  28.843  0.00  0.00    +0.004 A 
ATOM     20  C   UNL     1      15.574  -7.493  26.622  0.00  0.00    +0.012 A 
ATOM     21  C   UNL     1      15.136  -9.551  27.811  0.00  0.00    +0.012 A 
ATOM     22  C   UNL     1      15.653  -8.883  26.701  0.00  0.00    +0.055 A 
BRANCH  22  25
ATOM      2  F   UNL     1      16.714  -8.861  24.573  0.00  0.00    -0.166 F 
ATOM      3  F   UNL     1      17.394 -10.363  25.989  0.00  0.00    -0.166 F 
ATOM      4  F   UNL     1      15.464 -10.581  25.025  0.00  0.00    -0.166 F 
ATOM     25  C   UNL     1      16.292  -9.658  25.597  0.00  0.00    +0.417 C 
ENDBRANCH  22  25
ENDBRANCH  11  16
BRANCH  13   5
ATOM      5  O   UNL     1      13.070  -8.656  32.281  0.00  0.00    -0.388 OA
ATOM     31  H   UNL     1      12.299  -8.837  32.846  0.00  0.00    +0.210 HD
ENDBRANCH  13   5
BRANCH  15   6
ATOM      6  O   UNL     1      10.790  -7.150  31.904  0.00  0.00    -0.389 OA
ATOM     32  H   UNL     1      10.494  -7.774  31.220  0.00  0.00    +0.210 HD
ENDBRANCH  15   6
BRANCH  12   9
ATOM      9  N   UNL     1      15.114  -5.721  31.776  0.00  0.00    -0.184 NA
ATOM     30  H   UNL     1      14.542  -4.907  32.032  0.00  0.00    +0.148 HD
BRANCH   9   1
ATOM      1  S   UNL     1      16.794  -5.573  31.573  0.00  0.00    +0.059 S 
ATOM      7  O   UNL     1      17.269  -6.626  30.696  0.00  0.00    -0.153 OA
ATOM      8  O   UNL     1      17.405  -5.375  32.873  0.00  0.00    -0.153 OA
BRANCH   1  19
ATOM     19  C   UNL     1      16.922  -4.040  30.703  0.00  0.00    +0.106 A 
ATOM     23  C   UNL     1      16.976  -2.839  31.409  0.00  0.00    +0.047 A 
ATOM     24  C   UNL     1      16.969  -4.032  29.308  0.00  0.00    +0.028 A 
ATOM     26  C   UNL     1      17.076  -1.629  30.721  0.00  0.00    +0.054 A 
ATOM     27  C   UNL     1      17.069  -2.823  28.621  0.00  0.00    +0.003 A 
ATOM     28  C   UNL     1      17.123  -1.622  29.327  0.00  0.00    +0.019 A 
BRANCH  26  29
ATOM     10  N   UNL     1      17.176   0.603  32.031  0.00  0.00    -0.191 NA
ATOM     29  C   UNL     1      17.132  -0.398  31.444  0.00  0.00    +0.099 C 
ENDBRANCH  26  29
ENDBRANCH   1  19
ENDBRANCH   9   1
ENDBRANCH  12   9
TORSDOF 8
ENDMDL
MODEL 4
REMARK VINA RESULT:      -1.1      1.249      2.080
REMARK  Name = 71694024
REMARK  8 active torsions:
REMARK  status: ('A' for Active; 'I' for Inactive)
REMARK    1  A    between atoms: S_1  and  N_9
REMARK    2  A    between atoms: S_1  and  C_19
REMARK    3  A    between atoms: O_5  and  C_13
REMARK    4  A    between atoms: O_6  and  C_15
REMARK    5  A    between atoms: N_9  and  C_12
REMARK    6  A    between atoms: C_11  and  C_16
REMARK    7  A    between atoms: C_22  and  C_25
REMARK    8  A    between atoms: C_26  and  C_29
REMARK                            x       y       z     vdW  Elec       q    Type
REMARK                         _______ _______ _______ _____ _____    ______ ____
ROOT
ATOM     11  C   UNL     1      -4.275   2.638  24.289  0.00  0.00    +0.043 C 
ATOM     12  C   UNL     1      -3.290   3.434  25.189  0.00  0.00    +0.115 C 
ATOM     13  C   UNL     1      -4.161   4.371  26.037  0.00  0.00    +0.162 C 
ATOM     14  C   UNL     1      -5.681   3.060  24.748  0.00  0.00    +0.043 C 
ATOM     15  C   UNL     1      -5.468   4.478  25.255  0.00  0.00    +0.145 C 
ENDROOT
BRANCH  11  16
ATOM     16  C   UNL     1      -4.064   1.141  24.320  0.00  0.00    -0.043 A 
ATOM     17  C   UNL     1      -4.372   0.417  25.472  0.00  0.00    +0.004 A 
ATOM     18  C   UNL     1      -3.560   0.484  23.198  0.00  0.00    +0.004 A 
ATOM     20  C   UNL     1      -4.179  -0.964  25.501  0.00  0.00    +0.012 A 
ATOM     21  C   UNL     1      -3.366  -0.898  23.227  0.00  0.00    +0.012 A 
ATOM     22  C   UNL     1      -3.675  -1.621  24.378  0.00  0.00    +0.055 A 
BRANCH  22  25
ATOM      2  F   UNL     1      -2.264  -3.470  23.884  0.00  0.00    -0.166 F 
ATOM      3  F   UNL     1      -3.497  -3.629  25.668  0.00  0.00    -0.166 F 
ATOM      4  F   UNL     1      -4.406  -3.797  23.705  0.00  0.00    -0.166 F 
ATOM     25  C   UNL     1      -3.467  -3.098  24.410  0.00  0.00    +0.417 C 
ENDBRANCH  22  25
ENDBRANCH  11  16
BRANCH  13   5
ATOM      5  O   UNL     1      -4.380   3.747  27.301  0.00  0.00    -0.388 OA
ATOM     31  H   UNL     1      -3.514   3.462  27.639  0.00  0.00    +0.210 HD
ENDBRANCH  13   5
BRANCH  15   6
ATOM      6  O   UNL     1      -6.549   4.910  26.055  0.00  0.00    -0.389 OA
ATOM     32  H   UNL     1      -6.918   4.126  26.496  0.00  0.00    +0.210 HD
ENDBRANCH  15   6
BRANCH  12   9
ATOM      9  N   UNL     1      -2.385   4.243  24.332  0.00  0.00    -0.184 NA
ATOM     30  H   UNL     1      -2.790   4.705  23.508  0.00  0.00    +0.148 HD
BRANCH   9   1
ATOM      1  S   UNL     1      -0.701   4.106  24.511  0.00  0.00    +0.059 S 
ATOM      7  O   UNL     1      -0.322   4.531  25.845  0.00  0.00    -0.153 OA
ATOM      8  O   UNL     1      -0.059   4.688  23.349  0.00  0.00    -0.153 OA
BRANCH   1  19
ATOM     19  C   UNL     1      -0.466   2.356  24.409  0.00  0.00    +0.106 A 
ATOM     23  C   UNL     1      -0.826   1.540  25.481  0.00  0.00    +0.047 A 
ATOM     24  C   UNL     1       0.082   1.793  23.256  0.00  0.00    +0.028 A 
ATOM     26  C   UNL     1      -0.639   0.160  25.400  0.00  0.00    +0.054 A 
ATOM     27  C   UNL     1       0.269   0.414  23.176  0.00  0.00    +0.003 A 
ATOM     28  C   UNL     1      -0.091  -0.403  24.247  0.00  0.00    +0.019 A 
BRANCH  26  29
ATOM     10  N   UNL     1      -1.309  -1.357  27.390  0.00  0.00    -0.191 NA
ATOM     29  C   UNL     1      -1.009  -0.677  26.497  0.00  0.00    +0.099 C 
ENDBRANCH  26  29
ENDBRANCH   1  19
ENDBRANCH   9   1
ENDBRANCH  12   9
TORSDOF 8
ENDMDL
MODEL 5
REMARK VINA RESULT:      -0.9      3.856      5.888
REMARK  Name = 71694024
REMARK  8 active torsions:
REMARK  status: ('A' for Active; 'I' for Inactive)
REMARK    1  A    between atoms: S_1  and  N_9
REMARK    2  A    between atoms: S_1  and  C_19
REMARK    3  A    between atoms: O_5  and  C_13
REMARK    4  A    between atoms: O_6  and  C_15
REMARK    5  A    between atoms: N_9  and  C_12
REMARK    6  A    between atoms: C_11  and  C_16
REMARK    7  A    between atoms: C_22  and  C_25
REMARK    8  A    between atoms: C_26  and  C_29
REMARK                            x       y       z     vdW  Elec       q    Type
REMARK                         _______ _______ _______ _____ _____    ______ ____
ROOT
ATOM     11  C   UNL     1      -1.908  -0.857  23.592  0.00  0.00    +0.043 C 
ATOM     12  C   UNL     1      -2.707  -0.010  24.620  0.00  0.00    +0.115 C 
ATOM     13  C   UNL     1      -3.301  -1.013  25.618  0.00  0.00    +0.162 C 
ATOM     14  C   UNL     1      -1.969  -2.302  24.115  0.00  0.00    +0.043 C 
ATOM     15  C   UNL     1      -3.292  -2.341  24.864  0.00  0.00    +0.145 C 
ENDROOT
BRANCH  11  16
ATOM     16  C   UNL     1      -0.495  -0.370  23.359  0.00  0.00    -0.043 A 
ATOM     17  C   UNL     1       0.319  -1.009  22.424  0.00  0.00    +0.004 A 
ATOM     18  C   UNL     1      -0.004   0.719  24.080  0.00  0.00    +0.004 A 
ATOM     20  C   UNL     1       1.621  -0.560  22.208  0.00  0.00    +0.012 A 
ATOM     21  C   UNL     1       1.299   1.168  23.866  0.00  0.00    +0.012 A 
ATOM     22  C   UNL     1       2.111   0.528  22.930  0.00  0.00    +0.055 A 
BRANCH  22  25
ATOM      2  F   UNL     1       3.604   2.369  22.735  0.00  0.00    -0.166 F 
ATOM      3  F   UNL     1       4.401   0.552  23.625  0.00  0.00    -0.166 F 
ATOM      4  F   UNL     1       4.020   0.635  21.491  0.00  0.00    -0.166 F 
ATOM     25  C   UNL     1       3.505   1.008  22.700  0.00  0.00    +0.417 C 
ENDBRANCH  22  25
ENDBRANCH  11  16
BRANCH  13   5
ATOM      5  O   UNL     1      -2.437  -1.072  26.752  0.00  0.00    -0.388 OA
ATOM     31  H   UNL     1      -2.922  -0.696  27.507  0.00  0.00    +0.210 HD
ENDBRANCH  13   5
BRANCH  15   6
ATOM      6  O   UNL     1      -3.367  -3.458  25.726  0.00  0.00    -0.389 OA
ATOM     32  H   UNL     1      -4.227  -3.886  25.575  0.00  0.00    +0.210 HD
ENDBRANCH  15   6
BRANCH  12   9
ATOM      9  N   UNL     1      -3.808   0.701  23.920  0.00  0.00    -0.184 NA
ATOM     30  H   UNL     1      -3.978   0.470  22.934  0.00  0.00    +0.148 HD
BRANCH   9   1
ATOM      1  S   UNL     1      -4.507   2.081  24.623  0.00  0.00    +0.059 S 
ATOM      7  O   UNL     1      -5.080   1.731  25.909  0.00  0.00    -0.153 OA
ATOM      8  O   UNL     1      -5.313   2.757  23.624  0.00  0.00    -0.153 OA
BRANCH   1  19
ATOM     19  C   UNL     1      -3.089   3.097  24.916  0.00  0.00    +0.106 A 
ATOM     23  C   UNL     1      -2.029   2.611  25.680  0.00  0.00    +0.047 A 
ATOM     24  C   UNL     1      -3.034   4.385  24.384  0.00  0.00    +0.028 A 
ATOM     26  C   UNL     1      -0.912   3.413  25.912  0.00  0.00    +0.054 A 
ATOM     27  C   UNL     1      -1.917   5.187  24.616  0.00  0.00    +0.003 A 
ATOM     28  C   UNL     1      -0.856   4.702  25.380  0.00  0.00    +0.019 A 
BRANCH  26  29
ATOM     10  N   UNL     1       1.059   2.511  27.330  0.00  0.00    -0.191 NA
ATOM     29  C   UNL     1       0.176   2.916  26.694  0.00  0.00    +0.099 C 
ENDBRANCH  26  29
ENDBRANCH   1  19
ENDBRANCH   9   1
ENDBRANCH  12   9
TORSDOF 8
ENDMDL
MODEL 6
REMARK VINA RESULT:      -0.6      3.044      4.942
REMARK  Name = 71694024
REMARK  8 active torsions:
REMARK  status: ('A' for Active; 'I' for Inactive)
REMARK    1  A    between atoms: S_1  and  N_9
REMARK    2  A    between atoms: S_1  and  C_19
REMARK    3  A    between atoms: O_5  and  C_13
REMARK    4  A    between atoms: O_6  and  C_15
REMARK    5  A    between atoms: N_9  and  C_12
REMARK    6  A    between atoms: C_11  and  C_16
REMARK    7  A    between atoms: C_22  and  C_25
REMARK    8  A    between atoms: C_26  and  C_29
REMARK                            x       y       z     vdW  Elec       q    Type
REMARK                         _______ _______ _______ _____ _____    ______ ____
ROOT
ATOM     11  C   UNL     1      -1.546   3.001  25.290  0.00  0.00    +0.043 C 
ATOM     12  C   UNL     1      -3.023   2.965  24.811  0.00  0.00    +0.115 C 
ATOM     13  C   UNL     1      -3.459   4.431  24.686  0.00  0.00    +0.162 C 
ATOM     14  C   UNL     1      -1.153   4.488  25.297  0.00  0.00    +0.043 C 
ATOM     15  C   UNL     1      -2.474   5.192  25.571  0.00  0.00    +0.145 C 
ENDROOT
BRANCH  11  16
ATOM     16  C   UNL     1      -0.611   2.144  24.466  0.00  0.00    -0.043 A 
ATOM     17  C   UNL     1       0.767   2.214  24.675  0.00  0.00    +0.004 A 
ATOM     18  C   UNL     1      -1.125   1.286  23.495  0.00  0.00    +0.004 A 
ATOM     20  C   UNL     1       1.629   1.424  23.916  0.00  0.00    +0.012 A 
ATOM     21  C   UNL     1      -0.263   0.495  22.734  0.00  0.00    +0.012 A 
ATOM     22  C   UNL     1       1.114   0.565  22.945  0.00  0.00    +0.055 A 
BRANCH  22  25
ATOM      2  F   UNL     1       1.394  -0.940  21.126  0.00  0.00    -0.166 F 
ATOM      3  F   UNL     1       3.036   0.427  21.526  0.00  0.00    -0.166 F 
ATOM      4  F   UNL     1       2.674  -1.247  22.856  0.00  0.00    -0.166 F 
ATOM     25  C   UNL     1       2.037  -0.280  22.132  0.00  0.00    +0.417 C 
ENDBRANCH  22  25
ENDBRANCH  11  16
BRANCH  13   5
ATOM      5  O   UNL     1      -3.314   4.820  23.321  0.00  0.00    -0.388 OA
ATOM     31  H   UNL     1      -2.837   5.668  23.309  0.00  0.00    +0.210 HD
ENDBRANCH  13   5
BRANCH  15   6
ATOM      6  O   UNL     1      -2.404   6.566  25.253  0.00  0.00    -0.389 OA
ATOM     32  H   UNL     1      -3.041   7.030  25.822  0.00  0.00    +0.210 HD
ENDBRANCH  15   6
BRANCH  12   9
ATOM      9  N   UNL     1      -3.856   2.289  25.839  0.00  0.00    -0.184 NA
ATOM     30  H   UNL     1      -3.503   2.264  26.803  0.00  0.00    +0.148 HD
BRANCH   9   1
ATOM      1  S   UNL     1      -5.150   1.296  25.362  0.00  0.00    +0.059 S 
ATOM      7  O   UNL     1      -5.763   1.844  24.167  0.00  0.00    -0.153 OA
ATOM      8  O   UNL     1      -5.961   0.994  26.526  0.00  0.00    -0.153 OA
BRANCH   1  19
ATOM     19  C   UNL     1      -4.317  -0.197  24.912  0.00  0.00    +0.106 A 
ATOM     23  C   UNL     1      -3.007  -0.419  25.333  0.00  0.00    +0.047 A 
ATOM     24  C   UNL     1      -4.971  -1.152  24.133  0.00  0.00    +0.028 A 
ATOM     26  C   UNL     1      -2.349  -1.596  24.976  0.00  0.00    +0.054 A 
ATOM     27  C   UNL     1      -4.314  -2.328  23.776  0.00  0.00    +0.003 A 
ATOM     28  C   UNL     1      -3.004  -2.552  24.197  0.00  0.00    +0.019 A 
BRANCH  26  29
ATOM     10  N   UNL     1       0.084  -2.013  25.760  0.00  0.00    -0.191 NA
ATOM     29  C   UNL     1      -1.007  -1.826  25.408  0.00  0.00    +0.099 C 
ENDBRANCH  26  29
ENDBRANCH   1  19
ENDBRANCH   9   1
ENDBRANCH  12   9
TORSDOF 8
ENDMDL
MODEL 7
REMARK VINA RESULT:       0.2      4.113      6.920
REMARK  Name = 71694024
REMARK  8 active torsions:
REMARK  status: ('A' for Active; 'I' for Inactive)
REMARK    1  A    between atoms: S_1  and  N_9
REMARK    2  A    between atoms: S_1  and  C_19
REMARK    3  A    between atoms: O_5  and  C_13
REMARK    4  A    between atoms: O_6  and  C_15
REMARK    5  A    between atoms: N_9  and  C_12
REMARK    6  A    between atoms: C_11  and  C_16
REMARK    7  A    between atoms: C_22  and  C_25
REMARK    8  A    between atoms: C_26  and  C_29
REMARK                            x       y       z     vdW  Elec       q    Type
REMARK                         _______ _______ _______ _____ _____    ______ ____
ROOT
ATOM     11  C   UNL     1       0.366  -0.180  23.292  0.00  0.00    +0.043 C 
ATOM     12  C   UNL     1      -0.286   0.612  24.459  0.00  0.00    +0.115 C 
ATOM     13  C   UNL     1      -1.334  -0.328  25.070  0.00  0.00    +0.162 C 
ATOM     14  C   UNL     1      -0.245  -1.590  23.362  0.00  0.00    +0.043 C 
ATOM     15  C   UNL     1      -1.620  -1.340  23.963  0.00  0.00    +0.145 C 
ENDROOT
BRANCH  11  16
ATOM     16  C   UNL     1       1.878  -0.186  23.322  0.00  0.00    -0.043 A 
ATOM     17  C   UNL     1       2.563  -1.326  23.744  0.00  0.00    +0.004 A 
ATOM     18  C   UNL     1       2.588   0.948  22.928  0.00  0.00    +0.004 A 
ATOM     20  C   UNL     1       3.957  -1.332  23.771  0.00  0.00    +0.012 A 
ATOM     21  C   UNL     1       3.983   0.942  22.956  0.00  0.00    +0.012 A 
ATOM     22  C   UNL     1       4.667  -0.198  23.377  0.00  0.00    +0.055 A 
BRANCH  22  25
ATOM      2  F   UNL     1       6.683   1.019  23.707  0.00  0.00    -0.166 F 
ATOM      3  F   UNL     1       6.685  -1.064  24.329  0.00  0.00    -0.166 F 
ATOM      4  F   UNL     1       6.728  -0.565  22.219  0.00  0.00    -0.166 F 
ATOM     25  C   UNL     1       6.159  -0.204  23.407  0.00  0.00    +0.417 C 
ENDBRANCH  22  25
ENDBRANCH  11  16
BRANCH  13   5
ATOM      5  O   UNL     1      -0.745  -0.971  26.200  0.00  0.00    -0.388 OA
ATOM     31  H   UNL     1      -1.179  -0.617  26.995  0.00  0.00    +0.210 HD
ENDBRANCH  13   5
BRANCH  15   6
ATOM      6  O   UNL     1      -2.197  -2.534  24.451  0.00  0.00    -0.389 OA
ATOM     32  H   UNL     1      -2.302  -3.137  23.696  0.00  0.00    +0.210 HD
ENDBRANCH  15   6
BRANCH  12   9
ATOM      9  N   UNL     1      -0.963   1.818  23.915  0.00  0.00    -0.184 NA
ATOM     30  H   UNL     1      -1.305   1.782  22.948  0.00  0.00    +0.148 HD
BRANCH   9   1
ATOM      1  S   UNL     1      -0.847   3.298  24.742  0.00  0.00    +0.059 S 
ATOM      7  O   UNL     1      -0.481   4.346  23.807  0.00  0.00    -0.153 OA
ATOM      8  O   UNL     1      -0.076   3.098  25.953  0.00  0.00    -0.153 OA
BRANCH   1  19
ATOM     19  C   UNL     1      -2.523   3.571  25.236  0.00  0.00    +0.106 A 
ATOM     23  C   UNL     1      -3.516   2.665  24.867  0.00  0.00    +0.047 A 
ATOM     24  C   UNL     1      -2.851   4.695  25.995  0.00  0.00    +0.028 A 
ATOM     26  C   UNL     1      -4.838   2.881  25.255  0.00  0.00    +0.054 A 
ATOM     27  C   UNL     1      -4.172   4.912  26.383  0.00  0.00    +0.003 A 
ATOM     28  C   UNL     1      -5.166   4.005  26.014  0.00  0.00    +0.019 A 
BRANCH  26  29
ATOM     10  N   UNL     1      -6.683   1.198  24.571  0.00  0.00    -0.191 NA
ATOM     29  C   UNL     1      -5.856   1.952  24.878  0.00  0.00    +0.099 C 
ENDBRANCH  26  29
ENDBRANCH   1  19
ENDBRANCH   9   1
ENDBRANCH  12   9
TORSDOF 8
ENDMDL
MODEL 8
REMARK VINA RESULT:       0.4      4.136      6.776
REMARK  Name = 71694024
REMARK  8 active torsions:
REMARK  status: ('A' for Active; 'I' for Inactive)
REMARK    1  A    between atoms: S_1  and  N_9
REMARK    2  A    between atoms: S_1  and  C_19
REMARK    3  A    between atoms: O_5  and  C_13
REMARK    4  A    between atoms: O_6  and  C_15
REMARK    5  A    between atoms: N_9  and  C_12
REMARK    6  A    between atoms: C_11  and  C_16
REMARK    7  A    between atoms: C_22  and  C_25
REMARK    8  A    between atoms: C_26  and  C_29
REMARK                            x       y       z     vdW  Elec       q    Type
REMARK                         _______ _______ _______ _____ _____    ______ ____
ROOT
ATOM     11  C   UNL     1      -0.239   0.299  23.148  0.00  0.00    +0.043 C 
ATOM     12  C   UNL     1       0.833  -0.380  24.045  0.00  0.00    +0.115 C 
ATOM     13  C   UNL     1       2.116  -0.425  23.203  0.00  0.00    +0.162 C 
ATOM     14  C   UNL     1       0.507   0.732  21.874  0.00  0.00    +0.043 C 
ATOM     15  C   UNL     1       1.625  -0.294  21.764  0.00  0.00    +0.145 C 
ENDROOT
BRANCH  11  16
ATOM     16  C   UNL     1      -0.973   1.436  23.821  0.00  0.00    -0.043 A 
ATOM     17  C   UNL     1      -0.537   1.914  25.057  0.00  0.00    +0.004 A 
ATOM     18  C   UNL     1      -2.088   2.007  23.208  0.00  0.00    +0.004 A 
ATOM     20  C   UNL     1      -1.213   2.964  25.678  0.00  0.00    +0.012 A 
ATOM     21  C   UNL     1      -2.766   3.057  23.829  0.00  0.00    +0.012 A 
ATOM     22  C   UNL     1      -2.328   3.535  25.065  0.00  0.00    +0.055 A 
BRANCH  22  25
ATOM      2  F   UNL     1      -2.391   5.845  25.621  0.00  0.00    -0.166 F 
ATOM      3  F   UNL     1      -4.298   4.883  25.219  0.00  0.00    -0.166 F 
ATOM      4  F   UNL     1      -3.245   4.466  27.068  0.00  0.00    -0.166 F 
ATOM     25  C   UNL     1      -3.052   4.657  25.729  0.00  0.00    +0.417 C 
ENDBRANCH  22  25
ENDBRANCH  11  16
BRANCH  13   5
ATOM      5  O   UNL     1       2.921   0.696  23.565  0.00  0.00    -0.388 OA
ATOM     31  H   UNL     1       3.616   0.785  22.890  0.00  0.00    +0.210 HD
ENDBRANCH  13   5
BRANCH  15   6
ATOM      6  O   UNL     1       2.638   0.137  20.879  0.00  0.00    -0.389 OA
ATOM     32  H   UNL     1       2.564  -0.396  20.069  0.00  0.00    +0.210 HD
ENDBRANCH  15   6
BRANCH  12   9
ATOM      9  N   UNL     1       0.402  -1.767  24.361  0.00  0.00    -0.184 NA
ATOM     30  H   UNL     1       0.535  -2.487  23.641  0.00  0.00    +0.148 HD
BRANCH   9   1
ATOM      1  S   UNL     1      -0.590  -2.058  25.709  0.00  0.00    +0.059 S 
ATOM      7  O   UNL     1      -0.337  -1.050  26.721  0.00  0.00    -0.153 OA
ATOM      8  O   UNL     1      -0.517  -3.466  26.047  0.00  0.00    -0.153 OA
BRANCH   1  19
ATOM     19  C   UNL     1      -2.203  -1.769  25.044  0.00  0.00    +0.106 A 
ATOM     23  C   UNL     1      -2.915  -0.629  25.412  0.00  0.00    +0.047 A 
ATOM     24  C   UNL     1      -2.762  -2.683  24.150  0.00  0.00    +0.028 A 
ATOM     26  C   UNL     1      -4.188  -0.402  24.888  0.00  0.00    +0.054 A 
ATOM     27  C   UNL     1      -4.034  -2.456  23.627  0.00  0.00    +0.003 A 
ATOM     28  C   UNL     1      -4.747  -1.316  23.995  0.00  0.00    +0.019 A 
BRANCH  26  29
ATOM     10  N   UNL     1      -5.514   1.716  25.570  0.00  0.00    -0.191 NA
ATOM     29  C   UNL     1      -4.919   0.767  25.264  0.00  0.00    +0.099 C 
ENDBRANCH  26  29
ENDBRANCH   1  19
ENDBRANCH   9   1
ENDBRANCH  12   9
TORSDOF 8
ENDMDL
