MODEL 1
REMARK VINA RESULT:      -3.0      0.000      0.000
REMARK  Name = 75536772
REMARK  9 active torsions:
REMARK  status: ('A' for Active; 'I' for Inactive)
REMARK    1  A    between atoms: O_2  and  C_9
REMARK    2  A    between atoms: O_4  and  C_20
REMARK    3  A    between atoms: O_4  and  C_26
REMARK    4  A    between atoms: N_5  and  C_8
REMARK    5  A    between atoms: N_5  and  C_13
REMARK    6  A    between atoms: N_6  and  C_12
REMARK    7  A    between atoms: N_7  and  C_21
REMARK    8  A    between atoms: C_10  and  C_12
REMARK    9  A    between atoms: C_13  and  C_14
REMARK                            x       y       z     vdW  Elec       q    Type
REMARK                         _______ _______ _______ _____ _____    ______ ____
ROOT
ATOM      1  O   UNL     1      -4.203   4.655  25.880  0.00  0.00    -0.371 OA
ATOM      8  C   UNL     1      -2.016   3.773  26.098  0.00  0.00    +0.111 C 
ATOM      9  C   UNL     1      -2.089   4.517  24.777  0.00  0.00    +0.164 C 
ATOM     10  C   UNL     1      -3.568   4.862  24.604  0.00  0.00    +0.165 C 
ATOM     11  C   UNL     1      -3.194   4.366  26.855  0.00  0.00    +0.181 C 
ENDROOT
BRANCH   9   2
ATOM      2  O   UNL     1      -1.341   5.727  24.916  0.00  0.00    -0.388 OA
ATOM     29  H   UNL     1      -0.877   5.880  24.074  0.00  0.00    +0.210 HD
ENDBRANCH   9   2
BRANCH   8   5
ATOM      5  N   UNL     1      -2.189   2.333  25.916  0.00  0.00    -0.305 NA
ATOM     28  H   UNL     1      -2.970   2.013  26.489  0.00  0.00    +0.123 HD
BRANCH   5  13
ATOM     13  C   UNL     1      -0.991   1.606  26.318  0.00  0.00    +0.116 C 
BRANCH  13  14
ATOM     14  C   UNL     1      -0.214   1.105  25.129  0.00  0.00    -0.033 A 
ATOM     16  C   UNL     1       0.704   1.940  24.492  0.00  0.00    +0.008 A 
ATOM     17  C   UNL     1      -0.411  -0.196  24.667  0.00  0.00    +0.008 A 
ATOM     18  C   UNL     1       1.424   1.475  23.392  0.00  0.00    +0.046 A 
ATOM     19  C   UNL     1       0.309  -0.661  23.567  0.00  0.00    +0.046 A 
ATOM     20  C   UNL     1       1.227   0.174  22.930  0.00  0.00    +0.120 A 
BRANCH  20   4
ATOM      4  O   UNL     1       1.930  -0.279  21.857  0.00  0.00    -0.495 OA
ATOM     26  C   UNL     1       3.301   0.105  21.769  0.00  0.00    +0.277 C 
ENDBRANCH  20   4
ENDBRANCH  13  14
ENDBRANCH   5  13
ENDBRANCH   8   5
BRANCH  10  12
ATOM     12  C   UNL     1      -4.277   3.999  23.571  0.00  0.00    +0.140 C 
BRANCH  12   6
ATOM      3  O   UNL     1      -2.901   1.503  23.290  0.00  0.00    -0.253 OA
ATOM      6  N   UNL     1      -4.670   2.736  24.128  0.00  0.00    -0.297 N 
ATOM      7  N   UNL     1      -4.561   0.484  24.602  0.00  0.00    -0.269 N 
ATOM     15  C   UNL     1      -3.939   1.550  23.945  0.00  0.00    +0.304 C 
ATOM     30  H   UNL     1      -5.524   2.698  24.674  0.00  0.00    +0.150 HD
ATOM     31  H   UNL     1      -5.419   0.696  25.103  0.00  0.00    +0.156 HD
BRANCH   7  21
ATOM     21  C   UNL     1      -4.139  -0.864  24.657  0.00  0.00    +0.035 A 
ATOM     22  C   UNL     1      -3.459  -1.339  25.778  0.00  0.00    +0.023 A 
ATOM     23  C   UNL     1      -4.405  -1.721  23.589  0.00  0.00    +0.023 A 
ATOM     24  C   UNL     1      -3.043  -2.669  25.831  0.00  0.00    +0.002 A 
ATOM     25  C   UNL     1      -3.989  -3.051  23.641  0.00  0.00    +0.002 A 
ATOM     27  C   UNL     1      -3.309  -3.526  24.763  0.00  0.00    +0.000 A 
ENDBRANCH   7  21
ENDBRANCH  12   6
ENDBRANCH  10  12
TORSDOF 8
ENDMDL
MODEL 2
REMARK VINA RESULT:      -2.8      1.824      4.646
REMARK  Name = 75536772
REMARK  9 active torsions:
REMARK  status: ('A' for Active; 'I' for Inactive)
REMARK    1  A    between atoms: O_2  and  C_9
REMARK    2  A    between atoms: O_4  and  C_20
REMARK    3  A    between atoms: O_4  and  C_26
REMARK    4  A    between atoms: N_5  and  C_8
REMARK    5  A    between atoms: N_5  and  C_13
REMARK    6  A    between atoms: N_6  and  C_12
REMARK    7  A    between atoms: N_7  and  C_21
REMARK    8  A    between atoms: C_10  and  C_12
REMARK    9  A    between atoms: C_13  and  C_14
REMARK                            x       y       z     vdW  Elec       q    Type
REMARK                         _______ _______ _______ _____ _____    ______ ____
ROOT
ATOM      1  O   UNL     1      -3.800   3.530  23.926  0.00  0.00    -0.371 OA
ATOM      8  C   UNL     1      -5.615   2.572  25.107  0.00  0.00    +0.111 C 
ATOM      9  C   UNL     1      -5.185   3.824  25.850  0.00  0.00    +0.164 C 
ATOM     10  C   UNL     1      -3.889   4.258  25.166  0.00  0.00    +0.165 C 
ATOM     11  C   UNL     1      -5.022   2.809  23.727  0.00  0.00    +0.181 C 
ENDROOT
BRANCH   9   2
ATOM      2  O   UNL     1      -6.184   4.824  25.634  0.00  0.00    -0.388 OA
ATOM     29  H   UNL     1      -6.320   4.896  24.674  0.00  0.00    +0.210 HD
ENDBRANCH   9   2
BRANCH   8   5
ATOM      5  N   UNL     1      -5.054   1.366  25.712  0.00  0.00    -0.305 NA
ATOM     28  H   UNL     1      -4.061   1.512  25.893  0.00  0.00    +0.123 HD
BRANCH   5  13
ATOM     13  C   UNL     1      -5.201   0.217  24.828  0.00  0.00    +0.116 C 
BRANCH  13  14
ATOM     14  C   UNL     1      -3.997  -0.685  24.875  0.00  0.00    -0.033 A 
ATOM     16  C   UNL     1      -3.937  -1.813  24.056  0.00  0.00    +0.008 A 
ATOM     17  C   UNL     1      -2.940  -0.392  25.737  0.00  0.00    +0.008 A 
ATOM     18  C   UNL     1      -2.821  -2.648  24.099  0.00  0.00    +0.046 A 
ATOM     19  C   UNL     1      -1.824  -1.227  25.779  0.00  0.00    +0.046 A 
ATOM     20  C   UNL     1      -1.764  -2.355  24.961  0.00  0.00    +0.120 A 
BRANCH  20   4
ATOM      4  O   UNL     1      -0.675  -3.169  25.002  0.00  0.00    -0.495 OA
ATOM     26  C   UNL     1       0.549  -2.594  25.457  0.00  0.00    +0.277 C 
ENDBRANCH  20   4
ENDBRANCH  13  14
ENDBRANCH   5  13
ENDBRANCH   8   5
BRANCH  10  12
ATOM     12  C   UNL     1      -2.641   3.962  25.984  0.00  0.00    +0.140 C 
BRANCH  12   6
ATOM      3  O   UNL     1      -0.379   3.709  24.246  0.00  0.00    -0.253 OA
ATOM      6  N   UNL     1      -2.017   2.741  25.562  0.00  0.00    -0.297 N 
ATOM      7  N   UNL     1      -0.518   1.375  24.469  0.00  0.00    -0.269 N 
ATOM     15  C   UNL     1      -0.906   2.698  24.704  0.00  0.00    +0.304 C 
ATOM     30  H   UNL     1      -2.406   1.865  25.893  0.00  0.00    +0.150 HD
ATOM     31  H   UNL     1      -1.064   0.652  24.928  0.00  0.00    +0.156 HD
BRANCH   7  21
ATOM     21  C   UNL     1       0.551   0.916  23.665  0.00  0.00    +0.035 A 
ATOM     22  C   UNL     1       1.814   1.493  23.785  0.00  0.00    +0.023 A 
ATOM     23  C   UNL     1       0.340  -0.118  22.751  0.00  0.00    +0.023 A 
ATOM     24  C   UNL     1       2.867   1.039  22.991  0.00  0.00    +0.002 A 
ATOM     25  C   UNL     1       1.392  -0.572  21.957  0.00  0.00    +0.002 A 
ATOM     27  C   UNL     1       2.657   0.005  22.077  0.00  0.00    +0.000 A 
ENDBRANCH   7  21
ENDBRANCH  12   6
ENDBRANCH  10  12
TORSDOF 8
ENDMDL
MODEL 3
REMARK VINA RESULT:      -2.6      2.221      5.634
REMARK  Name = 75536772
REMARK  9 active torsions:
REMARK  status: ('A' for Active; 'I' for Inactive)
REMARK    1  A    between atoms: O_2  and  C_9
REMARK    2  A    between atoms: O_4  and  C_20
REMARK    3  A    between atoms: O_4  and  C_26
REMARK    4  A    between atoms: N_5  and  C_8
REMARK    5  A    between atoms: N_5  and  C_13
REMARK    6  A    between atoms: N_6  and  C_12
REMARK    7  A    between atoms: N_7  and  C_21
REMARK    8  A    between atoms: C_10  and  C_12
REMARK    9  A    between atoms: C_13  and  C_14
REMARK                            x       y       z     vdW  Elec       q    Type
REMARK                         _______ _______ _______ _____ _____    ______ ____
ROOT
ATOM      1  O   UNL     1      -3.290   2.690  23.118  0.00  0.00    -0.371 OA
ATOM      8  C   UNL     1      -3.969   3.900  25.037  0.00  0.00    +0.111 C 
ATOM      9  C   UNL     1      -2.472   3.670  25.137  0.00  0.00    +0.164 C 
ATOM     10  C   UNL     1      -2.148   2.706  23.995  0.00  0.00    +0.165 C 
ATOM     11  C   UNL     1      -4.218   3.691  23.552  0.00  0.00    +0.181 C 
ENDROOT
BRANCH   9   2
ATOM      2  O   UNL     1      -1.822   4.919  24.892  0.00  0.00    -0.388 OA
ATOM     29  H   UNL     1      -1.564   5.287  25.755  0.00  0.00    +0.210 HD
ENDBRANCH   9   2
BRANCH   8   5
ATOM      5  N   UNL     1      -4.718   2.927  25.830  0.00  0.00    -0.305 NA
ATOM     28  H   UNL     1      -4.069   2.397  26.413  0.00  0.00    +0.123 HD
BRANCH   5  13
ATOM     13  C   UNL     1      -5.438   1.994  24.972  0.00  0.00    +0.116 C 
BRANCH  13  14
ATOM     14  C   UNL     1      -4.797   0.632  24.961  0.00  0.00    -0.033 A 
ATOM     16  C   UNL     1      -4.160   0.151  26.105  0.00  0.00    +0.008 A 
ATOM     17  C   UNL     1      -4.841  -0.149  23.807  0.00  0.00    +0.008 A 
ATOM     18  C   UNL     1      -3.567  -1.112  26.094  0.00  0.00    +0.046 A 
ATOM     19  C   UNL     1      -4.248  -1.412  23.796  0.00  0.00    +0.046 A 
ATOM     20  C   UNL     1      -3.611  -1.893  24.940  0.00  0.00    +0.120 A 
BRANCH  20   4
ATOM      4  O   UNL     1      -3.033  -3.125  24.930  0.00  0.00    -0.495 OA
ATOM     26  C   UNL     1      -1.714  -3.219  24.394  0.00  0.00    +0.277 C 
ENDBRANCH  20   4
ENDBRANCH  13  14
ENDBRANCH   5  13
ENDBRANCH   8   5
BRANCH  10  12
ATOM     12  C   UNL     1      -1.880   1.283  24.459  0.00  0.00    +0.140 C 
BRANCH  12   6
ATOM      3  O   UNL     1       0.912   1.476  25.066  0.00  0.00    -0.253 OA
ATOM      6  N   UNL     1      -0.800   0.689  23.724  0.00  0.00    -0.297 N 
ATOM      7  N   UNL     1       1.373   0.144  23.188  0.00  0.00    -0.269 N 
ATOM     15  C   UNL     1       0.550   0.830  24.085  0.00  0.00    +0.304 C 
ATOM     30  H   UNL     1      -1.024   0.148  22.896  0.00  0.00    +0.150 HD
ATOM     31  H   UNL     1       0.910  -0.345  22.427  0.00  0.00    +0.156 HD
BRANCH   7  21
ATOM     21  C   UNL     1       2.784   0.044  23.208  0.00  0.00    +0.035 A 
ATOM     22  C   UNL     1       3.395  -1.133  23.639  0.00  0.00    +0.023 A 
ATOM     23  C   UNL     1       3.565   1.124  22.795  0.00  0.00    +0.023 A 
ATOM     24  C   UNL     1       4.786  -1.230  23.659  0.00  0.00    +0.002 A 
ATOM     25  C   UNL     1       4.955   1.028  22.815  0.00  0.00    +0.002 A 
ATOM     27  C   UNL     1       5.567  -0.149  23.246  0.00  0.00    +0.000 A 
ENDBRANCH   7  21
ENDBRANCH  12   6
ENDBRANCH  10  12
TORSDOF 8
ENDMDL
MODEL 4
REMARK VINA RESULT:      -2.1      2.354      6.444
REMARK  Name = 75536772
REMARK  9 active torsions:
REMARK  status: ('A' for Active; 'I' for Inactive)
REMARK    1  A    between atoms: O_2  and  C_9
REMARK    2  A    between atoms: O_4  and  C_20
REMARK    3  A    between atoms: O_4  and  C_26
REMARK    4  A    between atoms: N_5  and  C_8
REMARK    5  A    between atoms: N_5  and  C_13
REMARK    6  A    between atoms: N_6  and  C_12
REMARK    7  A    between atoms: N_7  and  C_21
REMARK    8  A    between atoms: C_10  and  C_12
REMARK    9  A    between atoms: C_13  and  C_14
REMARK                            x       y       z     vdW  Elec       q    Type
REMARK                         _______ _______ _______ _____ _____    ______ ____
ROOT
ATOM      1  O   UNL     1      -2.670  -0.109  25.603  0.00  0.00    -0.371 OA
ATOM      8  C   UNL     1      -4.820  -0.681  24.791  0.00  0.00    +0.111 C 
ATOM      9  C   UNL     1      -3.791  -1.303  23.865  0.00  0.00    +0.164 C 
ATOM     10  C   UNL     1      -2.453  -0.716  24.315  0.00  0.00    +0.165 C 
ATOM     11  C   UNL     1      -3.997  -0.424  26.043  0.00  0.00    +0.181 C 
ENDROOT
BRANCH   9   2
ATOM      2  O   UNL     1      -3.786  -2.712  24.103  0.00  0.00    -0.388 OA
ATOM     29  H   UNL     1      -4.002  -3.150  23.262  0.00  0.00    +0.210 HD
ENDBRANCH   9   2
BRANCH   8   5
ATOM      5  N   UNL     1      -5.345   0.572  24.251  0.00  0.00    -0.305 NA
ATOM     28  H   UNL     1      -4.695   0.936  23.553  0.00  0.00    +0.123 HD
BRANCH   5  13
ATOM     13  C   UNL     1      -5.506   1.570  25.300  0.00  0.00    +0.116 C 
BRANCH  13  14
ATOM     14  C   UNL     1      -4.448   2.639  25.226  0.00  0.00    -0.033 A 
ATOM     16  C   UNL     1      -3.940   3.202  26.396  0.00  0.00    +0.008 A 
ATOM     17  C   UNL     1      -3.974   3.064  23.985  0.00  0.00    +0.008 A 
ATOM     18  C   UNL     1      -2.960   4.191  26.327  0.00  0.00    +0.046 A 
ATOM     19  C   UNL     1      -2.993   4.053  23.915  0.00  0.00    +0.046 A 
ATOM     20  C   UNL     1      -2.486   4.617  25.086  0.00  0.00    +0.120 A 
BRANCH  20   4
ATOM      4  O   UNL     1      -1.529   5.581  25.018  0.00  0.00    -0.495 OA
ATOM     26  C   UNL     1      -0.213   5.167  24.653  0.00  0.00    +0.277 C 
ENDBRANCH  20   4
ENDBRANCH  13  14
ENDBRANCH   5  13
ENDBRANCH   8   5
BRANCH  10  12
ATOM     12  C   UNL     1      -1.908   0.346  23.372  0.00  0.00    +0.140 C 
BRANCH  12   6
ATOM      3  O   UNL     1       0.644   0.778  24.601  0.00  0.00    -0.253 OA
ATOM      6  N   UNL     1      -0.628  -0.032  22.846  0.00  0.00    -0.297 N 
ATOM      7  N   UNL     1       1.663  -0.264  22.760  0.00  0.00    -0.269 N 
ATOM     15  C   UNL     1       0.585   0.215  23.510  0.00  0.00    +0.304 C 
ATOM     30  H   UNL     1      -0.598  -0.494  21.943  0.00  0.00    +0.150 HD
ATOM     31  H   UNL     1       1.440  -0.708  21.874  0.00  0.00    +0.156 HD
BRANCH   7  21
ATOM     21  C   UNL     1       3.038  -0.207  23.085  0.00  0.00    +0.035 A 
ATOM     22  C   UNL     1       3.770   0.952  22.829  0.00  0.00    +0.023 A 
ATOM     23  C   UNL     1       3.664  -1.313  23.662  0.00  0.00    +0.023 A 
ATOM     24  C   UNL     1       5.126   1.007  23.150  0.00  0.00    +0.002 A 
ATOM     25  C   UNL     1       5.020  -1.259  23.982  0.00  0.00    +0.002 A 
ATOM     27  C   UNL     1       5.751  -0.099  23.727  0.00  0.00    +0.000 A 
ENDBRANCH   7  21
ENDBRANCH  12   6
ENDBRANCH  10  12
TORSDOF 8
ENDMDL
MODEL 5
REMARK VINA RESULT:      -0.7      2.296      6.968
REMARK  Name = 75536772
REMARK  9 active torsions:
REMARK  status: ('A' for Active; 'I' for Inactive)
REMARK    1  A    between atoms: O_2  and  C_9
REMARK    2  A    between atoms: O_4  and  C_20
REMARK    3  A    between atoms: O_4  and  C_26
REMARK    4  A    between atoms: N_5  and  C_8
REMARK    5  A    between atoms: N_5  and  C_13
REMARK    6  A    between atoms: N_6  and  C_12
REMARK    7  A    between atoms: N_7  and  C_21
REMARK    8  A    between atoms: C_10  and  C_12
REMARK    9  A    between atoms: C_13  and  C_14
REMARK                            x       y       z     vdW  Elec       q    Type
REMARK                         _______ _______ _______ _____ _____    ______ ____
ROOT
ATOM      1  O   UNL     1      -2.380  -2.563  26.094  0.00  0.00    -0.371 OA
ATOM      8  C   UNL     1      -3.161  -1.849  23.976  0.00  0.00    +0.111 C 
ATOM      9  C   UNL     1      -1.944  -2.727  23.752  0.00  0.00    +0.164 C 
ATOM     10  C   UNL     1      -1.371  -2.965  25.149  0.00  0.00    +0.165 C 
ATOM     11  C   UNL     1      -3.583  -2.252  25.380  0.00  0.00    +0.181 C 
ENDROOT
BRANCH   9   2
ATOM      2  O   UNL     1      -2.398  -3.972  23.216  0.00  0.00    -0.388 OA
ATOM     29  H   UNL     1      -3.247  -3.804  22.770  0.00  0.00    +0.210 HD
ENDBRANCH   9   2
BRANCH   8   5
ATOM      5  N   UNL     1      -2.818  -0.429  23.927  0.00  0.00    -0.305 NA
ATOM     28  H   UNL     1      -2.788  -0.057  24.876  0.00  0.00    +0.123 HD
BRANCH   5  13
ATOM     13  C   UNL     1      -3.806   0.324  23.165  0.00  0.00    +0.116 C 
BRANCH  13  14
ATOM     14  C   UNL     1      -4.352   1.487  23.949  0.00  0.00    -0.033 A 
ATOM     16  C   UNL     1      -4.033   2.793  23.575  0.00  0.00    +0.008 A 
ATOM     17  C   UNL     1      -5.180   1.259  25.048  0.00  0.00    +0.008 A 
ATOM     18  C   UNL     1      -4.540   3.870  24.301  0.00  0.00    +0.046 A 
ATOM     19  C   UNL     1      -5.687   2.337  25.774  0.00  0.00    +0.046 A 
ATOM     20  C   UNL     1      -5.367   3.642  25.401  0.00  0.00    +0.120 A 
BRANCH  20   4
ATOM      4  O   UNL     1      -5.862   4.693  26.109  0.00  0.00    -0.495 OA
ATOM     26  C   UNL     1      -6.560   5.699  25.376  0.00  0.00    +0.277 C 
ENDBRANCH  20   4
ENDBRANCH  13  14
ENDBRANCH   5  13
ENDBRANCH   8   5
BRANCH  10  12
ATOM     12  C   UNL     1      -0.107  -2.168  25.431  0.00  0.00    +0.140 C 
BRANCH  12   6
ATOM      3  O   UNL     1      -0.177   0.293  23.966  0.00  0.00    -0.253 OA
ATOM      6  N   UNL     1      -0.416  -0.868  25.953  0.00  0.00    -0.297 N 
ATOM      7  N   UNL     1      -0.765   1.410  25.947  0.00  0.00    -0.269 N 
ATOM     15  C   UNL     1      -0.430   0.297  25.169  0.00  0.00    +0.304 C 
ATOM     30  H   UNL     1      -0.627  -0.786  26.943  0.00  0.00    +0.150 HD
ATOM     31  H   UNL     1      -0.947   1.239  26.932  0.00  0.00    +0.156 HD
BRANCH   7  21
ATOM     21  C   UNL     1      -0.885   2.755  25.529  0.00  0.00    +0.035 A 
ATOM     22  C   UNL     1      -0.119   3.227  24.463  0.00  0.00    +0.023 A 
ATOM     23  C   UNL     1      -1.770   3.612  26.183  0.00  0.00    +0.023 A 
ATOM     24  C   UNL     1      -0.237   4.554  24.052  0.00  0.00    +0.002 A 
ATOM     25  C   UNL     1      -1.889   4.939  25.773  0.00  0.00    +0.002 A 
ATOM     27  C   UNL     1      -1.123   5.411  24.707  0.00  0.00    +0.000 A 
ENDBRANCH   7  21
ENDBRANCH  12   6
ENDBRANCH  10  12
TORSDOF 8
ENDMDL
MODEL 6
REMARK VINA RESULT:      -0.2      1.950      5.356
REMARK  Name = 75536772
REMARK  9 active torsions:
REMARK  status: ('A' for Active; 'I' for Inactive)
REMARK    1  A    between atoms: O_2  and  C_9
REMARK    2  A    between atoms: O_4  and  C_20
REMARK    3  A    between atoms: O_4  and  C_26
REMARK    4  A    between atoms: N_5  and  C_8
REMARK    5  A    between atoms: N_5  and  C_13
REMARK    6  A    between atoms: N_6  and  C_12
REMARK    7  A    between atoms: N_7  and  C_21
REMARK    8  A    between atoms: C_10  and  C_12
REMARK    9  A    between atoms: C_13  and  C_14
REMARK                            x       y       z     vdW  Elec       q    Type
REMARK                         _______ _______ _______ _____ _____    ______ ____
ROOT
ATOM      1  O   UNL     1      -3.522  -2.330  23.470  0.00  0.00    -0.371 OA
ATOM      8  C   UNL     1      -1.823  -1.806  25.033  0.00  0.00    +0.111 C 
ATOM      9  C   UNL     1      -3.150  -1.803  25.769  0.00  0.00    +0.164 C 
ATOM     10  C   UNL     1      -4.206  -1.927  24.671  0.00  0.00    +0.165 C 
ATOM     11  C   UNL     1      -2.156  -2.618  23.792  0.00  0.00    +0.181 C 
ENDROOT
BRANCH   9   2
ATOM      2  O   UNL     1      -3.193  -2.970  26.593  0.00  0.00    -0.388 OA
ATOM     29  H   UNL     1      -2.315  -3.073  26.999  0.00  0.00    +0.210 HD
ENDBRANCH   9   2
BRANCH   8   5
ATOM      5  N   UNL     1      -1.405  -0.453  24.669  0.00  0.00    -0.305 NA
ATOM     28  H   UNL     1      -2.180   0.192  24.825  0.00  0.00    +0.123 HD
BRANCH   5  13
ATOM     13  C   UNL     1      -1.017  -0.382  23.266  0.00  0.00    +0.116 C 
BRANCH  13  14
ATOM     14  C   UNL     1       0.427   0.013  23.102  0.00  0.00    -0.033 A 
ATOM     16  C   UNL     1       1.214  -0.607  22.132  0.00  0.00    +0.008 A 
ATOM     17  C   UNL     1       0.975   1.001  23.919  0.00  0.00    +0.008 A 
ATOM     18  C   UNL     1       2.551  -0.239  21.980  0.00  0.00    +0.046 A 
ATOM     19  C   UNL     1       2.312   1.368  23.767  0.00  0.00    +0.046 A 
ATOM     20  C   UNL     1       3.100   0.749  22.797  0.00  0.00    +0.120 A 
BRANCH  20   4
ATOM      4  O   UNL     1       4.404   1.107  22.648  0.00  0.00    -0.495 OA
ATOM     26  C   UNL     1       5.383   0.265  23.254  0.00  0.00    +0.277 C 
ENDBRANCH  20   4
ENDBRANCH  13  14
ENDBRANCH   5  13
ENDBRANCH   8   5
BRANCH  10  12
ATOM     12  C   UNL     1      -4.944  -0.627  24.388  0.00  0.00    +0.140 C 
BRANCH  12   6
ATOM      3  O   UNL     1      -3.350   1.485  23.292  0.00  0.00    -0.253 OA
ATOM      6  N   UNL     1      -4.363   0.470  25.108  0.00  0.00    -0.297 N 
ATOM      7  N   UNL     1      -3.159   2.405  25.445  0.00  0.00    -0.269 N 
ATOM     15  C   UNL     1      -3.590   1.471  24.497  0.00  0.00    +0.304 C 
ATOM     30  H   UNL     1      -4.512   0.518  26.110  0.00  0.00    +0.150 HD
ATOM     31  H   UNL     1      -3.449   2.246  26.405  0.00  0.00    +0.156 HD
BRANCH   7  21
ATOM     21  C   UNL     1      -2.365   3.555  25.229  0.00  0.00    +0.035 A 
ATOM     22  C   UNL     1      -1.033   3.422  24.839  0.00  0.00    +0.023 A 
ATOM     23  C   UNL     1      -2.915   4.825  25.407  0.00  0.00    +0.023 A 
ATOM     24  C   UNL     1      -0.251   4.556  24.627  0.00  0.00    +0.002 A 
ATOM     25  C   UNL     1      -2.133   5.960  25.196  0.00  0.00    +0.002 A 
ATOM     27  C   UNL     1      -0.801   5.826  24.804  0.00  0.00    +0.000 A 
ENDBRANCH   7  21
ENDBRANCH  12   6
ENDBRANCH  10  12
TORSDOF 8
ENDMDL
MODEL 7
REMARK VINA RESULT:       0.1      2.231      6.412
REMARK  Name = 75536772
REMARK  9 active torsions:
REMARK  status: ('A' for Active; 'I' for Inactive)
REMARK    1  A    between atoms: O_2  and  C_9
REMARK    2  A    between atoms: O_4  and  C_20
REMARK    3  A    between atoms: O_4  and  C_26
REMARK    4  A    between atoms: N_5  and  C_8
REMARK    5  A    between atoms: N_5  and  C_13
REMARK    6  A    between atoms: N_6  and  C_12
REMARK    7  A    between atoms: N_7  and  C_21
REMARK    8  A    between atoms: C_10  and  C_12
REMARK    9  A    between atoms: C_13  and  C_14
REMARK                            x       y       z     vdW  Elec       q    Type
REMARK                         _______ _______ _______ _____ _____    ______ ____
ROOT
ATOM      1  O   UNL     1       3.361  -0.534  23.452  0.00  0.00    -0.371 OA
ATOM      8  C   UNL     1       1.126  -1.287  23.253  0.00  0.00    +0.111 C 
ATOM      9  C   UNL     1       1.298  -0.092  22.332  0.00  0.00    +0.164 C 
ATOM     10  C   UNL     1       2.679   0.469  22.676  0.00  0.00    +0.165 C 
ATOM     11  C   UNL     1       2.565  -1.724  23.470  0.00  0.00    +0.181 C 
ENDROOT
BRANCH   9   2
ATOM      2  O   UNL     1       1.313  -0.576  20.988  0.00  0.00    -0.388 OA
ATOM     29  H   UNL     1       1.454   0.190  20.405  0.00  0.00    +0.210 HD
ENDBRANCH   9   2
BRANCH   8   5
ATOM      5  N   UNL     1       0.503  -0.907  24.519  0.00  0.00    -0.305 NA
ATOM     28  H   UNL     1       1.217  -0.874  25.248  0.00  0.00    +0.123 HD
BRANCH   5  13
ATOM     13  C   UNL     1      -0.517  -1.869  24.912  0.00  0.00    +0.116 C 
BRANCH  13  14
ATOM     14  C   UNL     1      -1.902  -1.283  24.834  0.00  0.00    -0.033 A 
ATOM     16  C   UNL     1      -2.163  -0.031  25.390  0.00  0.00    +0.008 A 
ATOM     17  C   UNL     1      -2.924  -1.992  24.203  0.00  0.00    +0.008 A 
ATOM     18  C   UNL     1      -3.445   0.513  25.316  0.00  0.00    +0.046 A 
ATOM     19  C   UNL     1      -4.206  -1.449  24.129  0.00  0.00    +0.046 A 
ATOM     20  C   UNL     1      -4.467  -0.197  24.686  0.00  0.00    +0.120 A 
BRANCH  20   4
ATOM      4  O   UNL     1      -5.718   0.334  24.613  0.00  0.00    -0.495 OA
ATOM     26  C   UNL     1      -6.115   1.208  25.668  0.00  0.00    +0.277 C 
ENDBRANCH  20   4
ENDBRANCH  13  14
ENDBRANCH   5  13
ENDBRANCH   8   5
BRANCH  10  12
ATOM     12  C   UNL     1       2.627   1.752  23.491  0.00  0.00    +0.140 C 
BRANCH  12   6
ATOM      3  O   UNL     1       0.506   1.983  25.402  0.00  0.00    -0.253 OA
ATOM      6  N   UNL     1       1.380   2.437  23.308  0.00  0.00    -0.297 N 
ATOM      7  N   UNL     1      -0.716   3.236  23.836  0.00  0.00    -0.269 N 
ATOM     15  C   UNL     1       0.384   2.506  24.297  0.00  0.00    +0.304 C 
ATOM     30  H   UNL     1       1.205   2.885  22.415  0.00  0.00    +0.150 HD
ATOM     31  H   UNL     1      -0.655   3.604  22.891  0.00  0.00    +0.156 HD
BRANCH   7  21
ATOM     21  C   UNL     1      -1.913   3.529  24.528  0.00  0.00    +0.035 A 
ATOM     22  C   UNL     1      -3.138   3.472  23.863  0.00  0.00    +0.023 A 
ATOM     23  C   UNL     1      -1.870   3.875  25.880  0.00  0.00    +0.023 A 
ATOM     24  C   UNL     1      -4.318   3.762  24.547  0.00  0.00    +0.002 A 
ATOM     25  C   UNL     1      -3.049   4.164  26.564  0.00  0.00    +0.002 A 
ATOM     27  C   UNL     1      -4.274   4.107  25.899  0.00  0.00    +0.000 A 
ENDBRANCH   7  21
ENDBRANCH  12   6
ENDBRANCH  10  12
TORSDOF 8
ENDMDL
MODEL 8
REMARK VINA RESULT:       0.3      2.089      5.815
REMARK  Name = 75536772
REMARK  9 active torsions:
REMARK  status: ('A' for Active; 'I' for Inactive)
REMARK    1  A    between atoms: O_2  and  C_9
REMARK    2  A    between atoms: O_4  and  C_20
REMARK    3  A    between atoms: O_4  and  C_26
REMARK    4  A    between atoms: N_5  and  C_8
REMARK    5  A    between atoms: N_5  and  C_13
REMARK    6  A    between atoms: N_6  and  C_12
REMARK    7  A    between atoms: N_7  and  C_21
REMARK    8  A    between atoms: C_10  and  C_12
REMARK    9  A    between atoms: C_13  and  C_14
REMARK                            x       y       z     vdW  Elec       q    Type
REMARK                         _______ _______ _______ _____ _____    ______ ____
ROOT
ATOM      1  O   UNL     1      -1.044  -2.164  23.105  0.00  0.00    -0.371 OA
ATOM      8  C   UNL     1      -0.144  -0.867  24.869  0.00  0.00    +0.111 C 
ATOM      9  C   UNL     1      -0.581  -2.200  25.448  0.00  0.00    +0.164 C 
ATOM     10  C   UNL     1      -1.343  -2.887  24.314  0.00  0.00    +0.165 C 
ATOM     11  C   UNL     1      -0.032  -1.191  23.389  0.00  0.00    +0.181 C 
ENDROOT
BRANCH   9   2
ATOM      2  O   UNL     1       0.597  -2.955  25.742  0.00  0.00    -0.388 OA
ATOM     29  H   UNL     1       0.568  -3.762  25.200  0.00  0.00    +0.210 HD
ENDBRANCH   9   2
BRANCH   8   5
ATOM      5  N   UNL     1      -1.145   0.173  25.098  0.00  0.00    -0.305 NA
ATOM     28  H   UNL     1      -1.283   0.702  24.236  0.00  0.00    +0.123 HD
BRANCH   5  13
ATOM     13  C   UNL     1      -0.717   1.094  26.143  0.00  0.00    +0.116 C 
BRANCH  13  14
ATOM     14  C   UNL     1      -0.979   2.529  25.770  0.00  0.00    -0.033 A 
ATOM     16  C   UNL     1      -1.930   3.270  26.472  0.00  0.00    +0.008 A 
ATOM     17  C   UNL     1      -0.270   3.117  24.723  0.00  0.00    +0.008 A 
ATOM     18  C   UNL     1      -2.172   4.600  26.127  0.00  0.00    +0.046 A 
ATOM     19  C   UNL     1      -0.512   4.446  24.378  0.00  0.00    +0.046 A 
ATOM     20  C   UNL     1      -1.462   5.188  25.080  0.00  0.00    +0.120 A 
BRANCH  20   4
ATOM      4  O   UNL     1      -1.698   6.485  24.744  0.00  0.00    -0.495 OA
ATOM     26  C   UNL     1      -2.550   6.721  23.624  0.00  0.00    +0.277 C 
ENDBRANCH  20   4
ENDBRANCH  13  14
ENDBRANCH   5  13
ENDBRANCH   8   5
BRANCH  10  12
ATOM     12  C   UNL     1      -2.851  -2.889  24.509  0.00  0.00    +0.140 C 
BRANCH  12   6
ATOM      3  O   UNL     1      -3.642  -0.640  26.097  0.00  0.00    -0.253 OA
ATOM      6  N   UNL     1      -3.440  -1.670  24.035  0.00  0.00    -0.297 N 
ATOM      7  N   UNL     1      -4.349   0.445  24.139  0.00  0.00    -0.269 N 
ATOM     15  C   UNL     1      -3.802  -0.607  24.880  0.00  0.00    +0.304 C 
ATOM     30  H   UNL     1      -3.611  -1.575  23.040  0.00  0.00    +0.150 HD
ATOM     31  H   UNL     1      -4.410   0.310  23.133  0.00  0.00    +0.156 HD
BRANCH   7  21
ATOM     21  C   UNL     1      -4.832   1.684  24.619  0.00  0.00    +0.035 A 
ATOM     22  C   UNL     1      -4.393   2.876  24.044  0.00  0.00    +0.023 A 
ATOM     23  C   UNL     1      -5.749   1.714  25.670  0.00  0.00    +0.023 A 
ATOM     24  C   UNL     1      -4.869   4.098  24.519  0.00  0.00    +0.002 A 
ATOM     25  C   UNL     1      -6.225   2.935  26.146  0.00  0.00    +0.002 A 
ATOM     27  C   UNL     1      -5.786   4.128  25.570  0.00  0.00    +0.000 A 
ENDBRANCH   7  21
ENDBRANCH  12   6
ENDBRANCH  10  12
TORSDOF 8
ENDMDL
