MODEL 1
REMARK VINA RESULT:       6.0      0.000      0.000
REMARK  Name = 45783585
REMARK  6 active torsions:
REMARK  status: ('A' for Active; 'I' for Inactive)
REMARK    1  A    between atoms: O_2  and  C_19
REMARK    2  A    between atoms: O_2  and  C_27
REMARK    3  A    between atoms: N_3  and  C_8
REMARK    4  A    between atoms: N_4  and  C_18
REMARK    5  A    between atoms: C_9  and  C_17
REMARK    6  A    between atoms: C_25  and  C_26
REMARK                            x       y       z     vdW  Elec       q    Type
REMARK                         _______ _______ _______ _____ _____    ______ ____
ROOT
ATOM      1  O   UNL     1      -2.035   3.105  25.053  0.00  0.00    -0.336 OA
ATOM      5  N   UNL     1      -1.881   1.370  23.644  0.00  0.00    -0.190 NA
ATOM      6  N   UNL     1      -0.675   2.972  24.746  0.00  0.00    -0.056 NA
ATOM     17  C   UNL     1      -2.674   2.125  24.362  0.00  0.00    +0.245 A 
ATOM     25  C   UNL     1      -0.664   1.929  23.911  0.00  0.00    +0.204 A 
ENDROOT
BRANCH  25  26
ATOM      7  N   UNL     1       2.920   1.658  22.959  0.00  0.00    -0.221 NA
ATOM     26  C   UNL     1       0.543   1.418  23.329  0.00  0.00    +0.041 A 
ATOM     27  C   UNL     1       2.877   0.509  22.247  0.00  0.00    +0.215 A 
ATOM     28  C   UNL     1       0.539   0.241  22.589  0.00  0.00    +0.018 A 
ATOM     29  C   UNL     1       1.748   2.083  23.483  0.00  0.00    +0.126 A 
ATOM     30  C   UNL     1       1.724  -0.229  22.035  0.00  0.00    +0.068 A 
BRANCH  27   2
ATOM      2  O   UNL     1       4.058   0.066  21.711  0.00  0.00    -0.473 OA
BRANCH   2  19
ATOM     19  C   UNL     1       5.107  -0.227  22.627  0.00  0.00    +0.175 C 
ATOM     20  C   UNL     1       4.724  -1.441  23.474  0.00  0.00    +0.044 C 
ATOM     21  C   UNL     1       5.388   0.999  23.495  0.00  0.00    +0.044 C 
ATOM     22  C   UNL     1       5.776  -1.736  24.538  0.00  0.00    +0.004 C 
ATOM     23  C   UNL     1       6.440   0.703  24.559  0.00  0.00    +0.004 C 
ATOM     24  C   UNL     1       6.059  -0.510  25.405  0.00  0.00    +0.000 C 
ENDBRANCH   2  19
ENDBRANCH  27   2
ENDBRANCH  25  26
BRANCH  17   9
ATOM      3  N   UNL     1      -4.585   1.265  25.705  0.00  0.00    -0.288 NA
ATOM      9  C   UNL     1      -4.178   2.055  24.525  0.00  0.00    +0.146 C 
ATOM     10  C   UNL     1      -5.861   1.822  26.155  0.00  0.00    +0.085 C 
ATOM     13  C   UNL     1      -4.818   3.439  24.741  0.00  0.00    +0.030 C 
ATOM     14  C   UNL     1      -5.613   3.312  26.034  0.00  0.00    +0.017 C 
BRANCH   3   8
ATOM      4  N   UNL     1      -3.527  -2.589  24.256  0.00  0.00    -0.305 NA
ATOM      8  C   UNL     1      -4.676  -0.168  25.435  0.00  0.00    +0.060 C 
ATOM     11  C   UNL     1      -3.492  -0.903  26.069  0.00  0.00    +0.034 C 
ATOM     12  C   UNL     1      -4.712  -0.440  23.927  0.00  0.00    +0.034 C 
ATOM     15  C   UNL     1      -3.517  -2.392  25.713  0.00  0.00    +0.085 C 
ATOM     16  C   UNL     1      -4.695  -1.944  23.640  0.00  0.00    +0.085 C 
ATOM     18  C   UNL     1      -3.499  -4.014  23.932  0.00  0.00    +0.104 C 
ENDBRANCH   3   8
ENDBRANCH  17   9
TORSDOF 5
ENDMDL
MODEL 2
REMARK VINA RESULT:       6.7      1.842      3.887
REMARK  Name = 45783585
REMARK  6 active torsions:
REMARK  status: ('A' for Active; 'I' for Inactive)
REMARK    1  A    between atoms: O_2  and  C_19
REMARK    2  A    between atoms: O_2  and  C_27
REMARK    3  A    between atoms: N_3  and  C_8
REMARK    4  A    between atoms: N_4  and  C_18
REMARK    5  A    between atoms: C_9  and  C_17
REMARK    6  A    between atoms: C_25  and  C_26
REMARK                            x       y       z     vdW  Elec       q    Type
REMARK                         _______ _______ _______ _____ _____    ______ ____
ROOT
ATOM      1  O   UNL     1      -3.231  -0.704  25.107  0.00  0.00    -0.336 OA
ATOM      5  N   UNL     1      -2.199   1.148  24.383  0.00  0.00    -0.190 NA
ATOM      6  N   UNL     1      -2.029  -1.129  24.527  0.00  0.00    -0.056 NA
ATOM     17  C   UNL     1      -3.251   0.649  24.981  0.00  0.00    +0.245 A 
ATOM     25  C   UNL     1      -1.477   0.019  24.123  0.00  0.00    +0.204 A 
ENDROOT
BRANCH  25  26
ATOM      7  N   UNL     1       2.007   1.030  23.304  0.00  0.00    -0.221 NA
ATOM     26  C   UNL     1      -0.208   0.073  23.456  0.00  0.00    +0.041 A 
ATOM     27  C   UNL     1       2.227   0.230  22.235  0.00  0.00    +0.215 A 
ATOM     28  C   UNL     1       0.056  -0.733  22.354  0.00  0.00    +0.018 A 
ATOM     29  C   UNL     1       0.791   0.929  23.888  0.00  0.00    +0.126 A 
ATOM     30  C   UNL     1       1.294  -0.659  21.726  0.00  0.00    +0.068 A 
BRANCH  27   2
ATOM      2  O   UNL     1       3.455   0.322  21.634  0.00  0.00    -0.473 OA
BRANCH   2  19
ATOM     19  C   UNL     1       4.582  -0.050  22.420  0.00  0.00    +0.175 C 
ATOM     20  C   UNL     1       4.234  -1.271  23.270  0.00  0.00    +0.044 C 
ATOM     21  C   UNL     1       5.018   1.132  23.284  0.00  0.00    +0.044 C 
ATOM     22  C   UNL     1       5.380  -1.651  24.203  0.00  0.00    +0.004 C 
ATOM     23  C   UNL     1       6.163   0.753  24.217  0.00  0.00    +0.004 C 
ATOM     24  C   UNL     1       5.817  -0.469  25.066  0.00  0.00    +0.000 C 
ENDBRANCH   2  19
ENDBRANCH  27   2
ENDBRANCH  25  26
BRANCH  17   9
ATOM      3  N   UNL     1      -4.959   2.428  24.647  0.00  0.00    -0.288 NA
ATOM      9  C   UNL     1      -4.465   1.361  25.540  0.00  0.00    +0.146 C 
ATOM     10  C   UNL     1      -6.400   2.530  24.883  0.00  0.00    +0.085 C 
ATOM     13  C   UNL     1      -5.671   0.421  25.731  0.00  0.00    +0.030 C 
ATOM     14  C   UNL     1      -6.809   1.074  24.959  0.00  0.00    +0.017 C 
BRANCH   3   8
ATOM      4  N   UNL     1      -1.792   5.247  24.946  0.00  0.00    -0.305 NA
ATOM      8  C   UNL     1      -4.278   3.705  24.845  0.00  0.00    +0.060 C 
ATOM     11  C   UNL     1      -3.508   4.096  23.581  0.00  0.00    +0.034 C 
ATOM     12  C   UNL     1      -3.321   3.637  26.040  0.00  0.00    +0.034 C 
ATOM     15  C   UNL     1      -2.707   5.382  23.803  0.00  0.00    +0.085 C 
ATOM     16  C   UNL     1      -2.525   4.937  26.181  0.00  0.00    +0.085 C 
ATOM     18  C   UNL     1      -0.999   6.464  25.113  0.00  0.00    +0.104 C 
ENDBRANCH   3   8
ENDBRANCH  17   9
TORSDOF 5
ENDMDL
MODEL 3
REMARK VINA RESULT:       8.9      1.019      1.355
REMARK  Name = 45783585
REMARK  6 active torsions:
REMARK  status: ('A' for Active; 'I' for Inactive)
REMARK    1  A    between atoms: O_2  and  C_19
REMARK    2  A    between atoms: O_2  and  C_27
REMARK    3  A    between atoms: N_3  and  C_8
REMARK    4  A    between atoms: N_4  and  C_18
REMARK    5  A    between atoms: C_9  and  C_17
REMARK    6  A    between atoms: C_25  and  C_26
REMARK                            x       y       z     vdW  Elec       q    Type
REMARK                         _______ _______ _______ _____ _____    ______ ____
ROOT
ATOM      1  O   UNL     1      -1.682   3.010  25.001  0.00  0.00    -0.336 OA
ATOM      5  N   UNL     1      -1.477   1.217  23.673  0.00  0.00    -0.190 NA
ATOM      6  N   UNL     1      -0.307   2.787  24.857  0.00  0.00    -0.056 NA
ATOM     17  C   UNL     1      -2.298   2.042  24.272  0.00  0.00    +0.245 A 
ATOM     25  C   UNL     1      -0.266   1.714  24.061  0.00  0.00    +0.204 A 
ENDROOT
BRANCH  25  26
ATOM      7  N   UNL     1       2.199  -0.883  23.059  0.00  0.00    -0.221 NA
ATOM     26  C   UNL     1       0.965   1.114  23.637  0.00  0.00    +0.041 A 
ATOM     27  C   UNL     1       3.276  -0.096  22.836  0.00  0.00    +0.215 A 
ATOM     28  C   UNL     1       2.095   1.890  23.399  0.00  0.00    +0.018 A 
ATOM     29  C   UNL     1       1.069  -0.255  23.455  0.00  0.00    +0.126 A 
ATOM     30  C   UNL     1       3.275   1.281  22.990  0.00  0.00    +0.068 A 
BRANCH  27   2
ATOM      2  O   UNL     1       4.428  -0.720  22.434  0.00  0.00    -0.473 OA
BRANCH   2  19
ATOM     19  C   UNL     1       5.649  -0.037  22.691  0.00  0.00    +0.175 C 
ATOM     20  C   UNL     1       6.829  -0.936  22.324  0.00  0.00    +0.044 C 
ATOM     21  C   UNL     1       5.701   0.388  24.158  0.00  0.00    +0.044 C 
ATOM     22  C   UNL     1       8.163  -0.284  22.672  0.00  0.00    +0.004 C 
ATOM     23  C   UNL     1       7.035   1.041  24.507  0.00  0.00    +0.004 C 
ATOM     24  C   UNL     1       8.214   0.143  24.138  0.00  0.00    +0.000 C 
ENDBRANCH   2  19
ENDBRANCH  27   2
ENDBRANCH  25  26
BRANCH  17   9
ATOM      3  N   UNL     1      -4.397   1.386  25.437  0.00  0.00    -0.288 NA
ATOM      9  C   UNL     1      -3.813   2.064  24.263  0.00  0.00    +0.146 C 
ATOM     10  C   UNL     1      -5.679   2.042  25.697  0.00  0.00    +0.085 C 
ATOM     13  C   UNL     1      -4.387   3.493  24.311  0.00  0.00    +0.030 C 
ATOM     14  C   UNL     1      -5.328   3.503  25.508  0.00  0.00    +0.017 C 
BRANCH   3   8
ATOM      4  N   UNL     1      -3.433  -2.610  24.355  0.00  0.00    -0.305 NA
ATOM      8  C   UNL     1      -4.546  -0.056  25.253  0.00  0.00    +0.060 C 
ATOM     11  C   UNL     1      -3.472  -0.804  26.049  0.00  0.00    +0.034 C 
ATOM     12  C   UNL     1      -4.454  -0.432  23.771  0.00  0.00    +0.034 C 
ATOM     15  C   UNL     1      -3.549  -2.311  25.790  0.00  0.00    +0.085 C 
ATOM     16  C   UNL     1      -4.498  -1.951  23.586  0.00  0.00    +0.085 C 
ATOM     18  C   UNL     1      -3.456  -4.054  24.130  0.00  0.00    +0.104 C 
ENDBRANCH   3   8
ENDBRANCH  17   9
TORSDOF 5
ENDMDL
