MODEL 1
REMARK VINA RESULT:       1.0      0.000      0.000
REMARK  Name = 11884040
REMARK  8 active torsions:
REMARK  status: ('A' for Active; 'I' for Inactive)
REMARK    1  A    between atoms: O_3  and  C_13
REMARK    2  A    between atoms: O_3  and  C_17
REMARK    3  A    between atoms: O_6  and  C_27
REMARK    4  A    between atoms: O_6  and  C_31
REMARK    5  A    between atoms: N_7  and  C_12
REMARK    6  A    between atoms: N_8  and  C_18
REMARK    7  A    between atoms: N_9  and  C_19
REMARK    8  A    between atoms: C_18  and  C_20
REMARK                            x       y       z     vdW  Elec       q    Type
REMARK                         _______ _______ _______ _____ _____    ______ ____
ROOT
ATOM      1  O   UNL     1      -3.970   2.983  26.490  0.00  0.00    -0.368 OA
ATOM      2  O   UNL     1      -6.300   4.497  25.194  0.00  0.00    -0.368 OA
ATOM     10  C   UNL     1      -5.762   3.181  24.950  0.00  0.00    +0.173 C 
ATOM     11  C   UNL     1      -4.259   3.283  25.114  0.00  0.00    +0.192 C 
ATOM     12  C   UNL     1      -6.184   2.237  26.052  0.00  0.00    +0.131 C 
ATOM     13  C   UNL     1      -3.994   4.734  24.790  0.00  0.00    +0.235 C 
ATOM     14  C   UNL     1      -5.170   2.540  27.142  0.00  0.00    +0.185 C 
ATOM     15  C   UNL     1      -5.213   5.418  25.366  0.00  0.00    +0.207 C 
ENDROOT
BRANCH  12   7
ATOM      4  O   UNL     1      -4.075   1.029  24.495  0.00  0.00    -0.253 OA
ATOM      7  N   UNL     1      -6.098   0.862  25.623  0.00  0.00    -0.292 N 
ATOM      8  N   UNL     1      -5.208  -0.993  24.594  0.00  0.00    -0.295 N 
ATOM     16  C   UNL     1      -5.038   0.360  24.869  0.00  0.00    +0.300 C 
ATOM     37  H   UNL     1      -6.812   0.211  25.937  0.00  0.00    +0.151 HD
ATOM     38  H   UNL     1      -6.025  -1.469  24.964  0.00  0.00    +0.151 HD
BRANCH   8  18
ATOM     18  C   UNL     1      -4.254  -1.762  23.827  0.00  0.00    +0.141 C 
BRANCH  18  20
ATOM     20  C   UNL     1      -2.897  -1.774  24.470  0.00  0.00    -0.030 A 
ATOM     23  C   UNL     1      -2.629  -0.912  25.526  0.00  0.00    +0.005 A 
ATOM     24  C   UNL     1      -1.923  -2.648  24.002  0.00  0.00    +0.005 A 
ATOM     28  C   UNL     1      -1.368  -0.922  26.124  0.00  0.00    +0.000 A 
ATOM     29  C   UNL     1      -0.662  -2.658  24.599  0.00  0.00    +0.000 A 
ATOM     30  C   UNL     1      -0.385  -1.796  25.660  0.00  0.00    +0.000 A 
ENDBRANCH  18  20
ENDBRANCH   8  18
ENDBRANCH  12   7
BRANCH  13   3
ATOM      3  O   UNL     1      -2.796   5.225  25.348  0.00  0.00    -0.442 OA
BRANCH   3  17
ATOM      5  O   UNL     1      -0.543   5.191  24.958  0.00  0.00    -0.226 OA
ATOM      9  N   UNL     1      -1.889   3.317  24.560  0.00  0.00    -0.251 N 
ATOM     17  C   UNL     1      -1.625   4.616  24.947  0.00  0.00    +0.405 C 
ATOM     39  H   UNL     1      -2.859   3.017  24.622  0.00  0.00    +0.158 HD
BRANCH   9  19
ATOM     19  C   UNL     1      -0.976   2.348  24.084  0.00  0.00    +0.037 A 
ATOM     21  C   UNL     1      -1.372   1.479  23.079  0.00  0.00    +0.027 A 
ATOM     22  C   UNL     1       0.296   2.286  24.631  0.00  0.00    +0.027 A 
ATOM     25  C   UNL     1      -0.470   0.523  22.609  0.00  0.00    +0.048 A 
ATOM     26  C   UNL     1       1.197   1.331  24.159  0.00  0.00    +0.048 A 
ATOM     27  C   UNL     1       0.813   0.449  23.149  0.00  0.00    +0.129 A 
BRANCH  27   6
ATOM      6  O   UNL     1       1.691  -0.485  22.691  0.00  0.00    -0.456 OA
BRANCH   6  31
ATOM     31  C   UNL     1       3.022  -0.348  23.051  0.00  0.00    +0.128 A 
ATOM     32  C   UNL     1       3.654  -1.390  23.704  0.00  0.00    +0.046 A 
ATOM     33  C   UNL     1       3.684   0.828  22.746  0.00  0.00    +0.046 A 
ATOM     34  C   UNL     1       4.994  -1.252  24.066  0.00  0.00    +0.004 A 
ATOM     35  C   UNL     1       5.024   0.966  23.108  0.00  0.00    +0.004 A 
ATOM     36  C   UNL     1       5.679  -0.074  23.768  0.00  0.00    +0.000 A 
ENDBRANCH   6  31
ENDBRANCH  27   6
ENDBRANCH   9  19
ENDBRANCH   3  17
ENDBRANCH  13   3
TORSDOF 8
ENDMDL
MODEL 2
REMARK VINA RESULT:       3.3      2.349      4.528
REMARK  Name = 11884040
REMARK  8 active torsions:
REMARK  status: ('A' for Active; 'I' for Inactive)
REMARK    1  A    between atoms: O_3  and  C_13
REMARK    2  A    between atoms: O_3  and  C_17
REMARK    3  A    between atoms: O_6  and  C_27
REMARK    4  A    between atoms: O_6  and  C_31
REMARK    5  A    between atoms: N_7  and  C_12
REMARK    6  A    between atoms: N_8  and  C_18
REMARK    7  A    between atoms: N_9  and  C_19
REMARK    8  A    between atoms: C_18  and  C_20
REMARK                            x       y       z     vdW  Elec       q    Type
REMARK                         _______ _______ _______ _____ _____    ______ ____
ROOT
ATOM      1  O   UNL     1      -3.838   2.146  23.810  0.00  0.00    -0.368 OA
ATOM      2  O   UNL     1      -5.844   3.136  25.907  0.00  0.00    -0.368 OA
ATOM     10  C   UNL     1      -4.406   3.034  25.934  0.00  0.00    +0.173 C 
ATOM     11  C   UNL     1      -4.040   1.771  25.182  0.00  0.00    +0.192 C 
ATOM     12  C   UNL     1      -3.792   4.139  25.104  0.00  0.00    +0.131 C 
ATOM     13  C   UNL     1      -5.277   0.920  25.354  0.00  0.00    +0.235 C 
ATOM     14  C   UNL     1      -3.888   3.576  23.697  0.00  0.00    +0.185 C 
ATOM     15  C   UNL     1      -6.382   1.950  25.303  0.00  0.00    +0.207 C 
ENDROOT
BRANCH  12   7
ATOM      4  O   UNL     1      -1.698   2.172  25.374  0.00  0.00    -0.253 OA
ATOM      7  N   UNL     1      -2.420   4.376  25.482  0.00  0.00    -0.292 N 
ATOM      8  N   UNL     1      -0.230   3.866  25.969  0.00  0.00    -0.295 N 
ATOM     16  C   UNL     1      -1.470   3.361  25.589  0.00  0.00    +0.300 C 
ATOM     37  H   UNL     1      -2.114   5.335  25.617  0.00  0.00    +0.151 HD
ATOM     38  H   UNL     1      -0.130   4.868  26.103  0.00  0.00    +0.151 HD
BRANCH   8  18
ATOM     18  C   UNL     1       0.933   3.029  26.154  0.00  0.00    +0.141 C 
BRANCH  18  20
ATOM     20  C   UNL     1       1.244   2.813  27.607  0.00  0.00    -0.030 A 
ATOM     23  C   UNL     1       2.555   2.925  28.053  0.00  0.00    +0.005 A 
ATOM     24  C   UNL     1       0.217   2.504  28.491  0.00  0.00    +0.005 A 
ATOM     28  C   UNL     1       2.845   2.724  29.403  0.00  0.00    +0.000 A 
ATOM     29  C   UNL     1       0.507   2.303  29.840  0.00  0.00    +0.000 A 
ATOM     30  C   UNL     1       1.821   2.413  30.296  0.00  0.00    +0.000 A 
ENDBRANCH  18  20
ENDBRANCH   8  18
ENDBRANCH  12   7
BRANCH  13   3
ATOM      3  O   UNL     1      -5.423  -0.067  24.359  0.00  0.00    -0.442 OA
BRANCH   3  17
ATOM      5  O   UNL     1      -4.415  -1.980  23.616  0.00  0.00    -0.226 OA
ATOM      9  N   UNL     1      -3.173  -0.178  24.446  0.00  0.00    -0.251 N 
ATOM     17  C   UNL     1      -4.324  -0.856  24.094  0.00  0.00    +0.405 C 
ATOM     39  H   UNL     1      -3.300   0.755  24.831  0.00  0.00    +0.158 HD
BRANCH   9  19
ATOM     19  C   UNL     1      -1.834  -0.621  24.340  0.00  0.00    +0.037 A 
ATOM     21  C   UNL     1      -1.006  -0.054  23.384  0.00  0.00    +0.027 A 
ATOM     22  C   UNL     1      -1.377  -1.611  25.194  0.00  0.00    +0.027 A 
ATOM     25  C   UNL     1       0.315  -0.490  23.280  0.00  0.00    +0.048 A 
ATOM     26  C   UNL     1      -0.055  -2.047  25.090  0.00  0.00    +0.048 A 
ATOM     27  C   UNL     1       0.790  -1.486  24.132  0.00  0.00    +0.129 A 
BRANCH  27   6
ATOM      6  O   UNL     1       2.079  -1.913  24.029  0.00  0.00    -0.456 OA
BRANCH   6  31
ATOM     31  C   UNL     1       3.037  -0.982  23.663  0.00  0.00    +0.128 A 
ATOM     32  C   UNL     1       4.365  -1.229  23.962  0.00  0.00    +0.046 A 
ATOM     33  C   UNL     1       2.641   0.171  23.010  0.00  0.00    +0.046 A 
ATOM     34  C   UNL     1       5.330  -0.292  23.594  0.00  0.00    +0.004 A 
ATOM     35  C   UNL     1       3.607   1.109  22.642  0.00  0.00    +0.004 A 
ATOM     36  C   UNL     1       4.950   0.877  22.934  0.00  0.00    +0.000 A 
ENDBRANCH   6  31
ENDBRANCH  27   6
ENDBRANCH   9  19
ENDBRANCH   3  17
ENDBRANCH  13   3
TORSDOF 8
ENDMDL
