MODEL 1
REMARK VINA RESULT:      -3.3      0.000      0.000
REMARK  Name = 45784238
REMARK  2 active torsions:
REMARK  status: ('A' for Active; 'I' for Inactive)
REMARK    1  A    between atoms: N_3  and  C_6
REMARK    2  A    between atoms: C_7  and  C_13
REMARK                            x       y       z     vdW  Elec       q    Type
REMARK                         _______ _______ _______ _____ _____    ______ ____
ROOT
ATOM      3  N   UNL     1      11.007  -9.387  31.919  0.00  0.00    -0.299 NA
ATOM      7  C   UNL     1      12.851  -8.213  31.072  0.00  0.00    +0.070 C 
ATOM      8  C   UNL     1      11.353  -8.073  31.372  0.00  0.00    +0.096 C 
ATOM      9  C   UNL     1      12.107  -9.720  32.825  0.00  0.00    +0.085 C 
ATOM     10  C   UNL     1      13.338  -9.318  32.024  0.00  0.00    +0.028 C 
ENDROOT
BRANCH   7  13
ATOM      1  F   UNL     1      17.061  -2.370  30.122  0.00  0.00    -0.205 F 
ATOM      4  N   UNL     1      14.454  -6.489  30.198  0.00  0.00    -0.341 N 
ATOM      5  N   UNL     1      13.532  -6.042  32.172  0.00  0.00    -0.232 NA
ATOM     13  C   UNL     1      13.598  -6.904  31.181  0.00  0.00    +0.113 A 
ATOM     16  C   UNL     1      14.974  -5.280  30.580  0.00  0.00    +0.069 A 
ATOM     17  C   UNL     1      14.383  -5.022  31.814  0.00  0.00    +0.089 A 
ATOM     18  C   UNL     1      15.883  -4.414  29.969  0.00  0.00    +0.066 A 
ATOM     19  C   UNL     1      14.707  -3.835  32.494  0.00  0.00    +0.032 A 
ATOM     20  C   UNL     1      16.193  -3.239  30.661  0.00  0.00    +0.125 A 
ATOM     21  C   UNL     1      15.617  -2.952  31.900  0.00  0.00    +0.040 A 
ATOM     22  H   UNL     1      14.667  -6.984  29.343  0.00  0.00    +0.167 HD
ENDBRANCH   7  13
BRANCH   3   6
ATOM      2  O   UNL     1       6.838  -9.390  32.415  0.00  0.00    -0.380 OA
ATOM      6  C   UNL     1       9.711  -9.386  32.594  0.00  0.00    +0.061 C 
ATOM     11  C   UNL     1       8.912  -8.138  32.210  0.00  0.00    +0.047 C 
ATOM     12  C   UNL     1       8.911 -10.647  32.252  0.00  0.00    +0.047 C 
ATOM     14  C   UNL     1       7.513  -8.198  32.817  0.00  0.00    +0.161 C 
ATOM     15  C   UNL     1       7.513 -10.568  32.855  0.00  0.00    +0.161 C 
ENDBRANCH   3   6
TORSDOF 2
ENDMDL
MODEL 2
REMARK VINA RESULT:      -3.1     15.452     16.935
REMARK  Name = 45784238
REMARK  2 active torsions:
REMARK  status: ('A' for Active; 'I' for Inactive)
REMARK    1  A    between atoms: N_3  and  C_6
REMARK    2  A    between atoms: C_7  and  C_13
REMARK                            x       y       z     vdW  Elec       q    Type
REMARK                         _______ _______ _______ _____ _____    ______ ____
ROOT
ATOM      3  N   UNL     1      -2.874   0.311  24.606  0.00  0.00    -0.299 NA
ATOM      7  C   UNL     1      -0.946  -0.469  23.526  0.00  0.00    +0.070 C 
ATOM      8  C   UNL     1      -1.713   0.814  23.869  0.00  0.00    +0.096 C 
ATOM      9  C   UNL     1      -2.338  -0.715  25.500  0.00  0.00    +0.085 C 
ATOM     10  C   UNL     1      -1.379  -1.482  24.599  0.00  0.00    +0.028 C 
ENDROOT
BRANCH   7  13
ATOM      1  F   UNL     1       6.301  -0.968  23.645  0.00  0.00    -0.205 F 
ATOM      4  N   UNL     1       1.434  -1.221  23.801  0.00  0.00    -0.341 N 
ATOM      5  N   UNL     1       1.155   0.827  22.982  0.00  0.00    -0.232 NA
ATOM     13  C   UNL     1       0.547  -0.252  23.422  0.00  0.00    +0.113 A 
ATOM     16  C   UNL     1       2.699  -0.735  23.592  0.00  0.00    +0.069 A 
ATOM     17  C   UNL     1       2.497   0.545  23.080  0.00  0.00    +0.089 A 
ATOM     18  C   UNL     1       3.963  -1.287  23.799  0.00  0.00    +0.066 A 
ATOM     19  C   UNL     1       3.613   1.333  22.750  0.00  0.00    +0.032 A 
ATOM     20  C   UNL     1       5.062  -0.488  23.466  0.00  0.00    +0.125 A 
ATOM     21  C   UNL     1       4.892   0.799  22.950  0.00  0.00    +0.040 A 
ATOM     22  H   UNL     1       1.203  -2.133  24.171  0.00  0.00    +0.167 HD
ENDBRANCH   7  13
BRANCH   3   6
ATOM      2  O   UNL     1      -5.088   3.818  25.264  0.00  0.00    -0.380 OA
ATOM      6  C   UNL     1      -3.576   1.369  25.330  0.00  0.00    +0.061 C 
ATOM     11  C   UNL     1      -2.926   2.726  25.052  0.00  0.00    +0.047 C 
ATOM     12  C   UNL     1      -5.059   1.408  24.947  0.00  0.00    +0.047 C 
ATOM     14  C   UNL     1      -3.731   3.843  25.708  0.00  0.00    +0.161 C 
ATOM     15  C   UNL     1      -5.746   2.598  25.608  0.00  0.00    +0.161 C 
ENDBRANCH   3   6
TORSDOF 2
ENDMDL
MODEL 3
REMARK VINA RESULT:      -2.0     15.370     16.828
REMARK  Name = 45784238
REMARK  2 active torsions:
REMARK  status: ('A' for Active; 'I' for Inactive)
REMARK    1  A    between atoms: N_3  and  C_6
REMARK    2  A    between atoms: C_7  and  C_13
REMARK                            x       y       z     vdW  Elec       q    Type
REMARK                         _______ _______ _______ _____ _____    ______ ____
ROOT
ATOM      3  N   UNL     1      -2.308   1.393  23.713  0.00  0.00    -0.299 NA
ATOM      7  C   UNL     1      -0.512   0.047  23.036  0.00  0.00    +0.070 C 
ATOM      8  C   UNL     1      -0.947   1.510  23.184  0.00  0.00    +0.096 C 
ATOM      9  C   UNL     1      -2.229   0.343  24.728  0.00  0.00    +0.085 C 
ATOM     10  C   UNL     1      -1.379  -0.723  24.047  0.00  0.00    +0.028 C 
ENDROOT
BRANCH   7  13
ATOM      1  F   UNL     1       6.721   0.687  23.250  0.00  0.00    -0.205 F 
ATOM      4  N   UNL     1       1.861   0.851  22.885  0.00  0.00    -0.341 N 
ATOM      5  N   UNL     1       1.588  -1.223  23.637  0.00  0.00    -0.232 NA
ATOM     13  C   UNL     1       0.978  -0.144  23.200  0.00  0.00    +0.113 A 
ATOM     16  C   UNL     1       3.125   0.383  23.137  0.00  0.00    +0.069 A 
ATOM     17  C   UNL     1       2.928  -0.913  23.606  0.00  0.00    +0.089 A 
ATOM     18  C   UNL     1       4.386   0.966  23.000  0.00  0.00    +0.066 A 
ATOM     19  C   UNL     1       4.044  -1.688  23.963  0.00  0.00    +0.032 A 
ATOM     20  C   UNL     1       5.485   0.179  23.361  0.00  0.00    +0.125 A 
ATOM     21  C   UNL     1       5.320  -1.124  23.834  0.00  0.00    +0.040 A 
ATOM     22  H   UNL     1       1.628   1.768  22.530  0.00  0.00    +0.167 HD
ENDBRANCH   7  13
BRANCH   3   6
ATOM      2  O   UNL     1      -3.501   4.250  26.549  0.00  0.00    -0.380 OA
ATOM      6  C   UNL     1      -2.806   2.655  24.255  0.00  0.00    +0.061 C 
ATOM     11  C   UNL     1      -4.087   2.421  25.060  0.00  0.00    +0.047 C 
ATOM     12  C   UNL     1      -1.750   3.332  25.135  0.00  0.00    +0.047 C 
ATOM     14  C   UNL     1      -4.538   3.716  25.726  0.00  0.00    +0.161 C 
ATOM     15  C   UNL     1      -2.330   4.576  25.798  0.00  0.00    +0.161 C 
ENDBRANCH   3   6
TORSDOF 2
ENDMDL
MODEL 4
REMARK VINA RESULT:      -1.8      1.466      2.187
REMARK  Name = 45784238
REMARK  2 active torsions:
REMARK  status: ('A' for Active; 'I' for Inactive)
REMARK    1  A    between atoms: N_3  and  C_6
REMARK    2  A    between atoms: C_7  and  C_13
REMARK                            x       y       z     vdW  Elec       q    Type
REMARK                         _______ _______ _______ _____ _____    ______ ____
ROOT
ATOM      3  N   UNL     1       9.941 -10.083  31.453  0.00  0.00    -0.299 NA
ATOM      7  C   UNL     1      12.188  -9.416  31.453  0.00  0.00    +0.070 C 
ATOM      8  C   UNL     1      10.789  -8.980  30.998  0.00  0.00    +0.096 C 
ATOM      9  C   UNL     1      10.421 -10.399  32.798  0.00  0.00    +0.085 C 
ATOM     10  C   UNL     1      11.935 -10.370  32.632  0.00  0.00    +0.028 C 
ENDROOT
BRANCH   7  13
ATOM      1  F   UNL     1      15.289  -2.909  32.353  0.00  0.00    -0.205 F 
ATOM      4  N   UNL     1      12.708  -6.960  31.520  0.00  0.00    -0.341 N 
ATOM      5  N   UNL     1      14.308  -8.310  32.271  0.00  0.00    -0.232 NA
ATOM     13  C   UNL     1      13.097  -8.249  31.762  0.00  0.00    +0.113 A 
ATOM     16  C   UNL     1      13.735  -6.135  31.899  0.00  0.00    +0.069 A 
ATOM     17  C   UNL     1      14.722  -7.001  32.364  0.00  0.00    +0.089 A 
ATOM     18  C   UNL     1      13.882  -4.747  31.876  0.00  0.00    +0.066 A 
ATOM     19  C   UNL     1      15.933  -6.468  32.838  0.00  0.00    +0.032 A 
ATOM     20  C   UNL     1      15.093  -4.235  32.351  0.00  0.00    +0.125 A 
ATOM     21  C   UNL     1      16.102  -5.077  32.824  0.00  0.00    +0.040 A 
ATOM     22  H   UNL     1      11.822  -6.665  31.132  0.00  0.00    +0.167 HD
ENDBRANCH   7  13
BRANCH   3   6
ATOM      2  O   UNL     1       6.163  -8.922  32.872  0.00  0.00    -0.380 OA
ATOM      6  C   UNL     1       8.521  -9.738  31.435  0.00  0.00    +0.061 C 
ATOM     11  C   UNL     1       7.728 -10.700  32.324  0.00  0.00    +0.047 C 
ATOM     12  C   UNL     1       8.298  -8.294  31.896  0.00  0.00    +0.047 C 
ATOM     14  C   UNL     1       6.268 -10.266  32.403  0.00  0.00    +0.161 C 
ATOM     15  C   UNL     1       6.807  -7.994  31.999  0.00  0.00    +0.161 C 
ENDBRANCH   3   6
TORSDOF 2
ENDMDL
MODEL 5
REMARK VINA RESULT:      -1.5     15.891     17.833
REMARK  Name = 45784238
REMARK  2 active torsions:
REMARK  status: ('A' for Active; 'I' for Inactive)
REMARK    1  A    between atoms: N_3  and  C_6
REMARK    2  A    between atoms: C_7  and  C_13
REMARK                            x       y       z     vdW  Elec       q    Type
REMARK                         _______ _______ _______ _____ _____    ______ ____
ROOT
ATOM      3  N   UNL     1       1.993  -0.843  22.781  0.00  0.00    -0.299 NA
ATOM      7  C   UNL     1      -0.185  -0.327  23.479  0.00  0.00    +0.070 C 
ATOM      8  C   UNL     1       1.282  -0.268  23.925  0.00  0.00    +0.096 C 
ATOM      9  C   UNL     1       1.358  -0.251  21.604  0.00  0.00    +0.085 C 
ATOM     10  C   UNL     1      -0.125  -0.335  21.941  0.00  0.00    +0.028 C 
ENDROOT
BRANCH   7  13
ATOM      1  F   UNL     1      -5.486   4.143  25.643  0.00  0.00    -0.205 F 
ATOM      4  N   UNL     1      -2.384   0.805  23.908  0.00  0.00    -0.341 N 
ATOM      5  N   UNL     1      -0.599   1.791  24.794  0.00  0.00    -0.232 NA
ATOM     13  C   UNL     1      -1.028   0.776  24.077  0.00  0.00    +0.113 A 
ATOM     16  C   UNL     1      -2.862   1.913  24.559  0.00  0.00    +0.069 A 
ATOM     17  C   UNL     1      -1.729   2.511  25.104  0.00  0.00    +0.089 A 
ATOM     18  C   UNL     1      -4.151   2.427  24.715  0.00  0.00    +0.066 A 
ATOM     19  C   UNL     1      -1.871   3.693  25.851  0.00  0.00    +0.032 A 
ATOM     20  C   UNL     1      -4.272   3.604  25.461  0.00  0.00    +0.125 A 
ATOM     21  C   UNL     1      -3.155   4.227  26.020  0.00  0.00    +0.040 A 
ATOM     22  H   UNL     1      -2.938   0.133  23.395  0.00  0.00    +0.167 HD
ENDBRANCH   7  13
BRANCH   3   6
ATOM      2  O   UNL     1       5.715   0.368  24.299  0.00  0.00    -0.380 OA
ATOM      6  C   UNL     1       3.430  -0.582  22.829  0.00  0.00    +0.061 C 
ATOM     11  C   UNL     1       3.692   0.908  23.064  0.00  0.00    +0.047 C 
ATOM     12  C   UNL     1       4.105  -1.413  23.925  0.00  0.00    +0.047 C 
ATOM     14  C   UNL     1       5.187   1.161  23.237  0.00  0.00    +0.161 C 
ATOM     15  C   UNL     1       5.576  -1.031  24.050  0.00  0.00    +0.161 C 
ENDBRANCH   3   6
TORSDOF 2
ENDMDL
MODEL 6
REMARK VINA RESULT:      -0.8     16.513     18.843
REMARK  Name = 45784238
REMARK  2 active torsions:
REMARK  status: ('A' for Active; 'I' for Inactive)
REMARK    1  A    between atoms: N_3  and  C_6
REMARK    2  A    between atoms: C_7  and  C_13
REMARK                            x       y       z     vdW  Elec       q    Type
REMARK                         _______ _______ _______ _____ _____    ______ ____
ROOT
ATOM      3  N   UNL     1       0.610  -0.855  23.962  0.00  0.00    -0.299 NA
ATOM      7  C   UNL     1      -1.438  -0.549  25.062  0.00  0.00    +0.070 C 
ATOM      8  C   UNL     1      -0.151   0.183  24.662  0.00  0.00    +0.096 C 
ATOM      9  C   UNL     1      -0.370  -1.535  23.116  0.00  0.00    +0.085 C 
ATOM     10  C   UNL     1      -1.566  -1.697  24.046  0.00  0.00    +0.028 C 
ENDROOT
BRANCH   7  13
ATOM      1  F   UNL     1      -6.045   5.050  25.503  0.00  0.00    -0.205 F 
ATOM      4  N   UNL     1      -2.490   1.724  25.228  0.00  0.00    -0.341 N 
ATOM      5  N   UNL     1      -3.901   0.008  25.139  0.00  0.00    -0.232 NA
ATOM     13  C   UNL     1      -2.637   0.368  25.141  0.00  0.00    +0.113 A 
ATOM     16  C   UNL     1      -3.743   2.277  25.285  0.00  0.00    +0.069 A 
ATOM     17  C   UNL     1      -4.606   1.186  25.228  0.00  0.00    +0.089 A 
ATOM     18  C   UNL     1      -4.182   3.599  25.378  0.00  0.00    +0.066 A 
ATOM     19  C   UNL     1      -5.994   1.409  25.265  0.00  0.00    +0.032 A 
ATOM     20  C   UNL     1      -5.566   3.801  25.414  0.00  0.00    +0.125 A 
ATOM     21  C   UNL     1      -6.457   2.727  25.358  0.00  0.00    +0.040 A 
ATOM     22  H   UNL     1      -1.616   2.232  25.247  0.00  0.00    +0.167 HD
ENDBRANCH   7  13
BRANCH   3   6
ATOM      2  O   UNL     1       4.279   1.021  23.156  0.00  0.00    -0.380 OA
ATOM      6  C   UNL     1       1.724  -0.306  23.192  0.00  0.00    +0.061 C 
ATOM     11  C   UNL     1       1.874   1.193  23.467  0.00  0.00    +0.047 C 
ATOM     12  C   UNL     1       3.032  -1.033  23.521  0.00  0.00    +0.047 C 
ATOM     14  C   UNL     1       3.110   1.740  22.760  0.00  0.00    +0.161 C 
ATOM     15  C   UNL     1       4.204  -0.363  22.812  0.00  0.00    +0.161 C 
ENDBRANCH   3   6
TORSDOF 2
ENDMDL
MODEL 7
REMARK VINA RESULT:       0.4     16.719     18.360
REMARK  Name = 45784238
REMARK  2 active torsions:
REMARK  status: ('A' for Active; 'I' for Inactive)
REMARK    1  A    between atoms: N_3  and  C_6
REMARK    2  A    between atoms: C_7  and  C_13
REMARK                            x       y       z     vdW  Elec       q    Type
REMARK                         _______ _______ _______ _____ _____    ______ ____
ROOT
ATOM      3  N   UNL     1      -3.220   3.391  25.822  0.00  0.00    -0.299 NA
ATOM      7  C   UNL     1      -0.979   2.772  25.516  0.00  0.00    +0.070 C 
ATOM      8  C   UNL     1      -2.405   2.205  25.548  0.00  0.00    +0.096 C 
ATOM      9  C   UNL     1      -2.659   4.439  24.971  0.00  0.00    +0.085 C 
ATOM     10  C   UNL     1      -1.158   4.256  25.151  0.00  0.00    +0.028 C 
ENDROOT
BRANCH   7  13
ATOM      1  F   UNL     1       4.590   0.117  21.680  0.00  0.00    -0.205 F 
ATOM      4  N   UNL     1       1.266   2.318  24.488  0.00  0.00    -0.341 N 
ATOM      5  N   UNL     1      -0.385   0.979  23.836  0.00  0.00    -0.232 NA
ATOM     13  C   UNL     1      -0.059   1.998  24.600  0.00  0.00    +0.113 A 
ATOM     16  C   UNL     1       1.832   1.448  23.592  0.00  0.00    +0.069 A 
ATOM     17  C   UNL     1       0.781   0.622  23.200  0.00  0.00    +0.089 A 
ATOM     18  C   UNL     1       3.133   1.315  23.107  0.00  0.00    +0.066 A 
ATOM     19  C   UNL     1       1.026  -0.402  22.269  0.00  0.00    +0.032 A 
ATOM     20  C   UNL     1       3.358   0.291  22.181  0.00  0.00    +0.125 A 
ATOM     21  C   UNL     1       2.325  -0.553  21.768  0.00  0.00    +0.040 A 
ATOM     22  H   UNL     1       1.745   3.062  24.976  0.00  0.00    +0.167 HD
ENDBRANCH   7  13
BRANCH   3   6
ATOM      2  O   UNL     1      -6.861   1.336  25.434  0.00  0.00    -0.380 OA
ATOM      6  C   UNL     1      -4.640   3.163  25.563  0.00  0.00    +0.061 C 
ATOM     11  C   UNL     1      -4.818   2.169  24.412  0.00  0.00    +0.047 C 
ATOM     12  C   UNL     1      -5.353   2.648  26.817  0.00  0.00    +0.047 C 
ATOM     14  C   UNL     1      -6.295   1.838  24.223  0.00  0.00    +0.161 C 
ATOM     15  C   UNL     1      -6.800   2.290  26.494  0.00  0.00    +0.161 C 
ENDBRANCH   3   6
TORSDOF 2
ENDMDL
