MODEL 1
REMARK VINA RESULT:      -2.3      0.000      0.000
REMARK  Name = 11912241
REMARK  8 active torsions:
REMARK  status: ('A' for Active; 'I' for Inactive)
REMARK    1  A    between atoms: S_1  and  C_19
REMARK    2  A    between atoms: S_1  and  C_24
REMARK    3  A    between atoms: O_5  and  C_27
REMARK    4  A    between atoms: N_7  and  C_13
REMARK    5  A    between atoms: N_8  and  C_14
REMARK    6  A    between atoms: C_17  and  C_19
REMARK    7  A    between atoms: C_20  and  C_23
REMARK    8  A    between atoms: C_24  and  C_27
REMARK                            x       y       z     vdW  Elec       q    Type
REMARK                         _______ _______ _______ _____ _____    ______ ____
ROOT
ATOM      2  O   UNL     1      -1.142  -1.070  26.364  0.00  0.00    -0.370 OA
ATOM      3  O   UNL     1      -2.688  -2.545  24.091  0.00  0.00    -0.370 OA
ATOM     11  C   UNL     1      -2.003  -1.284  24.156  0.00  0.00    +0.171 C 
ATOM     12  C   UNL     1      -2.257  -0.703  25.534  0.00  0.00    +0.171 C 
ATOM     13  C   UNL     1      -0.506  -1.496  24.117  0.00  0.00    +0.130 C 
ATOM     14  C   UNL     1      -3.511  -1.402  26.003  0.00  0.00    +0.130 C 
ATOM     15  C   UNL     1      -0.181  -1.785  25.572  0.00  0.00    +0.185 C 
ATOM     16  C   UNL     1      -3.423  -2.747  25.307  0.00  0.00    +0.185 C 
ENDROOT
BRANCH  14   8
ATOM      8  N   UNL     1      -4.679  -0.678  25.551  0.00  0.00    -0.306 N 
ATOM      9  N   UNL     1      -3.479   1.293  25.299  0.00  0.00    -0.214 NA
ATOM     10  N   UNL     1      -5.834   1.190  24.798  0.00  0.00    -0.223 NA
ATOM     18  C   UNL     1      -4.663   0.659  25.201  0.00  0.00    +0.216 A 
ATOM     20  C   UNL     1      -3.500   2.596  24.950  0.00  0.00    +0.076 A 
ATOM     21  C   UNL     1      -5.782   2.496  24.464  0.00  0.00    +0.116 A 
ATOM     22  C   UNL     1      -4.632   3.258  24.520  0.00  0.00    +0.048 A 
ATOM     32  H   UNL     1      -5.556  -1.174  25.430  0.00  0.00    +0.149 HD
BRANCH  20  23
ATOM     23  C   UNL     1      -2.232   3.278  25.054  0.00  0.00    +0.001 A 
ATOM     25  C   UNL     1      -2.168   4.661  24.878  0.00  0.00    +0.010 A 
ATOM     26  C   UNL     1      -1.071   2.556  25.330  0.00  0.00    +0.010 A 
ATOM     28  C   UNL     1      -0.943   5.321  24.978  0.00  0.00    +0.001 A 
ATOM     29  C   UNL     1       0.154   3.216  25.431  0.00  0.00    +0.001 A 
ATOM     30  C   UNL     1       0.218   4.599  25.254  0.00  0.00    +0.000 A 
ENDBRANCH  20  23
ENDBRANCH  14   8
BRANCH  13   7
ATOM      4  O   UNL     1       2.305  -1.233  23.481  0.00  0.00    -0.275 OA
ATOM      7  N   UNL     1       0.177  -0.313  23.652  0.00  0.00    -0.307 N 
ATOM     17  C   UNL     1       1.534  -0.281  23.371  0.00  0.00    +0.223 C 
ATOM     31  H   UNL     1      -0.383   0.515  23.473  0.00  0.00    +0.149 HD
BRANCH  17  19
ATOM     19  C   UNL     1       2.012   1.079  22.918  0.00  0.00    +0.165 C 
BRANCH  19   1
ATOM      1  S   UNL     1       3.614   0.897  22.101  0.00  0.00    -0.140 S 
BRANCH   1  24
ATOM     24  C   UNL     1       4.671   0.937  23.568  0.00  0.00    +0.189 C 
BRANCH  24  27
ATOM      6  O   UNL     1       6.632  -0.359  23.034  0.00  0.00    -0.250 OA
ATOM     27  C   UNL     1       5.543  -0.285  23.589  0.00  0.00    +0.315 C 
BRANCH  27   5
ATOM      5  O   UNL     1       5.002  -1.304  24.304  0.00  0.00    -0.480 OA
ATOM     33  H   UNL     1       5.314  -2.178  23.989  0.00  0.00    +0.295 HD
ENDBRANCH  27   5
ENDBRANCH  24  27
ENDBRANCH   1  24
ENDBRANCH  19   1
ENDBRANCH  17  19
ENDBRANCH  13   7
TORSDOF 8
ENDMDL
MODEL 2
REMARK VINA RESULT:      -1.3     16.063     17.876
REMARK  Name = 11912241
REMARK  8 active torsions:
REMARK  status: ('A' for Active; 'I' for Inactive)
REMARK    1  A    between atoms: S_1  and  C_19
REMARK    2  A    between atoms: S_1  and  C_24
REMARK    3  A    between atoms: O_5  and  C_27
REMARK    4  A    between atoms: N_7  and  C_13
REMARK    5  A    between atoms: N_8  and  C_14
REMARK    6  A    between atoms: C_17  and  C_19
REMARK    7  A    between atoms: C_20  and  C_23
REMARK    8  A    between atoms: C_24  and  C_27
REMARK                            x       y       z     vdW  Elec       q    Type
REMARK                         _______ _______ _______ _____ _____    ______ ____
ROOT
ATOM      2  O   UNL     1      -7.311 -10.590   8.892  0.00  0.00    -0.370 OA
ATOM      3  O   UNL     1      -9.114  -8.044   8.836  0.00  0.00    -0.370 OA
ATOM     11  C   UNL     1      -8.024  -8.459   9.676  0.00  0.00    +0.171 C 
ATOM     12  C   UNL     1      -8.151  -9.958   9.873  0.00  0.00    +0.171 C 
ATOM     13  C   UNL     1      -6.708  -8.295   8.949  0.00  0.00    +0.130 C 
ATOM     14  C   UNL     1      -9.605 -10.246   9.580  0.00  0.00    +0.130 C 
ATOM     15  C   UNL     1      -6.619  -9.579   8.143  0.00  0.00    +0.185 C 
ATOM     16  C   UNL     1      -9.961  -9.172   8.569  0.00  0.00    +0.185 C 
ENDROOT
BRANCH  14   8
ATOM      8  N   UNL     1     -10.393 -10.084  10.782  0.00  0.00    -0.306 N 
ATOM      9  N   UNL     1      -8.518 -10.216  12.144  0.00  0.00    -0.214 NA
ATOM     10  N   UNL     1     -10.720  -9.908  13.074  0.00  0.00    -0.223 NA
ATOM     18  C   UNL     1      -9.854 -10.068  12.055  0.00  0.00    +0.216 A 
ATOM     20  C   UNL     1      -8.026 -10.196  13.400  0.00  0.00    +0.076 A 
ATOM     21  C   UNL     1     -10.160  -9.896  14.301  0.00  0.00    +0.116 A 
ATOM     22  C   UNL     1      -8.805 -10.038  14.528  0.00  0.00    +0.048 A 
ATOM     32  H   UNL     1     -11.391  -9.921  10.705  0.00  0.00    +0.149 HD
BRANCH  20  23
ATOM     23  C   UNL     1      -6.594 -10.354  13.499  0.00  0.00    +0.001 A 
ATOM     25  C   UNL     1      -5.967 -10.255  14.742  0.00  0.00    +0.010 A 
ATOM     26  C   UNL     1      -5.839 -10.606  12.355  0.00  0.00    +0.010 A 
ATOM     28  C   UNL     1      -4.583 -10.407  14.839  0.00  0.00    +0.001 A 
ATOM     29  C   UNL     1      -4.455 -10.759  12.451  0.00  0.00    +0.001 A 
ATOM     30  C   UNL     1      -3.827 -10.659  13.694  0.00  0.00    +0.000 A 
ENDBRANCH  20  23
ENDBRANCH  14   8
BRANCH  13   7
ATOM      4  O   UNL     1      -3.977  -9.164   8.545  0.00  0.00    -0.275 OA
ATOM      7  N   UNL     1      -5.609  -8.182   9.877  0.00  0.00    -0.307 N 
ATOM     17  C   UNL     1      -4.327  -8.628   9.595  0.00  0.00    +0.223 C 
ATOM     31  H   UNL     1      -5.781  -7.701  10.755  0.00  0.00    +0.149 HD
BRANCH  17  19
ATOM     19  C   UNL     1      -3.361  -8.412  10.736  0.00  0.00    +0.165 C 
BRANCH  19   1
ATOM      1  S   UNL     1      -1.705  -8.903  10.204  0.00  0.00    -0.140 S 
BRANCH   1  24
ATOM     24  C   UNL     1      -0.896  -8.920  11.822  0.00  0.00    +0.189 C 
BRANCH  24  27
ATOM      6  O   UNL     1       0.868  -7.424  12.503  0.00  0.00    -0.250 OA
ATOM     27  C   UNL     1       0.451  -8.264  11.715  0.00  0.00    +0.315 C 
BRANCH  27   5
ATOM      5  O   UNL     1       1.169  -8.710  10.653  0.00  0.00    -0.480 OA
ATOM     33  H   UNL     1       0.797  -8.396   9.802  0.00  0.00    +0.295 HD
ENDBRANCH  27   5
ENDBRANCH  24  27
ENDBRANCH   1  24
ENDBRANCH  19   1
ENDBRANCH  17  19
ENDBRANCH  13   7
TORSDOF 8
ENDMDL
MODEL 3
REMARK VINA RESULT:      -0.3      2.308      4.908
REMARK  Name = 11912241
REMARK  8 active torsions:
REMARK  status: ('A' for Active; 'I' for Inactive)
REMARK    1  A    between atoms: S_1  and  C_19
REMARK    2  A    between atoms: S_1  and  C_24
REMARK    3  A    between atoms: O_5  and  C_27
REMARK    4  A    between atoms: N_7  and  C_13
REMARK    5  A    between atoms: N_8  and  C_14
REMARK    6  A    between atoms: C_17  and  C_19
REMARK    7  A    between atoms: C_20  and  C_23
REMARK    8  A    between atoms: C_24  and  C_27
REMARK                            x       y       z     vdW  Elec       q    Type
REMARK                         _______ _______ _______ _____ _____    ______ ____
ROOT
ATOM      2  O   UNL     1      -1.496   2.937  23.327  0.00  0.00    -0.370 OA
ATOM      3  O   UNL     1      -1.351   4.900  25.748  0.00  0.00    -0.370 OA
ATOM     11  C   UNL     1      -1.463   3.470  25.645  0.00  0.00    +0.171 C 
ATOM     12  C   UNL     1      -2.355   3.172  24.455  0.00  0.00    +0.171 C 
ATOM     13  C   UNL     1      -0.130   2.865  25.267  0.00  0.00    +0.130 C 
ATOM     14  C   UNL     1      -3.143   4.445  24.257  0.00  0.00    +0.130 C 
ATOM     15  C   UNL     1      -0.127   3.005  23.755  0.00  0.00    +0.185 C 
ATOM     16  C   UNL     1      -2.185   5.512  24.752  0.00  0.00    +0.185 C 
ENDROOT
BRANCH  14   8
ATOM      8  N   UNL     1      -4.334   4.422  25.077  0.00  0.00    -0.306 N 
ATOM      9  N   UNL     1      -4.398   2.101  25.086  0.00  0.00    -0.214 NA
ATOM     10  N   UNL     1      -6.059   3.402  26.251  0.00  0.00    -0.223 NA
ATOM     18  C   UNL     1      -4.958   3.258  25.490  0.00  0.00    +0.216 A 
ATOM     20  C   UNL     1      -5.031   0.986  25.507  0.00  0.00    +0.076 A 
ATOM     21  C   UNL     1      -6.641   2.247  26.636  0.00  0.00    +0.116 A 
ATOM     22  C   UNL     1      -6.167   0.997  26.291  0.00  0.00    +0.048 A 
ATOM     32  H   UNL     1      -4.720   5.295  25.420  0.00  0.00    +0.149 HD
BRANCH  20  23
ATOM     23  C   UNL     1      -4.434  -0.256  25.078  0.00  0.00    +0.001 A 
ATOM     25  C   UNL     1      -3.835  -1.102  26.012  0.00  0.00    +0.010 A 
ATOM     26  C   UNL     1      -4.456  -0.612  23.730  0.00  0.00    +0.010 A 
ATOM     28  C   UNL     1      -3.258  -2.303  25.598  0.00  0.00    +0.001 A 
ATOM     29  C   UNL     1      -3.880  -1.813  23.315  0.00  0.00    +0.001 A 
ATOM     30  C   UNL     1      -3.280  -2.658  24.250  0.00  0.00    +0.000 A 
ENDBRANCH  20  23
ENDBRANCH  14   8
BRANCH  13   7
ATOM      4  O   UNL     1      -1.390   0.601  23.978  0.00  0.00    -0.275 OA
ATOM      7  N   UNL     1      -0.054   1.480  25.664  0.00  0.00    -0.307 N 
ATOM     17  C   UNL     1      -0.694   0.457  24.982  0.00  0.00    +0.223 C 
ATOM     31  H   UNL     1       0.545   1.247  26.450  0.00  0.00    +0.149 HD
BRANCH  17  19
ATOM     19  C   UNL     1      -0.474  -0.900  25.608  0.00  0.00    +0.165 C 
BRANCH  19   1
ATOM      1  S   UNL     1       0.672  -1.844  24.576  0.00  0.00    -0.140 S 
BRANCH   1  24
ATOM     24  C   UNL     1       0.917  -0.625  23.261  0.00  0.00    +0.189 C 
BRANCH  24  27
ATOM      6  O   UNL     1       3.298  -0.993  23.180  0.00  0.00    -0.250 OA
ATOM     27  C   UNL     1       2.359  -0.209  23.229  0.00  0.00    +0.315 C 
BRANCH  27   5
ATOM      5  O   UNL     1       2.516   1.139  23.245  0.00  0.00    -0.480 OA
ATOM     33  H   UNL     1       3.218   1.418  23.870  0.00  0.00    +0.295 HD
ENDBRANCH  27   5
ENDBRANCH  24  27
ENDBRANCH   1  24
ENDBRANCH  19   1
ENDBRANCH  17  19
ENDBRANCH  13   7
TORSDOF 8
ENDMDL
MODEL 4
REMARK VINA RESULT:      -0.3      3.334      5.395
REMARK  Name = 11912241
REMARK  8 active torsions:
REMARK  status: ('A' for Active; 'I' for Inactive)
REMARK    1  A    between atoms: S_1  and  C_19
REMARK    2  A    between atoms: S_1  and  C_24
REMARK    3  A    between atoms: O_5  and  C_27
REMARK    4  A    between atoms: N_7  and  C_13
REMARK    5  A    between atoms: N_8  and  C_14
REMARK    6  A    between atoms: C_17  and  C_19
REMARK    7  A    between atoms: C_20  and  C_23
REMARK    8  A    between atoms: C_24  and  C_27
REMARK                            x       y       z     vdW  Elec       q    Type
REMARK                         _______ _______ _______ _____ _____    ______ ____
ROOT
ATOM      2  O   UNL     1      -3.645   3.118  23.674  0.00  0.00    -0.370 OA
ATOM      3  O   UNL     1      -5.519   2.425  26.070  0.00  0.00    -0.370 OA
ATOM     11  C   UNL     1      -4.095   2.358  25.883  0.00  0.00    +0.171 C 
ATOM     12  C   UNL     1      -3.848   1.925  24.450  0.00  0.00    +0.171 C 
ATOM     13  C   UNL     1      -3.490   3.741  25.959  0.00  0.00    +0.130 C 
ATOM     14  C   UNL     1      -5.136   1.248  24.042  0.00  0.00    +0.130 C 
ATOM     15  C   UNL     1      -3.684   4.259  24.545  0.00  0.00    +0.185 C 
ATOM     16  C   UNL     1      -6.175   1.979  24.873  0.00  0.00    +0.185 C 
ENDROOT
BRANCH  14   8
ATOM      8  N   UNL     1      -5.096  -0.151  24.406  0.00  0.00    -0.306 N 
ATOM      9  N   UNL     1      -2.794  -0.257  24.122  0.00  0.00    -0.214 NA
ATOM     10  N   UNL     1      -4.061  -2.190  24.805  0.00  0.00    -0.223 NA
ATOM     18  C   UNL     1      -3.933  -0.899  24.447  0.00  0.00    +0.216 A 
ATOM     20  C   UNL     1      -1.680  -1.016  24.173  0.00  0.00    +0.076 A 
ATOM     21  C   UNL     1      -2.907  -2.890  24.835  0.00  0.00    +0.116 A 
ATOM     22  C   UNL     1      -1.674  -2.350  24.526  0.00  0.00    +0.048 A 
ATOM     32  H   UNL     1      -5.949  -0.614  24.699  0.00  0.00    +0.149 HD
BRANCH  20  23
ATOM     23  C   UNL     1      -0.457  -0.332  23.826  0.00  0.00    +0.001 A 
ATOM     25  C   UNL     1      -0.267   0.995  24.213  0.00  0.00    +0.010 A 
ATOM     26  C   UNL     1       0.535  -0.997  23.106  0.00  0.00    +0.010 A 
ATOM     28  C   UNL     1       0.915   1.657  23.879  0.00  0.00    +0.001 A 
ATOM     29  C   UNL     1       1.718  -0.336  22.772  0.00  0.00    +0.001 A 
ATOM     30  C   UNL     1       1.907   0.992  23.158  0.00  0.00    +0.000 A 
ENDBRANCH  20  23
ENDBRANCH  14   8
BRANCH  13   7
ATOM      4  O   UNL     1      -1.256   4.751  24.421  0.00  0.00    -0.275 OA
ATOM      7  N   UNL     1      -2.091   3.681  26.307  0.00  0.00    -0.307 N 
ATOM     17  C   UNL     1      -1.085   4.194  25.504  0.00  0.00    +0.223 C 
ATOM     31  H   UNL     1      -1.847   3.290  27.212  0.00  0.00    +0.149 HD
BRANCH  17  19
ATOM     19  C   UNL     1       0.296   3.990  26.082  0.00  0.00    +0.165 C 
BRANCH  19   1
ATOM      1  S   UNL     1       0.272   2.540  27.162  0.00  0.00    -0.140 S 
BRANCH   1  24
ATOM     24  C   UNL     1       1.748   2.907  28.139  0.00  0.00    +0.189 C 
BRANCH  24  27
ATOM      6  O   UNL     1       0.700   2.902  30.310  0.00  0.00    -0.250 OA
ATOM     27  C   UNL     1       1.542   2.439  29.551  0.00  0.00    +0.315 C 
BRANCH  27   5
ATOM      5  O   UNL     1       2.384   1.432  29.898  0.00  0.00    -0.480 OA
ATOM     33  H   UNL     1       2.780   1.000  29.113  0.00  0.00    +0.295 HD
ENDBRANCH  27   5
ENDBRANCH  24  27
ENDBRANCH   1  24
ENDBRANCH  19   1
ENDBRANCH  17  19
ENDBRANCH  13   7
TORSDOF 8
ENDMDL
MODEL 5
REMARK VINA RESULT:       0.2      1.988      4.213
REMARK  Name = 11912241
REMARK  8 active torsions:
REMARK  status: ('A' for Active; 'I' for Inactive)
REMARK    1  A    between atoms: S_1  and  C_19
REMARK    2  A    between atoms: S_1  and  C_24
REMARK    3  A    between atoms: O_5  and  C_27
REMARK    4  A    between atoms: N_7  and  C_13
REMARK    5  A    between atoms: N_8  and  C_14
REMARK    6  A    between atoms: C_17  and  C_19
REMARK    7  A    between atoms: C_20  and  C_23
REMARK    8  A    between atoms: C_24  and  C_27
REMARK                            x       y       z     vdW  Elec       q    Type
REMARK                         _______ _______ _______ _____ _____    ______ ____
ROOT
ATOM      2  O   UNL     1      -0.928   4.041  24.036  0.00  0.00    -0.370 OA
ATOM      3  O   UNL     1      -2.156   3.394  26.830  0.00  0.00    -0.370 OA
ATOM     11  C   UNL     1      -1.894   2.598  25.663  0.00  0.00    +0.171 C 
ATOM     12  C   UNL     1      -2.178   3.466  24.451  0.00  0.00    +0.171 C 
ATOM     13  C   UNL     1      -0.417   2.292  25.557  0.00  0.00    +0.130 C 
ATOM     14  C   UNL     1      -3.100   4.541  24.977  0.00  0.00    +0.130 C 
ATOM     15  C   UNL     1       0.124   3.533  24.871  0.00  0.00    +0.185 C 
ATOM     16  C   UNL     1      -2.668   4.673  26.425  0.00  0.00    +0.185 C 
ENDROOT
BRANCH  14   8
ATOM      8  N   UNL     1      -4.474   4.096  24.901  0.00  0.00    -0.306 N 
ATOM      9  N   UNL     1      -3.852   1.860  24.960  0.00  0.00    -0.214 NA
ATOM     10  N   UNL     1      -6.168   2.510  24.820  0.00  0.00    -0.223 NA
ATOM     18  C   UNL     1      -4.847   2.764  24.894  0.00  0.00    +0.216 A 
ATOM     20  C   UNL     1      -4.252   0.571  24.951  0.00  0.00    +0.076 A 
ATOM     21  C   UNL     1      -6.497   1.201  24.816  0.00  0.00    +0.116 A 
ATOM     22  C   UNL     1      -5.572   0.178  24.880  0.00  0.00    +0.048 A 
ATOM     32  H   UNL     1      -5.221   4.782  24.904  0.00  0.00    +0.149 HD
BRANCH  20  23
ATOM     23  C   UNL     1      -3.187  -0.401  25.023  0.00  0.00    +0.001 A 
ATOM     25  C   UNL     1      -2.964  -1.270  23.954  0.00  0.00    +0.010 A 
ATOM     26  C   UNL     1      -2.382  -0.472  26.158  0.00  0.00    +0.010 A 
ATOM     28  C   UNL     1      -1.935  -2.211  24.022  0.00  0.00    +0.001 A 
ATOM     29  C   UNL     1      -1.352  -1.411  26.227  0.00  0.00    +0.001 A 
ATOM     30  C   UNL     1      -1.130  -2.281  25.159  0.00  0.00    +0.000 A 
ENDBRANCH  20  23
ENDBRANCH  14   8
BRANCH  13   7
ATOM      4  O   UNL     1       1.686   1.874  23.614  0.00  0.00    -0.275 OA
ATOM      7  N   UNL     1      -0.185   1.110  24.761  0.00  0.00    -0.307 N 
ATOM     17  C   UNL     1       0.854   1.000  23.850  0.00  0.00    +0.223 C 
ATOM     31  H   UNL     1      -0.785   0.307  24.923  0.00  0.00    +0.149 HD
BRANCH  17  19
ATOM     19  C   UNL     1       0.871  -0.328  23.130  0.00  0.00    +0.165 C 
BRANCH  19   1
ATOM      1  S   UNL     1       2.268  -0.356  21.983  0.00  0.00    -0.140 S 
BRANCH   1  24
ATOM     24  C   UNL     1       3.577  -0.770  23.160  0.00  0.00    +0.189 C 
BRANCH  24  27
ATOM      6  O   UNL     1       5.773   0.142  23.553  0.00  0.00    -0.250 OA
ATOM     27  C   UNL     1       4.636   0.293  23.124  0.00  0.00    +0.315 C 
BRANCH  27   5
ATOM      5  O   UNL     1       4.205   1.444  22.549  0.00  0.00    -0.480 OA
ATOM     33  H   UNL     1       4.946   2.056  22.354  0.00  0.00    +0.295 HD
ENDBRANCH  27   5
ENDBRANCH  24  27
ENDBRANCH   1  24
ENDBRANCH  19   1
ENDBRANCH  17  19
ENDBRANCH  13   7
TORSDOF 8
ENDMDL
MODEL 6
REMARK VINA RESULT:       1.0      3.736      7.317
REMARK  Name = 11912241
REMARK  8 active torsions:
REMARK  status: ('A' for Active; 'I' for Inactive)
REMARK    1  A    between atoms: S_1  and  C_19
REMARK    2  A    between atoms: S_1  and  C_24
REMARK    3  A    between atoms: O_5  and  C_27
REMARK    4  A    between atoms: N_7  and  C_13
REMARK    5  A    between atoms: N_8  and  C_14
REMARK    6  A    between atoms: C_17  and  C_19
REMARK    7  A    between atoms: C_20  and  C_23
REMARK    8  A    between atoms: C_24  and  C_27
REMARK                            x       y       z     vdW  Elec       q    Type
REMARK                         _______ _______ _______ _____ _____    ______ ____
ROOT
ATOM      2  O   UNL     1      -1.984   3.164  26.615  0.00  0.00    -0.370 OA
ATOM      3  O   UNL     1      -1.080   5.224  24.454  0.00  0.00    -0.370 OA
ATOM     11  C   UNL     1      -1.929   4.065  24.414  0.00  0.00    +0.171 C 
ATOM     12  C   UNL     1      -1.324   3.031  25.345  0.00  0.00    +0.171 C 
ATOM     13  C   UNL     1      -3.272   4.377  25.033  0.00  0.00    +0.130 C 
ATOM     14  C   UNL     1       0.124   3.442  25.461  0.00  0.00    +0.130 C 
ATOM     15  C   UNL     1      -3.004   4.169  26.513  0.00  0.00    +0.185 C 
ATOM     16  C   UNL     1       0.060   4.947  25.281  0.00  0.00    +0.185 C 
ENDROOT
BRANCH  14   8
ATOM      8  N   UNL     1       0.896   2.842  24.395  0.00  0.00    -0.306 N 
ATOM      9  N   UNL     1      -0.195   0.805  24.623  0.00  0.00    -0.214 NA
ATOM     10  N   UNL     1       1.531   1.122  22.971  0.00  0.00    -0.223 NA
ATOM     18  C   UNL     1       0.737   1.533  23.978  0.00  0.00    +0.216 A 
ATOM     20  C   UNL     1      -0.323  -0.467  24.190  0.00  0.00    +0.076 A 
ATOM     21  C   UNL     1       1.350  -0.160  22.589  0.00  0.00    +0.116 A 
ATOM     22  C   UNL     1       0.428  -1.010  23.168  0.00  0.00    +0.048 A 
ATOM     32  H   UNL     1       1.559   3.410  23.879  0.00  0.00    +0.149 HD
BRANCH  20  23
ATOM     23  C   UNL     1      -1.321  -1.250  24.879  0.00  0.00    +0.001 A 
ATOM     25  C   UNL     1      -1.783  -0.845  26.132  0.00  0.00    +0.010 A 
ATOM     26  C   UNL     1      -1.825  -2.410  24.293  0.00  0.00    +0.010 A 
ATOM     28  C   UNL     1      -2.747  -1.601  26.798  0.00  0.00    +0.001 A 
ATOM     29  C   UNL     1      -2.790  -3.166  24.958  0.00  0.00    +0.001 A 
ATOM     30  C   UNL     1      -3.251  -2.762  26.211  0.00  0.00    +0.000 A 
ENDBRANCH  20  23
ENDBRANCH  14   8
BRANCH  13   7
ATOM      4  O   UNL     1      -5.991   4.131  25.995  0.00  0.00    -0.275 OA
ATOM      7  N   UNL     1      -4.291   3.473  24.554  0.00  0.00    -0.307 N 
ATOM     17  C   UNL     1      -5.573   3.426  25.078  0.00  0.00    +0.223 C 
ATOM     31  H   UNL     1      -4.063   2.887  23.757  0.00  0.00    +0.149 HD
BRANCH  17  19
ATOM     19  C   UNL     1      -6.444   2.383  24.418  0.00  0.00    +0.165 C 
BRANCH  19   1
ATOM      1  S   UNL     1      -6.227   0.807  25.275  0.00  0.00    -0.140 S 
BRANCH   1  24
ATOM     24  C   UNL     1      -4.424   0.697  25.185  0.00  0.00    +0.189 C 
BRANCH  24  27
ATOM      6  O   UNL     1      -4.372  -0.839  23.329  0.00  0.00    -0.250 OA
ATOM     27  C   UNL     1      -4.020   0.226  23.818  0.00  0.00    +0.315 C 
BRANCH  27   5
ATOM      5  O   UNL     1      -3.227   1.117  23.170  0.00  0.00    -0.480 OA
ATOM     33  H   UNL     1      -3.604   1.378  22.303  0.00  0.00    +0.295 HD
ENDBRANCH  27   5
ENDBRANCH  24  27
ENDBRANCH   1  24
ENDBRANCH  19   1
ENDBRANCH  17  19
ENDBRANCH  13   7
TORSDOF 8
ENDMDL
MODEL 7
REMARK VINA RESULT:       1.0      3.611      7.511
REMARK  Name = 11912241
REMARK  8 active torsions:
REMARK  status: ('A' for Active; 'I' for Inactive)
REMARK    1  A    between atoms: S_1  and  C_19
REMARK    2  A    between atoms: S_1  and  C_24
REMARK    3  A    between atoms: O_5  and  C_27
REMARK    4  A    between atoms: N_7  and  C_13
REMARK    5  A    between atoms: N_8  and  C_14
REMARK    6  A    between atoms: C_17  and  C_19
REMARK    7  A    between atoms: C_20  and  C_23
REMARK    8  A    between atoms: C_24  and  C_27
REMARK                            x       y       z     vdW  Elec       q    Type
REMARK                         _______ _______ _______ _____ _____    ______ ____
ROOT
ATOM      2  O   UNL     1      -1.608   3.173  26.589  0.00  0.00    -0.370 OA
ATOM      3  O   UNL     1      -1.267   4.706  23.892  0.00  0.00    -0.370 OA
ATOM     11  C   UNL     1      -1.814   3.420  24.231  0.00  0.00    +0.171 C 
ATOM     12  C   UNL     1      -0.961   2.847  25.347  0.00  0.00    +0.171 C 
ATOM     13  C   UNL     1      -3.180   3.580  24.858  0.00  0.00    +0.130 C 
ATOM     14  C   UNL     1       0.349   3.589  25.228  0.00  0.00    +0.130 C 
ATOM     15  C   UNL     1      -2.841   3.855  26.312  0.00  0.00    +0.185 C 
ATOM     16  C   UNL     1      -0.077   4.931  24.664  0.00  0.00    +0.185 C 
ENDROOT
BRANCH  14   8
ATOM      8  N   UNL     1       1.221   2.908  24.296  0.00  0.00    -0.306 N 
ATOM      9  N   UNL     1       0.015   0.931  24.465  0.00  0.00    -0.214 NA
ATOM     10  N   UNL     1       1.950   1.097  23.038  0.00  0.00    -0.223 NA
ATOM     18  C   UNL     1       1.055   1.588  23.916  0.00  0.00    +0.216 A 
ATOM     20  C   UNL     1      -0.118  -0.353  24.072  0.00  0.00    +0.076 A 
ATOM     21  C   UNL     1       1.757  -0.192  22.689  0.00  0.00    +0.116 A 
ATOM     22  C   UNL     1       0.731  -0.974  23.179  0.00  0.00    +0.048 A 
ATOM     32  H   UNL     1       1.970   3.423  23.847  0.00  0.00    +0.149 HD
BRANCH  20  23
ATOM     23  C   UNL     1      -1.231  -1.061  24.658  0.00  0.00    +0.001 A 
ATOM     25  C   UNL     1      -1.755  -0.645  25.882  0.00  0.00    +0.010 A 
ATOM     26  C   UNL     1      -1.784  -2.159  24.001  0.00  0.00    +0.010 A 
ATOM     28  C   UNL     1      -2.832  -1.328  26.450  0.00  0.00    +0.001 A 
ATOM     29  C   UNL     1      -2.861  -2.842  24.566  0.00  0.00    +0.001 A 
ATOM     30  C   UNL     1      -3.384  -2.426  25.792  0.00  0.00    +0.000 A 
ENDBRANCH  20  23
ENDBRANCH  14   8
BRANCH  13   7
ATOM      4  O   UNL     1      -2.891   1.524  22.842  0.00  0.00    -0.275 OA
ATOM      7  N   UNL     1      -3.962   2.375  24.721  0.00  0.00    -0.307 N 
ATOM     17  C   UNL     1      -3.750   1.441  23.719  0.00  0.00    +0.223 C 
ATOM     31  H   UNL     1      -4.662   2.184  25.432  0.00  0.00    +0.149 HD
BRANCH  17  19
ATOM     19  C   UNL     1      -4.711   0.277  23.782  0.00  0.00    +0.165 C 
BRANCH  19   1
ATOM      1  S   UNL     1      -5.734   0.439  25.263  0.00  0.00    -0.140 S 
BRANCH   1  24
ATOM     24  C   UNL     1      -6.609   1.959  24.821  0.00  0.00    +0.189 C 
BRANCH  24  27
ATOM      6  O   UNL     1      -6.308   4.197  25.665  0.00  0.00    -0.250 OA
ATOM     27  C   UNL     1      -6.383   2.994  25.884  0.00  0.00    +0.315 C 
BRANCH  27   5
ATOM      5  O   UNL     1      -6.282   2.457  27.126  0.00  0.00    -0.480 OA
ATOM     33  H   UNL     1      -6.185   1.482  27.097  0.00  0.00    +0.295 HD
ENDBRANCH  27   5
ENDBRANCH  24  27
ENDBRANCH   1  24
ENDBRANCH  19   1
ENDBRANCH  17  19
ENDBRANCH  13   7
TORSDOF 8
ENDMDL
