MODEL 1
REMARK VINA RESULT:      -1.9      0.000      0.000
REMARK  Name = 11912249
REMARK  9 active torsions:
REMARK  status: ('A' for Active; 'I' for Inactive)
REMARK    1  A    between atoms: S_1  and  N_10
REMARK    2  A    between atoms: S_1  and  C_25
REMARK    3  A    between atoms: S_2  and  C_26
REMARK    4  A    between atoms: S_2  and  C_27
REMARK    5  A    between atoms: O_8  and  C_28
REMARK    6  A    between atoms: N_12  and  C_19
REMARK    7  A    between atoms: C_14  and  C_18
REMARK    8  A    between atoms: C_22  and  C_26
REMARK    9  A    between atoms: C_27  and  C_28
REMARK                            x       y       z     vdW  Elec       q    Type
REMARK                         _______ _______ _______ _____ _____    ______ ____
ROOT
ATOM      6  O   UNL     1       0.892   2.468  26.219  0.00  0.00    -0.275 OA
ATOM     10  N   UNL     1      -4.045   2.793  25.410  0.00  0.00    -0.167 NA
ATOM     11  N   UNL     1      -1.156   2.898  25.217  0.00  0.00    -0.298 N 
ATOM     14  C   UNL     1      -3.375   2.581  24.098  0.00  0.00    +0.182 C 
ATOM     15  C   UNL     1      -1.970   3.177  24.027  0.00  0.00    +0.137 C 
ATOM     16  C   UNL     1      -3.234   3.516  26.423  0.00  0.00    +0.129 C 
ATOM     17  C   UNL     1      -1.854   2.882  26.501  0.00  0.00    +0.125 C 
ATOM     22  C   UNL     1       0.221   2.678  25.205  0.00  0.00    +0.226 C 
ENDROOT
BRANCH  10   1
ATOM      1  S   UNL     1      -5.713   3.166  25.373  0.00  0.00    +0.030 S 
ATOM      4  O   UNL     1      -6.292   2.596  24.176  0.00  0.00    -0.158 OA
ATOM      5  O   UNL     1      -5.886   4.562  25.712  0.00  0.00    -0.158 OA
ATOM     25  C   UNL     1      -6.252   2.196  26.758  0.00  0.00    +0.215 C 
ENDBRANCH  10   1
BRANCH  14  18
ATOM      3  O   UNL     1      -3.323   0.562  22.829  0.00  0.00    -0.274 OA
ATOM     12  N   UNL     1      -3.366   0.434  25.153  0.00  0.00    -0.303 N 
ATOM     18  C   UNL     1      -3.345   1.094  23.936  0.00  0.00    +0.234 C 
ATOM     29  H   UNL     1      -3.372   0.979  26.011  0.00  0.00    +0.149 HD
BRANCH  12  19
ATOM      7  O   UNL     1      -1.021  -0.808  25.806  0.00  0.00    -0.274 OA
ATOM     13  N   UNL     1      -1.684  -2.734  24.774  0.00  0.00    -0.314 N 
ATOM     19  C   UNL     1      -3.366  -1.001  25.271  0.00  0.00    +0.159 C 
ATOM     20  C   UNL     1      -4.224  -1.634  24.185  0.00  0.00    +0.033 C 
ATOM     21  C   UNL     1      -4.066  -3.145  24.226  0.00  0.00    +0.021 C 
ATOM     23  C   UNL     1      -1.916  -1.472  25.281  0.00  0.00    +0.233 C 
ATOM     24  C   UNL     1      -2.614  -3.499  23.964  0.00  0.00    +0.104 C 
ATOM     30  H   UNL     1      -0.731  -3.082  24.827  0.00  0.00    +0.149 HD
ENDBRANCH  12  19
ENDBRANCH  14  18
BRANCH  22  26
ATOM     26  C   UNL     1       0.896   2.701  23.857  0.00  0.00    +0.165 C 
BRANCH  26   2
ATOM      2  S   UNL     1       1.424   1.023  23.480  0.00  0.00    -0.140 S 
BRANCH   2  27
ATOM     27  C   UNL     1       3.056   1.392  22.790  0.00  0.00    +0.189 C 
BRANCH  27  28
ATOM      9  O   UNL     1       5.216   0.572  23.478  0.00  0.00    -0.250 OA
ATOM     28  C   UNL     1       4.036   0.346  23.240  0.00  0.00    +0.315 C 
BRANCH  28   8
ATOM      8  O   UNL     1       3.471  -0.881  23.371  0.00  0.00    -0.480 OA
ATOM     31  H   UNL     1       3.645  -1.449  22.590  0.00  0.00    +0.295 HD
ENDBRANCH  28   8
ENDBRANCH  27  28
ENDBRANCH   2  27
ENDBRANCH  26   2
ENDBRANCH  22  26
TORSDOF 8
ENDMDL
MODEL 2
REMARK VINA RESULT:      -0.1      2.356      5.082
REMARK  Name = 11912249
REMARK  9 active torsions:
REMARK  status: ('A' for Active; 'I' for Inactive)
REMARK    1  A    between atoms: S_1  and  N_10
REMARK    2  A    between atoms: S_1  and  C_25
REMARK    3  A    between atoms: S_2  and  C_26
REMARK    4  A    between atoms: S_2  and  C_27
REMARK    5  A    between atoms: O_8  and  C_28
REMARK    6  A    between atoms: N_12  and  C_19
REMARK    7  A    between atoms: C_14  and  C_18
REMARK    8  A    between atoms: C_22  and  C_26
REMARK    9  A    between atoms: C_27  and  C_28
REMARK                            x       y       z     vdW  Elec       q    Type
REMARK                         _______ _______ _______ _____ _____    ______ ____
ROOT
ATOM      6  O   UNL     1       1.830  -0.224  21.424  0.00  0.00    -0.275 OA
ATOM     10  N   UNL     1      -2.065  -1.045  24.472  0.00  0.00    -0.167 NA
ATOM     11  N   UNL     1       0.550  -0.534  23.335  0.00  0.00    -0.298 N 
ATOM     14  C   UNL     1      -1.099  -0.163  25.184  0.00  0.00    +0.182 C 
ATOM     15  C   UNL     1       0.355  -0.406  24.784  0.00  0.00    +0.137 C 
ATOM     16  C   UNL     1      -1.460  -1.978  23.488  0.00  0.00    +0.129 C 
ATOM     17  C   UNL     1      -0.511  -1.206  22.586  0.00  0.00    +0.125 C 
ATOM     22  C   UNL     1       1.674  -0.087  22.640  0.00  0.00    +0.226 C 
ENDROOT
BRANCH  10   1
ATOM      1  S   UNL     1      -3.371  -1.657  25.389  0.00  0.00    +0.030 S 
ATOM      4  O   UNL     1      -3.204  -1.252  26.768  0.00  0.00    -0.158 OA
ATOM      5  O   UNL     1      -3.589  -3.040  25.025  0.00  0.00    -0.158 OA
ATOM     25  C   UNL     1      -4.686  -0.692  24.690  0.00  0.00    +0.215 C 
ENDBRANCH  10   1
BRANCH  14  18
ATOM      3  O   UNL     1      -1.798   1.548  23.679  0.00  0.00    -0.274 OA
ATOM     12  N   UNL     1      -1.582   2.054  25.940  0.00  0.00    -0.303 N 
ATOM     18  C   UNL     1      -1.537   1.223  24.833  0.00  0.00    +0.234 C 
ATOM     29  H   UNL     1      -1.354   1.672  26.855  0.00  0.00    +0.149 HD
BRANCH  12  19
ATOM      7  O   UNL     1      -4.216   2.671  25.560  0.00  0.00    -0.274 OA
ATOM     13  N   UNL     1      -3.671   4.667  24.593  0.00  0.00    -0.314 N 
ATOM     19  C   UNL     1      -1.951   3.443  25.868  0.00  0.00    +0.159 C 
ATOM     20  C   UNL     1      -0.917   4.239  25.084  0.00  0.00    +0.033 C 
ATOM     21  C   UNL     1      -1.417   5.659  24.874  0.00  0.00    +0.021 C 
ATOM     23  C   UNL     1      -3.366   3.525  25.305  0.00  0.00    +0.233 C 
ATOM     24  C   UNL     1      -2.705   5.617  24.073  0.00  0.00    +0.104 C 
ATOM     30  H   UNL     1      -4.627   4.759  24.262  0.00  0.00    +0.149 HD
ENDBRANCH  12  19
ENDBRANCH  14  18
BRANCH  22  26
ATOM     26  C   UNL     1       2.740   0.604  23.454  0.00  0.00    +0.165 C 
BRANCH  26   2
ATOM      2  S   UNL     1       3.993   1.209  22.314  0.00  0.00    -0.140 S 
BRANCH   2  27
ATOM     27  C   UNL     1       5.287  -0.012  22.649  0.00  0.00    +0.189 C 
BRANCH  27  28
ATOM      9  O   UNL     1       5.508   0.424  25.009  0.00  0.00    -0.250 OA
ATOM     28  C   UNL     1       5.270  -0.370  24.107  0.00  0.00    +0.315 C 
BRANCH  28   8
ATOM      8  O   UNL     1       4.947  -1.670  24.324  0.00  0.00    -0.480 OA
ATOM     31  H   UNL     1       4.570  -1.810  25.219  0.00  0.00    +0.295 HD
ENDBRANCH  28   8
ENDBRANCH  27  28
ENDBRANCH   2  27
ENDBRANCH  26   2
ENDBRANCH  22  26
TORSDOF 8
ENDMDL
MODEL 3
REMARK VINA RESULT:      -0.0     18.889     20.516
REMARK  Name = 11912249
REMARK  9 active torsions:
REMARK  status: ('A' for Active; 'I' for Inactive)
REMARK    1  A    between atoms: S_1  and  N_10
REMARK    2  A    between atoms: S_1  and  C_25
REMARK    3  A    between atoms: S_2  and  C_26
REMARK    4  A    between atoms: S_2  and  C_27
REMARK    5  A    between atoms: O_8  and  C_28
REMARK    6  A    between atoms: N_12  and  C_19
REMARK    7  A    between atoms: C_14  and  C_18
REMARK    8  A    between atoms: C_22  and  C_26
REMARK    9  A    between atoms: C_27  and  C_28
REMARK                            x       y       z     vdW  Elec       q    Type
REMARK                         _______ _______ _______ _____ _____    ______ ____
ROOT
ATOM      6  O   UNL     1      14.397  -6.635  25.905  0.00  0.00    -0.275 OA
ATOM     10  N   UNL     1      15.108  -8.580  30.471  0.00  0.00    -0.167 NA
ATOM     11  N   UNL     1      15.329  -7.780  27.695  0.00  0.00    -0.298 N 
ATOM     14  C   UNL     1      16.443  -8.284  29.882  0.00  0.00    +0.182 C 
ATOM     15  C   UNL     1      16.478  -8.408  28.360  0.00  0.00    +0.137 C 
ATOM     16  C   UNL     1      14.045  -8.914  29.489  0.00  0.00    +0.129 C 
ATOM     17  C   UNL     1      14.042  -7.872  28.383  0.00  0.00    +0.125 C 
ATOM     22  C   UNL     1      15.378  -7.136  26.459  0.00  0.00    +0.226 C 
ENDROOT
BRANCH  10   1
ATOM      1  S   UNL     1      15.089  -9.464  31.934  0.00  0.00    +0.030 S 
ATOM      4  O   UNL     1      16.388  -9.356  32.561  0.00  0.00    -0.158 OA
ATOM      5  O   UNL     1      14.465 -10.747  31.695  0.00  0.00    -0.158 OA
ATOM     25  C   UNL     1      13.950  -8.464  32.856  0.00  0.00    +0.215 C 
ENDBRANCH  10   1
BRANCH  14  18
ATOM      3  O   UNL     1      17.405  -6.117  29.635  0.00  0.00    -0.274 OA
ATOM     12  N   UNL     1      16.198  -6.602  31.565  0.00  0.00    -0.303 N 
ATOM     18  C   UNL     1      16.739  -6.886  30.322  0.00  0.00    +0.234 C 
ATOM     29  H   UNL     1      15.651  -7.315  32.040  0.00  0.00    +0.149 HD
BRANCH  12  19
ATOM      7  O   UNL     1      13.984  -5.419  32.646  0.00  0.00    -0.274 OA
ATOM     13  N   UNL     1      14.913  -3.345  32.428  0.00  0.00    -0.314 N 
ATOM     19  C   UNL     1      16.358  -5.332  32.223  0.00  0.00    +0.159 C 
ATOM     20  C   UNL     1      17.334  -4.446  31.461  0.00  0.00    +0.033 C 
ATOM     21  C   UNL     1      17.350  -3.056  32.076  0.00  0.00    +0.021 C 
ATOM     23  C   UNL     1      14.973  -4.723  32.413  0.00  0.00    +0.233 C 
ATOM     24  C   UNL     1      15.962  -2.452  31.970  0.00  0.00    +0.104 C 
ATOM     30  H   UNL     1      14.005  -2.927  32.611  0.00  0.00    +0.149 HD
ENDBRANCH  12  19
ENDBRANCH  14  18
BRANCH  22  26
ATOM     26  C   UNL     1      16.728  -7.065  25.790  0.00  0.00    +0.165 C 
BRANCH  26   2
ATOM      2  S   UNL     1      17.345  -5.386  25.980  0.00  0.00    -0.140 S 
BRANCH   2  27
ATOM     27  C   UNL     1      17.373  -4.900  24.236  0.00  0.00    +0.189 C 
BRANCH  27  28
ATOM      9  O   UNL     1      16.563  -2.951  23.073  0.00  0.00    -0.250 OA
ATOM     28  C   UNL     1      16.961  -3.461  24.113  0.00  0.00    +0.315 C 
BRANCH  28   8
ATOM      8  O   UNL     1      17.062  -2.784  25.285  0.00  0.00    -0.480 OA
ATOM     31  H   UNL     1      17.997  -2.646  25.548  0.00  0.00    +0.295 HD
ENDBRANCH  28   8
ENDBRANCH  27  28
ENDBRANCH   2  27
ENDBRANCH  26   2
ENDBRANCH  22  26
TORSDOF 8
ENDMDL
MODEL 4
REMARK VINA RESULT:       0.2      1.514      2.018
REMARK  Name = 11912249
REMARK  9 active torsions:
REMARK  status: ('A' for Active; 'I' for Inactive)
REMARK    1  A    between atoms: S_1  and  N_10
REMARK    2  A    between atoms: S_1  and  C_25
REMARK    3  A    between atoms: S_2  and  C_26
REMARK    4  A    between atoms: S_2  and  C_27
REMARK    5  A    between atoms: O_8  and  C_28
REMARK    6  A    between atoms: N_12  and  C_19
REMARK    7  A    between atoms: C_14  and  C_18
REMARK    8  A    between atoms: C_22  and  C_26
REMARK    9  A    between atoms: C_27  and  C_28
REMARK                            x       y       z     vdW  Elec       q    Type
REMARK                         _______ _______ _______ _____ _____    ______ ____
ROOT
ATOM      6  O   UNL     1       0.711   3.031  26.116  0.00  0.00    -0.275 OA
ATOM     10  N   UNL     1      -4.292   2.899  25.819  0.00  0.00    -0.167 NA
ATOM     11  N   UNL     1      -1.452   3.068  25.275  0.00  0.00    -0.298 N 
ATOM     14  C   UNL     1      -3.740   2.349  24.551  0.00  0.00    +0.182 C 
ATOM     15  C   UNL     1      -2.396   2.960  24.156  0.00  0.00    +0.137 C 
ATOM     16  C   UNL     1      -3.441   3.915  26.490  0.00  0.00    +0.129 C 
ATOM     17  C   UNL     1      -2.018   3.390  26.584  0.00  0.00    +0.125 C 
ATOM     22  C   UNL     1      -0.069   2.913  25.168  0.00  0.00    +0.226 C 
ENDROOT
BRANCH  10   1
ATOM      1  S   UNL     1      -5.979   3.174  25.871  0.00  0.00    +0.030 S 
ATOM      4  O   UNL     1      -6.230   4.576  25.619  0.00  0.00    -0.158 OA
ATOM      5  O   UNL     1      -6.525   2.499  27.028  0.00  0.00    -0.158 OA
ATOM     25  C   UNL     1      -6.460   2.262  24.427  0.00  0.00    +0.215 C 
ENDBRANCH  10   1
BRANCH  14  18
ATOM      3  O   UNL     1      -4.144   0.345  25.779  0.00  0.00    -0.274 OA
ATOM     12  N   UNL     1      -2.839   0.246  23.854  0.00  0.00    -0.303 N 
ATOM     18  C   UNL     1      -3.616   0.881  24.808  0.00  0.00    +0.234 C 
ATOM     29  H   UNL     1      -2.459   0.790  23.083  0.00  0.00    +0.149 HD
BRANCH  12  19
ATOM      7  O   UNL     1      -4.899  -1.508  23.474  0.00  0.00    -0.274 OA
ATOM     13  N   UNL     1      -3.815  -3.131  24.660  0.00  0.00    -0.314 N 
ATOM     19  C   UNL     1      -2.546  -1.163  23.886  0.00  0.00    +0.159 C 
ATOM     20  C   UNL     1      -1.537  -1.483  24.979  0.00  0.00    +0.033 C 
ATOM     21  C   UNL     1      -1.381  -2.990  25.106  0.00  0.00    +0.021 C 
ATOM     23  C   UNL     1      -3.868  -1.914  24.012  0.00  0.00    +0.233 C 
ATOM     24  C   UNL     1      -2.719  -3.596  25.490  0.00  0.00    +0.104 C 
ATOM     30  H   UNL     1      -4.677  -3.667  24.700  0.00  0.00    +0.149 HD
ENDBRANCH  12  19
ENDBRANCH  14  18
BRANCH  22  26
ATOM     26  C   UNL     1       0.467   2.579  23.798  0.00  0.00    +0.165 C 
BRANCH  26   2
ATOM      2  S   UNL     1       0.566   0.787  23.672  0.00  0.00    -0.140 S 
BRANCH   2  27
ATOM     27  C   UNL     1       2.349   0.625  23.405  0.00  0.00    +0.189 C 
BRANCH  27  28
ATOM      9  O   UNL     1       1.818  -0.402  21.290  0.00  0.00    -0.250 OA
ATOM     28  C   UNL     1       2.607   0.234  21.978  0.00  0.00    +0.315 C 
BRANCH  28   8
ATOM      8  O   UNL     1       3.806   0.675  21.522  0.00  0.00    -0.480 OA
ATOM     31  H   UNL     1       4.236   0.021  20.929  0.00  0.00    +0.295 HD
ENDBRANCH  28   8
ENDBRANCH  27  28
ENDBRANCH   2  27
ENDBRANCH  26   2
ENDBRANCH  22  26
TORSDOF 8
ENDMDL
MODEL 5
REMARK VINA RESULT:       0.3      1.868      6.033
REMARK  Name = 11912249
REMARK  9 active torsions:
REMARK  status: ('A' for Active; 'I' for Inactive)
REMARK    1  A    between atoms: S_1  and  N_10
REMARK    2  A    between atoms: S_1  and  C_25
REMARK    3  A    between atoms: S_2  and  C_26
REMARK    4  A    between atoms: S_2  and  C_27
REMARK    5  A    between atoms: O_8  and  C_28
REMARK    6  A    between atoms: N_12  and  C_19
REMARK    7  A    between atoms: C_14  and  C_18
REMARK    8  A    between atoms: C_22  and  C_26
REMARK    9  A    between atoms: C_27  and  C_28
REMARK                            x       y       z     vdW  Elec       q    Type
REMARK                         _______ _______ _______ _____ _____    ______ ____
ROOT
ATOM      6  O   UNL     1      -2.169   5.111  24.570  0.00  0.00    -0.275 OA
ATOM     10  N   UNL     1       0.992   1.342  23.602  0.00  0.00    -0.167 NA
ATOM     11  N   UNL     1      -0.695   3.340  24.848  0.00  0.00    -0.298 N 
ATOM     14  C   UNL     1       0.279   1.032  24.872  0.00  0.00    +0.182 C 
ATOM     15  C   UNL     1      -0.109   2.275  25.671  0.00  0.00    +0.137 C 
ATOM     16  C   UNL     1       1.178   2.788  23.319  0.00  0.00    +0.129 C 
ATOM     17  C   UNL     1      -0.149   3.507  23.502  0.00  0.00    +0.125 C 
ATOM     22  C   UNL     1      -1.705   4.207  25.268  0.00  0.00    +0.226 C 
ENDROOT
BRANCH  10   1
ATOM      1  S   UNL     1       2.292   0.316  23.177  0.00  0.00    +0.030 S 
ATOM      4  O   UNL     1       2.264  -0.850  24.032  0.00  0.00    -0.158 OA
ATOM      5  O   UNL     1       3.486   1.118  23.023  0.00  0.00    -0.158 OA
ATOM     25  C   UNL     1       1.750  -0.175  21.561  0.00  0.00    +0.215 C 
ENDBRANCH  10   1
BRANCH  14  18
ATOM      3  O   UNL     1      -1.287   0.224  23.266  0.00  0.00    -0.274 OA
ATOM     12  N   UNL     1      -1.568  -0.350  25.504  0.00  0.00    -0.303 N 
ATOM     18  C   UNL     1      -0.928   0.264  24.439  0.00  0.00    +0.234 C 
ATOM     29  H   UNL     1      -1.173  -0.258  26.437  0.00  0.00    +0.149 HD
BRANCH  12  19
ATOM      7  O   UNL     1      -1.318  -3.053  25.195  0.00  0.00    -0.274 OA
ATOM     13  N   UNL     1      -3.307  -3.170  24.080  0.00  0.00    -0.314 N 
ATOM     19  C   UNL     1      -2.768  -1.131  25.358  0.00  0.00    +0.159 C 
ATOM     20  C   UNL     1      -3.782  -0.409  24.482  0.00  0.00    +0.033 C 
ATOM     21  C   UNL     1      -4.961  -1.327  24.203  0.00  0.00    +0.021 C 
ATOM     23  C   UNL     1      -2.370  -2.513  24.850  0.00  0.00    +0.233 C 
ATOM     24  C   UNL     1      -4.467  -2.556  23.460  0.00  0.00    +0.104 C 
ATOM     30  H   UNL     1      -3.077  -4.114  23.784  0.00  0.00    +0.149 HD
ENDBRANCH  12  19
ENDBRANCH  14  18
BRANCH  22  26
ATOM     26  C   UNL     1      -2.238   3.994  26.663  0.00  0.00    +0.165 C 
BRANCH  26   2
ATOM      2  S   UNL     1      -4.030   4.130  26.590  0.00  0.00    -0.140 S 
BRANCH   2  27
ATOM     27  C   UNL     1      -4.363   2.802  25.406  0.00  0.00    +0.189 C 
BRANCH  27  28
ATOM      9  O   UNL     1      -6.441   1.839  24.655  0.00  0.00    -0.250 OA
ATOM     28  C   UNL     1      -5.785   2.342  25.558  0.00  0.00    +0.315 C 
BRANCH  28   8
ATOM      8  O   UNL     1      -6.264   2.529  26.814  0.00  0.00    -0.480 OA
ATOM     31  H   UNL     1      -5.886   3.330  27.236  0.00  0.00    +0.295 HD
ENDBRANCH  28   8
ENDBRANCH  27  28
ENDBRANCH   2  27
ENDBRANCH  26   2
ENDBRANCH  22  26
TORSDOF 8
ENDMDL
MODEL 6
REMARK VINA RESULT:       0.5      1.803      2.027
REMARK  Name = 11912249
REMARK  9 active torsions:
REMARK  status: ('A' for Active; 'I' for Inactive)
REMARK    1  A    between atoms: S_1  and  N_10
REMARK    2  A    between atoms: S_1  and  C_25
REMARK    3  A    between atoms: S_2  and  C_26
REMARK    4  A    between atoms: S_2  and  C_27
REMARK    5  A    between atoms: O_8  and  C_28
REMARK    6  A    between atoms: N_12  and  C_19
REMARK    7  A    between atoms: C_14  and  C_18
REMARK    8  A    between atoms: C_22  and  C_26
REMARK    9  A    between atoms: C_27  and  C_28
REMARK                            x       y       z     vdW  Elec       q    Type
REMARK                         _______ _______ _______ _____ _____    ______ ____
ROOT
ATOM      6  O   UNL     1       0.632   2.821  26.166  0.00  0.00    -0.275 OA
ATOM     10  N   UNL     1      -4.346   2.764  25.567  0.00  0.00    -0.167 NA
ATOM     11  N   UNL     1      -1.485   3.100  25.256  0.00  0.00    -0.298 N 
ATOM     14  C   UNL     1      -3.717   2.622  24.225  0.00  0.00    +0.182 C 
ATOM     15  C   UNL     1      -2.368   3.329  24.106  0.00  0.00    +0.137 C 
ATOM     16  C   UNL     1      -3.552   3.536  26.557  0.00  0.00    +0.129 C 
ATOM     17  C   UNL     1      -2.124   3.013  26.568  0.00  0.00    +0.125 C 
ATOM     22  C   UNL     1      -0.096   2.990  25.185  0.00  0.00    +0.226 C 
ENDROOT
BRANCH  10   1
ATOM      1  S   UNL     1      -6.038   3.004  25.605  0.00  0.00    +0.030 S 
ATOM      4  O   UNL     1      -6.526   2.665  26.924  0.00  0.00    -0.158 OA
ATOM      5  O   UNL     1      -6.617   2.432  24.410  0.00  0.00    -0.158 OA
ATOM     25  C   UNL     1      -6.078   4.770  25.443  0.00  0.00    +0.215 C 
ENDBRANCH  10   1
BRANCH  14  18
ATOM      3  O   UNL     1      -2.916   0.667  23.120  0.00  0.00    -0.274 OA
ATOM     12  N   UNL     1      -4.283   0.427  24.988  0.00  0.00    -0.303 N 
ATOM     18  C   UNL     1      -3.577   1.145  24.038  0.00  0.00    +0.234 C 
ATOM     29  H   UNL     1      -4.789   0.930  25.712  0.00  0.00    +0.149 HD
BRANCH  12  19
ATOM      7  O   UNL     1      -2.773  -0.879  26.854  0.00  0.00    -0.274 OA
ATOM     13  N   UNL     1      -2.654  -2.743  25.541  0.00  0.00    -0.314 N 
ATOM     19  C   UNL     1      -4.330  -1.011  25.015  0.00  0.00    +0.159 C 
ATOM     20  C   UNL     1      -4.357  -1.580  23.603  0.00  0.00    +0.033 C 
ATOM     21  C   UNL     1      -4.229  -3.093  23.659  0.00  0.00    +0.021 C 
ATOM     23  C   UNL     1      -3.165  -1.504  25.868  0.00  0.00    +0.233 C 
ATOM     24  C   UNL     1      -2.902  -3.455  24.300  0.00  0.00    +0.104 C 
ATOM     30  H   UNL     1      -1.917  -3.107  26.137  0.00  0.00    +0.149 HD
ENDBRANCH  12  19
ENDBRANCH  14  18
BRANCH  22  26
ATOM     26  C   UNL     1       0.517   3.084  23.810  0.00  0.00    +0.165 C 
BRANCH  26   2
ATOM      2  S   UNL     1       1.452   1.574  23.523  0.00  0.00    -0.140 S 
BRANCH   2  27
ATOM     27  C   UNL     1       0.069   0.433  23.275  0.00  0.00    +0.189 C 
BRANCH  27  28
ATOM      9  O   UNL     1      -0.588   0.023  25.558  0.00  0.00    -0.250 OA
ATOM     28  C   UNL     1      -0.117  -0.401  24.510  0.00  0.00    +0.315 C 
BRANCH  28   8
ATOM      8  O   UNL     1       0.278  -1.688  24.338  0.00  0.00    -0.480 OA
ATOM     31  H   UNL     1      -0.485  -2.291  24.208  0.00  0.00    +0.295 HD
ENDBRANCH  28   8
ENDBRANCH  27  28
ENDBRANCH   2  27
ENDBRANCH  26   2
ENDBRANCH  22  26
TORSDOF 8
ENDMDL
MODEL 7
REMARK VINA RESULT:       2.0     18.227     20.210
REMARK  Name = 11912249
REMARK  9 active torsions:
REMARK  status: ('A' for Active; 'I' for Inactive)
REMARK    1  A    between atoms: S_1  and  N_10
REMARK    2  A    between atoms: S_1  and  C_25
REMARK    3  A    between atoms: S_2  and  C_26
REMARK    4  A    between atoms: S_2  and  C_27
REMARK    5  A    between atoms: O_8  and  C_28
REMARK    6  A    between atoms: N_12  and  C_19
REMARK    7  A    between atoms: C_14  and  C_18
REMARK    8  A    between atoms: C_22  and  C_26
REMARK    9  A    between atoms: C_27  and  C_28
REMARK                            x       y       z     vdW  Elec       q    Type
REMARK                         _______ _______ _______ _____ _____    ______ ____
ROOT
ATOM      6  O   UNL     1      13.566  -7.056  25.783  0.00  0.00    -0.275 OA
ATOM     10  N   UNL     1      14.615  -6.844  30.681  0.00  0.00    -0.167 NA
ATOM     11  N   UNL     1      14.431  -7.553  27.878  0.00  0.00    -0.298 N 
ATOM     14  C   UNL     1      15.784  -7.448  29.984  0.00  0.00    +0.182 C 
ATOM     15  C   UNL     1      15.405  -8.241  28.735  0.00  0.00    +0.137 C 
ATOM     16  C   UNL     1      13.300  -7.090  30.037  0.00  0.00    +0.129 C 
ATOM     17  C   UNL     1      13.402  -6.766  28.555  0.00  0.00    +0.125 C 
ATOM     22  C   UNL     1      14.407  -7.623  26.485  0.00  0.00    +0.226 C 
ENDROOT
BRANCH  10   1
ATOM      1  S   UNL     1      14.635  -6.875  32.391  0.00  0.00    +0.030 S 
ATOM      4  O   UNL     1      15.993  -6.666  32.844  0.00  0.00    -0.158 OA
ATOM      5  O   UNL     1      13.846  -7.998  32.845  0.00  0.00    -0.158 OA
ATOM     25  C   UNL     1      13.716  -5.392  32.713  0.00  0.00    +0.215 C 
ENDBRANCH  10   1
BRANCH  14  18
ATOM      3  O   UNL     1      17.405  -6.291  28.674  0.00  0.00    -0.274 OA
ATOM     12  N   UNL     1      16.516  -5.242  30.551  0.00  0.00    -0.303 N 
ATOM     18  C   UNL     1      16.654  -6.280  29.645  0.00  0.00    +0.234 C 
ATOM     29  H   UNL     1      15.852  -5.339  31.315  0.00  0.00    +0.149 HD
BRANCH  12  19
ATOM      7  O   UNL     1      17.345  -4.063  32.873  0.00  0.00    -0.274 OA
ATOM     13  N   UNL     1      17.375  -2.004  31.887  0.00  0.00    -0.314 N 
ATOM     19  C   UNL     1      17.260  -4.013  30.462  0.00  0.00    +0.159 C 
ATOM     20  C   UNL     1      16.691  -3.113  29.375  0.00  0.00    +0.033 C 
ATOM     21  C   UNL     1      17.381  -1.759  29.421  0.00  0.00    +0.021 C 
ATOM     23  C   UNL     1      17.291  -3.381  31.849  0.00  0.00    +0.233 C 
ATOM     24  C   UNL     1      17.118  -1.114  30.770  0.00  0.00    +0.104 C 
ATOM     30  H   UNL     1      17.454  -1.574  32.804  0.00  0.00    +0.149 HD
ENDBRANCH  12  19
ENDBRANCH  14  18
BRANCH  22  26
ATOM     26  C   UNL     1      15.490  -8.445  25.833  0.00  0.00    +0.165 C 
BRANCH  26   2
ATOM      2  S   UNL     1      17.032  -7.529  25.974  0.00  0.00    -0.140 S 
BRANCH   2  27
ATOM     27  C   UNL     1      17.026  -6.722  24.354  0.00  0.00    +0.189 C 
BRANCH  27  28
ATOM      9  O   UNL     1      17.147  -4.431  23.612  0.00  0.00    -0.250 OA
ATOM     28  C   UNL     1      17.137  -5.235  24.536  0.00  0.00    +0.315 C 
BRANCH  28   8
ATOM      8  O   UNL     1      17.211  -4.871  25.842  0.00  0.00    -0.480 OA
ATOM     31  H   UNL     1      16.592  -5.388  26.401  0.00  0.00    +0.295 HD
ENDBRANCH  28   8
ENDBRANCH  27  28
ENDBRANCH   2  27
ENDBRANCH  26   2
ENDBRANCH  22  26
TORSDOF 8
ENDMDL
MODEL 8
REMARK VINA RESULT:       2.0      2.074      4.879
REMARK  Name = 11912249
REMARK  9 active torsions:
REMARK  status: ('A' for Active; 'I' for Inactive)
REMARK    1  A    between atoms: S_1  and  N_10
REMARK    2  A    between atoms: S_1  and  C_25
REMARK    3  A    between atoms: S_2  and  C_26
REMARK    4  A    between atoms: S_2  and  C_27
REMARK    5  A    between atoms: O_8  and  C_28
REMARK    6  A    between atoms: N_12  and  C_19
REMARK    7  A    between atoms: C_14  and  C_18
REMARK    8  A    between atoms: C_22  and  C_26
REMARK    9  A    between atoms: C_27  and  C_28
REMARK                            x       y       z     vdW  Elec       q    Type
REMARK                         _______ _______ _______ _____ _____    ______ ____
ROOT
ATOM      6  O   UNL     1      -1.712  -2.925  23.410  0.00  0.00    -0.275 OA
ATOM     10  N   UNL     1      -4.875   0.669  24.897  0.00  0.00    -0.167 NA
ATOM     11  N   UNL     1      -2.867  -1.413  24.738  0.00  0.00    -0.298 N 
ATOM     14  C   UNL     1      -3.670   0.725  25.769  0.00  0.00    +0.182 C 
ATOM     15  C   UNL     1      -3.005  -0.634  25.976  0.00  0.00    +0.137 C 
ATOM     16  C   UNL     1      -5.205  -0.677  24.362  0.00  0.00    +0.129 C 
ATOM     17  C   UNL     1      -3.952  -1.297  23.765  0.00  0.00    +0.125 C 
ATOM     22  C   UNL     1      -1.799  -2.261  24.446  0.00  0.00    +0.226 C 
ENDROOT
BRANCH  10   1
ATOM      1  S   UNL     1      -6.203   1.646  25.351  0.00  0.00    +0.030 S 
ATOM      4  O   UNL     1      -6.576   1.322  26.710  0.00  0.00    -0.158 OA
ATOM      5  O   UNL     1      -7.170   1.647  24.276  0.00  0.00    -0.158 OA
ATOM     25  C   UNL     1      -5.399   3.228  25.366  0.00  0.00    +0.215 C 
ENDBRANCH  10   1
BRANCH  14  18
ATOM      3  O   UNL     1      -2.705   1.755  23.847  0.00  0.00    -0.274 OA
ATOM     12  N   UNL     1      -1.990   2.416  25.961  0.00  0.00    -0.303 N 
ATOM     18  C   UNL     1      -2.754   1.679  25.072  0.00  0.00    +0.234 C 
ATOM     29  H   UNL     1      -2.123   2.278  26.960  0.00  0.00    +0.149 HD
BRANCH  12  19
ATOM      7  O   UNL     1      -2.617   5.064  26.213  0.00  0.00    -0.274 OA
ATOM     13  N   UNL     1      -1.192   5.623  24.518  0.00  0.00    -0.314 N 
ATOM     19  C   UNL     1      -1.014   3.388  25.544  0.00  0.00    +0.159 C 
ATOM     20  C   UNL     1      -0.318   2.944  24.265  0.00  0.00    +0.033 C 
ATOM     21  C   UNL     1       0.576   4.062  23.755  0.00  0.00    +0.021 C 
ATOM     23  C   UNL     1      -1.711   4.741  25.442  0.00  0.00    +0.233 C 
ATOM     24  C   UNL     1      -0.280   5.277  23.444  0.00  0.00    +0.104 C 
ATOM     30  H   UNL     1      -1.611   6.548  24.480  0.00  0.00    +0.149 HD
ENDBRANCH  12  19
ENDBRANCH  14  18
BRANCH  22  26
ATOM     26  C   UNL     1      -0.702  -2.345  25.479  0.00  0.00    +0.165 C 
BRANCH  26   2
ATOM      2  S   UNL     1       0.841  -1.889  24.676  0.00  0.00    -0.140 S 
BRANCH   2  27
ATOM     27  C   UNL     1       0.272  -0.413  23.796  0.00  0.00    +0.189 C 
BRANCH  27  28
ATOM      9  O   UNL     1       1.406  -0.374  21.669  0.00  0.00    -0.250 OA
ATOM     28  C   UNL     1       1.329   0.028  22.824  0.00  0.00    +0.315 C 
BRANCH  28   8
ATOM      8  O   UNL     1       2.186   0.935  23.356  0.00  0.00    -0.480 OA
ATOM     31  H   UNL     1       2.195   0.898  24.337  0.00  0.00    +0.295 HD
ENDBRANCH  28   8
ENDBRANCH  27  28
ENDBRANCH   2  27
ENDBRANCH  26   2
ENDBRANCH  22  26
TORSDOF 8
ENDMDL
