MODEL 1
REMARK VINA RESULT:       3.9      0.000      0.000
REMARK  Name = 26742542
REMARK  11 active torsions:
REMARK  status: ('A' for Active; 'I' for Inactive)
REMARK    1  A    between atoms: O_3  and  C_23
REMARK    2  A    between atoms: O_3  and  C_33
REMARK    3  A    between atoms: O_4  and  C_27
REMARK    4  A    between atoms: O_4  and  C_34
REMARK    5  A    between atoms: O_5  and  C_32
REMARK    6  A    between atoms: O_5  and  C_35
REMARK    7  A    between atoms: N_7  and  C_18
REMARK    8  A    between atoms: C_17  and  C_20
REMARK    9  A    between atoms: C_18  and  C_19
REMARK   10  A    between atoms: C_19  and  C_21
REMARK   11  A    between atoms: C_20  and  C_22
REMARK                            x       y       z     vdW  Elec       q    Type
REMARK                         _______ _______ _______ _____ _____    ______ ____
ROOT
ATOM      1  O   UNL     1      -6.042   2.244  27.022  0.00  0.00    -0.276 OA
ATOM      2  O   UNL     1       0.022  -0.743  25.201  0.00  0.00    -0.275 OA
ATOM      6  N   UNL     1      -2.086  -0.717  24.222  0.00  0.00    -0.301 N 
ATOM      7  N   UNL     1      -4.978   3.098  25.146  0.00  0.00    -0.301 N 
ATOM      8  C   UNL     1      -4.108   0.488  23.415  0.00  0.00    +0.011 C 
ATOM      9  C   UNL     1      -4.853  -0.002  24.679  0.00  0.00    +0.004 C 
ATOM     10  C   UNL     1      -3.882  -0.258  25.846  0.00  0.00    +0.023 C 
ATOM     11  C   UNL     1      -2.971  -0.496  23.072  0.00  0.00    +0.111 C 
ATOM     12  C   UNL     1      -3.554   1.923  23.495  0.00  0.00    +0.024 C 
ATOM     13  C   UNL     1      -6.049   0.871  25.079  0.00  0.00    +0.100 C 
ATOM     14  C   UNL     1      -2.757  -1.204  25.427  0.00  0.00    +0.108 C 
ATOM     15  C   UNL     1      -4.631   2.976  23.731  0.00  0.00    +0.108 C 
ATOM     16  C   UNL     1      -5.695   2.132  25.843  0.00  0.00    +0.216 C 
ATOM     17  C   UNL     1      -0.705  -0.526  24.227  0.00  0.00    +0.220 C 
ENDROOT
BRANCH   7  18
ATOM     18  C   UNL     1      -4.523   4.303  25.827  0.00  0.00    +0.112 C 
BRANCH  18  19
ATOM     19  C   UNL     1      -3.377   4.031  26.799  0.00  0.00    +0.058 C 
BRANCH  19  21
ATOM     21  C   UNL     1      -2.067   3.758  26.103  0.00  0.00    -0.001 A 
ATOM     23  C   UNL     1      -1.482   4.720  25.280  0.00  0.00    +0.165 A 
ATOM     24  C   UNL     1      -1.441   2.526  26.289  0.00  0.00    +0.007 A 
ATOM     27  C   UNL     1      -0.270   4.450  24.645  0.00  0.00    +0.162 A 
ATOM     28  C   UNL     1      -0.229   2.256  25.654  0.00  0.00    +0.004 A 
ATOM     31  C   UNL     1       0.357   3.219  24.832  0.00  0.00    +0.049 A 
BRANCH  23   3
ATOM      3  O   UNL     1      -2.091   5.927  25.095  0.00  0.00    -0.491 OA
ATOM     33  C   UNL     1      -2.750   6.132  23.848  0.00  0.00    +0.277 C 
ENDBRANCH  23   3
BRANCH  27   4
ATOM      4  O   UNL     1       0.314   5.381  23.840  0.00  0.00    -0.491 OA
ATOM     34  C   UNL     1       0.513   5.025  22.474  0.00  0.00    +0.277 C 
ENDBRANCH  27   4
ENDBRANCH  19  21
ENDBRANCH  18  19
ENDBRANCH   7  18
BRANCH  17  20
ATOM     20  C   UNL     1      -0.088  -0.019  22.948  0.00  0.00    +0.131 C 
BRANCH  20  22
ATOM     22  C   UNL     1       1.404   0.014  23.058  0.00  0.00    -0.038 A 
ATOM     25  C   UNL     1       2.106  -1.149  23.374  0.00  0.00    +0.007 A 
ATOM     26  C   UNL     1       2.093   1.208  22.842  0.00  0.00    +0.007 A 
ATOM     29  C   UNL     1       3.498  -1.118  23.474  0.00  0.00    +0.046 A 
ATOM     30  C   UNL     1       3.484   1.238  22.940  0.00  0.00    +0.046 A 
ATOM     32  C   UNL     1       4.186   0.076  23.256  0.00  0.00    +0.120 A 
BRANCH  32   5
ATOM      5  O   UNL     1       5.544   0.105  23.352  0.00  0.00    -0.495 OA
ATOM     35  C   UNL     1       6.147  -0.786  24.290  0.00  0.00    +0.277 C 
ENDBRANCH  32   5
ENDBRANCH  20  22
ENDBRANCH  17  20
TORSDOF 8
ENDMDL
MODEL 2
REMARK VINA RESULT:       4.6      1.180      1.860
REMARK  Name = 26742542
REMARK  11 active torsions:
REMARK  status: ('A' for Active; 'I' for Inactive)
REMARK    1  A    between atoms: O_3  and  C_23
REMARK    2  A    between atoms: O_3  and  C_33
REMARK    3  A    between atoms: O_4  and  C_27
REMARK    4  A    between atoms: O_4  and  C_34
REMARK    5  A    between atoms: O_5  and  C_32
REMARK    6  A    between atoms: O_5  and  C_35
REMARK    7  A    between atoms: N_7  and  C_18
REMARK    8  A    between atoms: C_17  and  C_20
REMARK    9  A    between atoms: C_18  and  C_19
REMARK   10  A    between atoms: C_19  and  C_21
REMARK   11  A    between atoms: C_20  and  C_22
REMARK                            x       y       z     vdW  Elec       q    Type
REMARK                         _______ _______ _______ _____ _____    ______ ____
ROOT
ATOM      1  O   UNL     1      -5.893   2.322  26.783  0.00  0.00    -0.276 OA
ATOM      2  O   UNL     1       0.261  -0.676  25.318  0.00  0.00    -0.275 OA
ATOM      6  N   UNL     1      -1.861  -0.888  24.396  0.00  0.00    -0.301 N 
ATOM      7  N   UNL     1      -4.896   2.909  24.772  0.00  0.00    -0.301 N 
ATOM      8  C   UNL     1      -3.945   0.094  23.455  0.00  0.00    +0.011 C 
ATOM      9  C   UNL     1      -4.648  -0.218  24.797  0.00  0.00    +0.004 C 
ATOM     10  C   UNL     1      -3.648  -0.248  25.967  0.00  0.00    +0.023 C 
ATOM     11  C   UNL     1      -2.773  -0.887  23.246  0.00  0.00    +0.111 C 
ATOM     12  C   UNL     1      -3.451   1.544  23.295  0.00  0.00    +0.024 C 
ATOM     13  C   UNL     1      -5.873   0.660  25.081  0.00  0.00    +0.100 C 
ATOM     14  C   UNL     1      -2.492  -1.204  25.677  0.00  0.00    +0.108 C 
ATOM     15  C   UNL     1      -4.568   2.578  23.387  0.00  0.00    +0.108 C 
ATOM     16  C   UNL     1      -5.560   2.039  25.629  0.00  0.00    +0.216 C 
ATOM     17  C   UNL     1      -0.489  -0.645  24.339  0.00  0.00    +0.220 C 
ENDROOT
BRANCH   7  18
ATOM     18  C   UNL     1      -4.482   4.224  25.244  0.00  0.00    +0.112 C 
BRANCH  18  19
ATOM     19  C   UNL     1      -3.307   4.789  24.449  0.00  0.00    +0.058 C 
BRANCH  19  21
ATOM     21  C   UNL     1      -2.006   4.082  24.738  0.00  0.00    -0.001 A 
ATOM     23  C   UNL     1      -1.806   3.423  25.951  0.00  0.00    +0.165 A 
ATOM     24  C   UNL     1      -0.997   4.092  23.775  0.00  0.00    +0.007 A 
ATOM     27  C   UNL     1      -0.596   2.774  26.200  0.00  0.00    +0.162 A 
ATOM     28  C   UNL     1       0.212   3.443  24.024  0.00  0.00    +0.004 A 
ATOM     31  C   UNL     1       0.412   2.783  25.237  0.00  0.00    +0.049 A 
BRANCH  23   3
ATOM      3  O   UNL     1      -2.790   3.410  26.896  0.00  0.00    -0.491 OA
ATOM     33  C   UNL     1      -2.959   4.596  27.667  0.00  0.00    +0.277 C 
ENDBRANCH  23   3
BRANCH  27   4
ATOM      4  O   UNL     1      -0.387   2.125  27.379  0.00  0.00    -0.491 OA
ATOM     34  C   UNL     1       0.812   2.435  28.087  0.00  0.00    +0.277 C 
ENDBRANCH  27   4
ENDBRANCH  19  21
ENDBRANCH  18  19
ENDBRANCH   7  18
BRANCH  17  20
ATOM     20  C   UNL     1       0.084  -0.323  22.982  0.00  0.00    +0.131 C 
BRANCH  20  22
ATOM     22  C   UNL     1       1.575  -0.203  23.053  0.00  0.00    -0.038 A 
ATOM     25  C   UNL     1       2.343  -1.294  23.458  0.00  0.00    +0.007 A 
ATOM     26  C   UNL     1       2.195   0.999  22.713  0.00  0.00    +0.007 A 
ATOM     29  C   UNL     1       3.733  -1.183  23.523  0.00  0.00    +0.046 A 
ATOM     30  C   UNL     1       3.583   1.110  22.776  0.00  0.00    +0.046 A 
ATOM     32  C   UNL     1       4.352   0.020  23.181  0.00  0.00    +0.120 A 
BRANCH  32   5
ATOM      5  O   UNL     1       5.708   0.127  23.242  0.00  0.00    -0.495 OA
ATOM     35  C   UNL     1       6.379  -0.672  24.216  0.00  0.00    +0.277 C 
ENDBRANCH  32   5
ENDBRANCH  20  22
ENDBRANCH  17  20
TORSDOF 8
ENDMDL
MODEL 3
REMARK VINA RESULT:       5.2      1.932      3.905
REMARK  Name = 26742542
REMARK  11 active torsions:
REMARK  status: ('A' for Active; 'I' for Inactive)
REMARK    1  A    between atoms: O_3  and  C_23
REMARK    2  A    between atoms: O_3  and  C_33
REMARK    3  A    between atoms: O_4  and  C_27
REMARK    4  A    between atoms: O_4  and  C_34
REMARK    5  A    between atoms: O_5  and  C_32
REMARK    6  A    between atoms: O_5  and  C_35
REMARK    7  A    between atoms: N_7  and  C_18
REMARK    8  A    between atoms: C_17  and  C_20
REMARK    9  A    between atoms: C_18  and  C_19
REMARK   10  A    between atoms: C_19  and  C_21
REMARK   11  A    between atoms: C_20  and  C_22
REMARK                            x       y       z     vdW  Elec       q    Type
REMARK                         _______ _______ _______ _____ _____    ______ ____
ROOT
ATOM      1  O   UNL     1      -4.745  -0.549  26.622  0.00  0.00    -0.276 OA
ATOM      2  O   UNL     1       0.676   2.493  23.402  0.00  0.00    -0.275 OA
ATOM      6  N   UNL     1       0.494   0.622  24.768  0.00  0.00    -0.301 N 
ATOM      7  N   UNL     1      -3.781  -1.720  24.866  0.00  0.00    -0.301 N 
ATOM      8  C   UNL     1      -0.579  -1.535  25.392  0.00  0.00    +0.011 C 
ATOM      9  C   UNL     1      -1.298  -0.794  26.545  0.00  0.00    +0.004 C 
ATOM     10  C   UNL     1      -1.490   0.700  26.227  0.00  0.00    +0.023 C 
ATOM     11  C   UNL     1       0.732  -0.800  25.046  0.00  0.00    +0.111 C 
ATOM     12  C   UNL     1      -1.420  -1.738  24.118  0.00  0.00    +0.024 C 
ATOM     13  C   UNL     1      -2.589  -1.475  27.017  0.00  0.00    +0.100 C 
ATOM     14  C   UNL     1      -0.163   1.356  25.850  0.00  0.00    +0.108 C 
ATOM     15  C   UNL     1      -2.691  -2.547  24.353  0.00  0.00    +0.108 C 
ATOM     16  C   UNL     1      -3.808  -1.204  26.156  0.00  0.00    +0.216 C 
ATOM     17  C   UNL     1       0.865   1.290  23.602  0.00  0.00    +0.220 C 
ENDROOT
BRANCH   7  18
ATOM     18  C   UNL     1      -4.873  -1.435  23.943  0.00  0.00    +0.112 C 
BRANCH  18  19
ATOM     19  C   UNL     1      -4.615  -0.193  23.094  0.00  0.00    +0.058 C 
BRANCH  19  21
ATOM     21  C   UNL     1      -4.570   1.077  23.907  0.00  0.00    -0.001 A 
ATOM     23  C   UNL     1      -3.484   1.947  23.815  0.00  0.00    +0.165 A 
ATOM     24  C   UNL     1      -5.634   1.377  24.759  0.00  0.00    +0.007 A 
ATOM     27  C   UNL     1      -3.460   3.116  24.574  0.00  0.00    +0.162 A 
ATOM     28  C   UNL     1      -5.610   2.547  25.519  0.00  0.00    +0.004 A 
ATOM     31  C   UNL     1      -4.523   3.417  25.426  0.00  0.00    +0.049 A 
BRANCH  23   3
ATOM      3  O   UNL     1      -2.442   1.657  22.983  0.00  0.00    -0.491 OA
ATOM     33  C   UNL     1      -2.522   2.160  21.651  0.00  0.00    +0.277 C 
ENDBRANCH  23   3
BRANCH  27   4
ATOM      4  O   UNL     1      -2.407   3.975  24.493  0.00  0.00    -0.491 OA
ATOM     34  C   UNL     1      -1.983   4.599  25.704  0.00  0.00    +0.277 C 
ENDBRANCH  27   4
ENDBRANCH  19  21
ENDBRANCH  18  19
ENDBRANCH   7  18
BRANCH  17  20
ATOM     20  C   UNL     1       1.534   0.463  22.533  0.00  0.00    +0.131 C 
BRANCH  20  22
ATOM     22  C   UNL     1       2.959   0.184  22.897  0.00  0.00    -0.038 A 
ATOM     25  C   UNL     1       3.908   1.205  22.834  0.00  0.00    +0.007 A 
ATOM     26  C   UNL     1       3.339  -1.096  23.300  0.00  0.00    +0.007 A 
ATOM     29  C   UNL     1       5.235   0.946  23.175  0.00  0.00    +0.046 A 
ATOM     30  C   UNL     1       4.666  -1.355  23.642  0.00  0.00    +0.046 A 
ATOM     32  C   UNL     1       5.614  -0.334  23.579  0.00  0.00    +0.120 A 
BRANCH  32   5
ATOM      5  O   UNL     1       6.909  -0.586  23.913  0.00  0.00    -0.495 OA
ATOM     35  C   UNL     1       7.860  -0.616  22.849  0.00  0.00    +0.277 C 
ENDBRANCH  32   5
ENDBRANCH  20  22
ENDBRANCH  17  20
TORSDOF 8
ENDMDL
MODEL 4
REMARK VINA RESULT:       6.6      1.947      5.995
REMARK  Name = 26742542
REMARK  11 active torsions:
REMARK  status: ('A' for Active; 'I' for Inactive)
REMARK    1  A    between atoms: O_3  and  C_23
REMARK    2  A    between atoms: O_3  and  C_33
REMARK    3  A    between atoms: O_4  and  C_27
REMARK    4  A    between atoms: O_4  and  C_34
REMARK    5  A    between atoms: O_5  and  C_32
REMARK    6  A    between atoms: O_5  and  C_35
REMARK    7  A    between atoms: N_7  and  C_18
REMARK    8  A    between atoms: C_17  and  C_20
REMARK    9  A    between atoms: C_18  and  C_19
REMARK   10  A    between atoms: C_19  and  C_21
REMARK   11  A    between atoms: C_20  and  C_22
REMARK                            x       y       z     vdW  Elec       q    Type
REMARK                         _______ _______ _______ _____ _____    ______ ____
ROOT
ATOM      1  O   UNL     1      -1.531  -3.308  23.598  0.00  0.00    -0.276 OA
ATOM      2  O   UNL     1      -3.788   3.221  22.463  0.00  0.00    -0.275 OA
ATOM      6  N   UNL     1      -4.338   1.609  24.043  0.00  0.00    -0.301 N 
ATOM      7  N   UNL     1      -0.956  -1.713  25.181  0.00  0.00    -0.301 N 
ATOM      8  C   UNL     1      -3.705  -0.078  25.760  0.00  0.00    +0.011 C 
ATOM      9  C   UNL     1      -4.014  -1.185  24.725  0.00  0.00    +0.004 C 
ATOM     10  C   UNL     1      -3.834  -0.680  23.282  0.00  0.00    +0.023 C 
ATOM     11  C   UNL     1      -4.535   1.180  25.434  0.00  0.00    +0.111 C 
ATOM     12  C   UNL     1      -2.217   0.296  25.895  0.00  0.00    +0.024 C 
ATOM     13  C   UNL     1      -3.288  -2.510  24.989  0.00  0.00    +0.100 C 
ATOM     14  C   UNL     1      -4.647   0.590  23.039  0.00  0.00    +0.108 C 
ATOM     15  C   UNL     1      -1.334  -0.874  26.316  0.00  0.00    +0.108 C 
ATOM     16  C   UNL     1      -1.846  -2.554  24.522  0.00  0.00    +0.216 C 
ATOM     17  C   UNL     1      -3.922   2.877  23.640  0.00  0.00    +0.220 C 
ENDROOT
BRANCH   7  18
ATOM     18  C   UNL     1       0.431  -1.629  24.741  0.00  0.00    +0.112 C 
BRANCH  18  19
ATOM     19  C   UNL     1       0.563  -1.100  23.315  0.00  0.00    +0.058 C 
BRANCH  19  21
ATOM     21  C   UNL     1       1.663  -0.079  23.166  0.00  0.00    -0.001 A 
ATOM     23  C   UNL     1       2.999  -0.474  23.091  0.00  0.00    +0.165 A 
ATOM     24  C   UNL     1       1.332   1.275  23.103  0.00  0.00    +0.007 A 
ATOM     27  C   UNL     1       4.003   0.484  22.953  0.00  0.00    +0.162 A 
ATOM     28  C   UNL     1       2.336   2.233  22.964  0.00  0.00    +0.004 A 
ATOM     31  C   UNL     1       3.672   1.837  22.889  0.00  0.00    +0.049 A 
BRANCH  23   3
ATOM      3  O   UNL     1       3.328  -1.797  23.153  0.00  0.00    -0.491 OA
ATOM     33  C   UNL     1       4.391  -2.158  24.031  0.00  0.00    +0.277 C 
ENDBRANCH  23   3
BRANCH  27   4
ATOM      4  O   UNL     1       5.311   0.112  22.877  0.00  0.00    -0.491 OA
ATOM     34  C   UNL     1       6.151   0.468  23.974  0.00  0.00    +0.277 C 
ENDBRANCH  27   4
ENDBRANCH  19  21
ENDBRANCH  18  19
ENDBRANCH   7  18
BRANCH  17  20
ATOM     20  C   UNL     1      -3.621   3.868  24.735  0.00  0.00    +0.131 C 
BRANCH  20  22
ATOM     22  C   UNL     1      -2.313   3.550  25.391  0.00  0.00    -0.038 A 
ATOM     25  C   UNL     1      -2.234   3.458  26.780  0.00  0.00    +0.007 A 
ATOM     26  C   UNL     1      -1.174   3.344  24.612  0.00  0.00    +0.007 A 
ATOM     29  C   UNL     1      -1.016   3.159  27.391  0.00  0.00    +0.046 A 
ATOM     30  C   UNL     1       0.043   3.044  25.223  0.00  0.00    +0.046 A 
ATOM     32  C   UNL     1       0.123   2.952  26.612  0.00  0.00    +0.120 A 
BRANCH  32   5
ATOM      5  O   UNL     1       1.310   2.658  27.209  0.00  0.00    -0.495 OA
ATOM     35  C   UNL     1       1.298   2.478  28.624  0.00  0.00    +0.277 C 
ENDBRANCH  32   5
ENDBRANCH  20  22
ENDBRANCH  17  20
TORSDOF 8
ENDMDL
MODEL 5
REMARK VINA RESULT:       7.0      1.633      5.839
REMARK  Name = 26742542
REMARK  11 active torsions:
REMARK  status: ('A' for Active; 'I' for Inactive)
REMARK    1  A    between atoms: O_3  and  C_23
REMARK    2  A    between atoms: O_3  and  C_33
REMARK    3  A    between atoms: O_4  and  C_27
REMARK    4  A    between atoms: O_4  and  C_34
REMARK    5  A    between atoms: O_5  and  C_32
REMARK    6  A    between atoms: O_5  and  C_35
REMARK    7  A    between atoms: N_7  and  C_18
REMARK    8  A    between atoms: C_17  and  C_20
REMARK    9  A    between atoms: C_18  and  C_19
REMARK   10  A    between atoms: C_19  and  C_21
REMARK   11  A    between atoms: C_20  and  C_22
REMARK                            x       y       z     vdW  Elec       q    Type
REMARK                         _______ _______ _______ _____ _____    ______ ____
ROOT
ATOM      1  O   UNL     1      -0.319   5.226  25.519  0.00  0.00    -0.276 OA
ATOM      2  O   UNL     1      -5.912   1.217  26.804  0.00  0.00    -0.275 OA
ATOM      6  N   UNL     1      -5.281   2.515  24.983  0.00  0.00    -0.301 N 
ATOM      7  N   UNL     1      -0.519   3.279  24.273  0.00  0.00    -0.301 N 
ATOM      8  C   UNL     1      -3.613   3.232  23.281  0.00  0.00    +0.011 C 
ATOM      9  C   UNL     1      -3.393   4.524  24.103  0.00  0.00    +0.004 C 
ATOM     10  C   UNL     1      -3.705   4.307  25.595  0.00  0.00    +0.023 C 
ATOM     11  C   UNL     1      -5.031   2.687  23.547  0.00  0.00    +0.111 C 
ATOM     12  C   UNL     1      -2.572   2.122  23.513  0.00  0.00    +0.024 C 
ATOM     13  C   UNL     1      -2.032   5.191  23.868  0.00  0.00    +0.100 C 
ATOM     14  C   UNL     1      -5.104   3.726  25.785  0.00  0.00    +0.108 C 
ATOM     15  C   UNL     1      -1.147   2.547  23.176  0.00  0.00    +0.108 C 
ATOM     16  C   UNL     1      -0.875   4.574  24.632  0.00  0.00    +0.216 C 
ATOM     17  C   UNL     1      -5.684   1.330  25.596  0.00  0.00    +0.220 C 
ENDROOT
BRANCH   7  18
ATOM     18  C   UNL     1       0.525   2.579  25.011  0.00  0.00    +0.112 C 
BRANCH  18  19
ATOM     19  C   UNL     1       0.392   1.061  24.918  0.00  0.00    +0.058 C 
BRANCH  19  21
ATOM     21  C   UNL     1       0.926   0.502  23.623  0.00  0.00    -0.001 A 
ATOM     23  C   UNL     1       2.245   0.734  23.235  0.00  0.00    +0.165 A 
ATOM     24  C   UNL     1       0.083  -0.256  22.810  0.00  0.00    +0.007 A 
ATOM     27  C   UNL     1       2.722   0.208  22.034  0.00  0.00    +0.162 A 
ATOM     28  C   UNL     1       0.559  -0.782  21.609  0.00  0.00    +0.004 A 
ATOM     31  C   UNL     1       1.879  -0.550  21.221  0.00  0.00    +0.049 A 
BRANCH  23   3
ATOM      3  O   UNL     1       3.074   1.474  24.027  0.00  0.00    -0.491 OA
ATOM     33  C   UNL     1       4.377   0.949  24.266  0.00  0.00    +0.277 C 
ENDBRANCH  23   3
BRANCH  27   4
ATOM      4  O   UNL     1       4.008   0.425  21.644  0.00  0.00    -0.491 OA
ATOM     34  C   UNL     1       5.030  -0.263  22.363  0.00  0.00    +0.277 C 
ENDBRANCH  27   4
ENDBRANCH  19  21
ENDBRANCH  18  19
ENDBRANCH   7  18
BRANCH  17  20
ATOM     20  C   UNL     1      -5.841   0.126  24.702  0.00  0.00    +0.131 C 
BRANCH  20  22
ATOM     22  C   UNL     1      -4.593  -0.701  24.708  0.00  0.00    -0.038 A 
ATOM     25  C   UNL     1      -3.530  -0.355  25.542  0.00  0.00    +0.007 A 
ATOM     26  C   UNL     1      -4.494  -1.820  23.880  0.00  0.00    +0.007 A 
ATOM     29  C   UNL     1      -2.368  -1.127  25.549  0.00  0.00    +0.046 A 
ATOM     30  C   UNL     1      -3.333  -2.592  23.887  0.00  0.00    +0.046 A 
ATOM     32  C   UNL     1      -2.270  -2.246  24.721  0.00  0.00    +0.120 A 
BRANCH  32   5
ATOM      5  O   UNL     1      -1.137  -3.000  24.729  0.00  0.00    -0.495 OA
ATOM     35  C   UNL     1      -0.038  -2.512  25.498  0.00  0.00    +0.277 C 
ENDBRANCH  32   5
ENDBRANCH  20  22
ENDBRANCH  17  20
TORSDOF 8
ENDMDL
MODEL 6
REMARK VINA RESULT:       7.1      1.697      2.889
REMARK  Name = 26742542
REMARK  11 active torsions:
REMARK  status: ('A' for Active; 'I' for Inactive)
REMARK    1  A    between atoms: O_3  and  C_23
REMARK    2  A    between atoms: O_3  and  C_33
REMARK    3  A    between atoms: O_4  and  C_27
REMARK    4  A    between atoms: O_4  and  C_34
REMARK    5  A    between atoms: O_5  and  C_32
REMARK    6  A    between atoms: O_5  and  C_35
REMARK    7  A    between atoms: N_7  and  C_18
REMARK    8  A    between atoms: C_17  and  C_20
REMARK    9  A    between atoms: C_18  and  C_19
REMARK   10  A    between atoms: C_19  and  C_21
REMARK   11  A    between atoms: C_20  and  C_22
REMARK                            x       y       z     vdW  Elec       q    Type
REMARK                         _______ _______ _______ _____ _____    ______ ____
ROOT
ATOM      1  O   UNL     1      -5.424   0.470  26.446  0.00  0.00    -0.276 OA
ATOM      2  O   UNL     1       0.969   2.238  24.209  0.00  0.00    -0.275 OA
ATOM      6  N   UNL     1       0.072   0.258  25.031  0.00  0.00    -0.301 N 
ATOM      7  N   UNL     1      -4.712  -0.485  24.456  0.00  0.00    -0.301 N 
ATOM      8  C   UNL     1      -1.684  -1.505  25.052  0.00  0.00    +0.011 C 
ATOM      9  C   UNL     1      -2.242  -0.874  26.350  0.00  0.00    +0.004 C 
ATOM     10  C   UNL     1      -1.919   0.628  26.435  0.00  0.00    +0.023 C 
ATOM     11  C   UNL     1      -0.181  -1.184  24.927  0.00  0.00    +0.111 C 
ATOM     12  C   UNL     1      -2.416  -1.100  23.759  0.00  0.00    +0.024 C 
ATOM     13  C   UNL     1      -3.722  -1.183  26.610  0.00  0.00    +0.100 C 
ATOM     14  C   UNL     1      -0.423   0.880  26.260  0.00  0.00    +0.108 C 
ATOM     15  C   UNL     1      -3.894  -1.474  23.756  0.00  0.00    +0.108 C 
ATOM     16  C   UNL     1      -4.702  -0.322  25.836  0.00  0.00    +0.216 C 
ATOM     17  C   UNL     1       0.748   1.030  24.087  0.00  0.00    +0.220 C 
ENDROOT
BRANCH   7  18
ATOM     18  C   UNL     1      -5.561   0.361  23.627  0.00  0.00    +0.112 C 
BRANCH  18  19
ATOM     19  C   UNL     1      -5.468   1.837  24.007  0.00  0.00    +0.058 C 
BRANCH  19  21
ATOM     21  C   UNL     1      -4.083   2.406  23.821  0.00  0.00    -0.001 A 
ATOM     23  C   UNL     1      -3.597   3.396  24.675  0.00  0.00    +0.165 A 
ATOM     24  C   UNL     1      -3.286   1.931  22.779  0.00  0.00    +0.007 A 
ATOM     27  C   UNL     1      -2.314   3.910  24.488  0.00  0.00    +0.162 A 
ATOM     28  C   UNL     1      -2.003   2.445  22.592  0.00  0.00    +0.004 A 
ATOM     31  C   UNL     1      -1.517   3.434  23.447  0.00  0.00    +0.049 A 
BRANCH  23   3
ATOM      3  O   UNL     1      -4.373   3.863  25.695  0.00  0.00    -0.491 OA
ATOM     33  C   UNL     1      -3.763   3.952  26.981  0.00  0.00    +0.277 C 
ENDBRANCH  23   3
BRANCH  27   4
ATOM      4  O   UNL     1      -1.825   4.875  25.316  0.00  0.00    -0.491 OA
ATOM     34  C   UNL     1      -0.621   5.525  24.915  0.00  0.00    +0.277 C 
ENDBRANCH  27   4
ENDBRANCH  19  21
ENDBRANCH  18  19
ENDBRANCH   7  18
BRANCH  17  20
ATOM     20  C   UNL     1       1.223   0.317  22.847  0.00  0.00    +0.131 C 
BRANCH  20  22
ATOM     22  C   UNL     1       2.688   0.023  22.936  0.00  0.00    -0.038 A 
ATOM     25  C   UNL     1       3.126  -1.172  23.507  0.00  0.00    +0.007 A 
ATOM     26  C   UNL     1       3.616   0.943  22.445  0.00  0.00    +0.007 A 
ATOM     29  C   UNL     1       4.492  -1.447  23.588  0.00  0.00    +0.046 A 
ATOM     30  C   UNL     1       4.980   0.667  22.524  0.00  0.00    +0.046 A 
ATOM     32  C   UNL     1       5.419  -0.527  23.095  0.00  0.00    +0.120 A 
BRANCH  32   5
ATOM      5  O   UNL     1       6.750  -0.796  23.173  0.00  0.00    -0.495 OA
ATOM     35  C   UNL     1       7.602   0.260  23.615  0.00  0.00    +0.277 C 
ENDBRANCH  32   5
ENDBRANCH  20  22
ENDBRANCH  17  20
TORSDOF 8
ENDMDL
MODEL 7
REMARK VINA RESULT:       7.5      1.538      6.752
REMARK  Name = 26742542
REMARK  11 active torsions:
REMARK  status: ('A' for Active; 'I' for Inactive)
REMARK    1  A    between atoms: O_3  and  C_23
REMARK    2  A    between atoms: O_3  and  C_33
REMARK    3  A    between atoms: O_4  and  C_27
REMARK    4  A    between atoms: O_4  and  C_34
REMARK    5  A    between atoms: O_5  and  C_32
REMARK    6  A    between atoms: O_5  and  C_35
REMARK    7  A    between atoms: N_7  and  C_18
REMARK    8  A    between atoms: C_17  and  C_20
REMARK    9  A    between atoms: C_18  and  C_19
REMARK   10  A    between atoms: C_19  and  C_21
REMARK   11  A    between atoms: C_20  and  C_22
REMARK                            x       y       z     vdW  Elec       q    Type
REMARK                         _______ _______ _______ _____ _____    ______ ____
ROOT
ATOM      1  O   UNL     1      -0.802  -2.454  22.874  0.00  0.00    -0.276 OA
ATOM      2  O   UNL     1      -6.402   1.648  23.778  0.00  0.00    -0.275 OA
ATOM      6  N   UNL     1      -5.234   0.229  25.200  0.00  0.00    -0.301 N 
ATOM      7  N   UNL     1      -0.527  -0.595  24.234  0.00  0.00    -0.301 N 
ATOM      8  C   UNL     1      -3.114  -0.605  26.201  0.00  0.00    +0.011 C 
ATOM      9  C   UNL     1      -3.212  -1.840  25.274  0.00  0.00    +0.004 C 
ATOM     10  C   UNL     1      -3.996  -1.523  23.988  0.00  0.00    +0.023 C 
ATOM     11  C   UNL     1      -4.526  -0.039  26.457  0.00  0.00    +0.111 C 
ATOM     12  C   UNL     1      -2.182   0.515  25.705  0.00  0.00    +0.024 C 
ATOM     13  C   UNL     1      -1.868  -2.525  25.000  0.00  0.00    +0.100 C 
ATOM     14  C   UNL     1      -5.365  -0.926  24.312  0.00  0.00    +0.108 C 
ATOM     15  C   UNL     1      -0.737   0.065  25.521  0.00  0.00    +0.108 C 
ATOM     16  C   UNL     1      -1.015  -1.862  23.935  0.00  0.00    +0.216 C 
ATOM     17  C   UNL     1      -5.789   1.454  24.831  0.00  0.00    +0.220 C 
ENDROOT
BRANCH   7  18
ATOM     18  C   UNL     1       0.229   0.150  23.236  0.00  0.00    +0.112 C 
BRANCH  18  19
ATOM     19  C   UNL     1       1.409  -0.644  22.681  0.00  0.00    +0.058 C 
BRANCH  19  21
ATOM     21  C   UNL     1       2.729   0.065  22.853  0.00  0.00    -0.001 A 
ATOM     23  C   UNL     1       3.819  -0.584  23.433  0.00  0.00    +0.165 A 
ATOM     24  C   UNL     1       2.852   1.387  22.423  0.00  0.00    +0.007 A 
ATOM     27  C   UNL     1       5.032   0.089  23.583  0.00  0.00    +0.162 A 
ATOM     28  C   UNL     1       4.065   2.059  22.574  0.00  0.00    +0.004 A 
ATOM     31  C   UNL     1       5.155   1.410  23.154  0.00  0.00    +0.049 A 
BRANCH  23   3
ATOM      3  O   UNL     1       3.703  -1.876  23.854  0.00  0.00    -0.491 OA
ATOM     33  C   UNL     1       4.885  -2.672  23.824  0.00  0.00    +0.277 C 
ENDBRANCH  23   3
BRANCH  27   4
ATOM      4  O   UNL     1       6.105  -0.533  24.147  0.00  0.00    -0.491 OA
ATOM     34  C   UNL     1       7.361  -0.380  23.490  0.00  0.00    +0.277 C 
ENDBRANCH  27   4
ENDBRANCH  19  21
ENDBRANCH  18  19
ENDBRANCH   7  18
BRANCH  17  20
ATOM     20  C   UNL     1      -5.609   2.596  25.799  0.00  0.00    +0.131 C 
BRANCH  20  22
ATOM     22  C   UNL     1      -4.310   3.298  25.552  0.00  0.00    -0.038 A 
ATOM     25  C   UNL     1      -3.582   3.813  26.624  0.00  0.00    +0.007 A 
ATOM     26  C   UNL     1      -3.826   3.434  24.251  0.00  0.00    +0.007 A 
ATOM     29  C   UNL     1      -2.370   4.466  26.395  0.00  0.00    +0.046 A 
ATOM     30  C   UNL     1      -2.615   4.084  24.022  0.00  0.00    +0.046 A 
ATOM     32  C   UNL     1      -1.886   4.601  25.093  0.00  0.00    +0.120 A 
BRANCH  32   5
ATOM      5  O   UNL     1      -0.703   5.235  24.870  0.00  0.00    -0.495 OA
ATOM     35  C   UNL     1       0.094   4.760  23.785  0.00  0.00    +0.277 C 
ENDBRANCH  32   5
ENDBRANCH  20  22
ENDBRANCH  17  20
TORSDOF 8
ENDMDL
MODEL 8
REMARK VINA RESULT:       7.9      1.540      6.609
REMARK  Name = 26742542
REMARK  11 active torsions:
REMARK  status: ('A' for Active; 'I' for Inactive)
REMARK    1  A    between atoms: O_3  and  C_23
REMARK    2  A    between atoms: O_3  and  C_33
REMARK    3  A    between atoms: O_4  and  C_27
REMARK    4  A    between atoms: O_4  and  C_34
REMARK    5  A    between atoms: O_5  and  C_32
REMARK    6  A    between atoms: O_5  and  C_35
REMARK    7  A    between atoms: N_7  and  C_18
REMARK    8  A    between atoms: C_17  and  C_20
REMARK    9  A    between atoms: C_18  and  C_19
REMARK   10  A    between atoms: C_19  and  C_21
REMARK   11  A    between atoms: C_20  and  C_22
REMARK                            x       y       z     vdW  Elec       q    Type
REMARK                         _______ _______ _______ _____ _____    ______ ____
ROOT
ATOM      1  O   UNL     1      -0.360  -2.096  22.640  0.00  0.00    -0.276 OA
ATOM      2  O   UNL     1      -6.259   1.503  23.755  0.00  0.00    -0.275 OA
ATOM      6  N   UNL     1      -4.979   0.107  25.102  0.00  0.00    -0.301 N 
ATOM      7  N   UNL     1      -0.226  -0.295  24.095  0.00  0.00    -0.301 N 
ATOM      8  C   UNL     1      -2.797  -0.610  26.058  0.00  0.00    +0.011 C 
ATOM      9  C   UNL     1      -2.801  -1.798  25.068  0.00  0.00    +0.004 C 
ATOM     10  C   UNL     1      -3.613  -1.477  23.800  0.00  0.00    +0.023 C 
ATOM     11  C   UNL     1      -4.247  -0.170  26.344  0.00  0.00    +0.111 C 
ATOM     12  C   UNL     1      -1.957   0.605  25.621  0.00  0.00    +0.024 C 
ATOM     13  C   UNL     1      -1.408  -2.361  24.759  0.00  0.00    +0.100 C 
ATOM     14  C   UNL     1      -5.022  -1.007  24.154  0.00  0.00    +0.108 C 
ATOM     15  C   UNL     1      -0.482   0.279  25.415  0.00  0.00    +0.108 C 
ATOM     16  C   UNL     1      -0.615  -1.579  23.730  0.00  0.00    +0.216 C 
ATOM     17  C   UNL     1      -5.629   1.303  24.797  0.00  0.00    +0.220 C 
ENDROOT
BRANCH   7  18
ATOM     18  C   UNL     1       0.466   0.558  23.137  0.00  0.00    +0.112 C 
BRANCH  18  19
ATOM     19  C   UNL     1       1.397  -0.229  22.217  0.00  0.00    +0.058 C 
BRANCH  19  21
ATOM     21  C   UNL     1       2.697  -0.609  22.880  0.00  0.00    -0.001 A 
ATOM     23  C   UNL     1       3.844   0.164  22.699  0.00  0.00    +0.165 A 
ATOM     24  C   UNL     1       2.744  -1.750  23.682  0.00  0.00    +0.007 A 
ATOM     27  C   UNL     1       5.037  -0.203  23.321  0.00  0.00    +0.162 A 
ATOM     28  C   UNL     1       3.937  -2.117  24.304  0.00  0.00    +0.004 A 
ATOM     31  C   UNL     1       5.084  -1.343  24.124  0.00  0.00    +0.049 A 
BRANCH  23   3
ATOM      3  O   UNL     1       3.803   1.280  21.916  0.00  0.00    -0.491 OA
ATOM     33  C   UNL     1       3.544   2.519  22.572  0.00  0.00    +0.277 C 
ENDBRANCH  23   3
BRANCH  27   4
ATOM      4  O   UNL     1       6.164   0.543  23.155  0.00  0.00    -0.491 OA
ATOM     34  C   UNL     1       7.410  -0.151  23.176  0.00  0.00    +0.277 C 
ENDBRANCH  27   4
ENDBRANCH  19  21
ENDBRANCH  18  19
ENDBRANCH   7  18
BRANCH  17  20
ATOM     20  C   UNL     1      -5.535   2.403  25.823  0.00  0.00    +0.131 C 
BRANCH  20  22
ATOM     22  C   UNL     1      -4.304   3.226  25.604  0.00  0.00    -0.038 A 
ATOM     25  C   UNL     1      -3.818   3.423  24.312  0.00  0.00    +0.007 A 
ATOM     26  C   UNL     1      -3.644   3.798  26.692  0.00  0.00    +0.007 A 
ATOM     29  C   UNL     1      -2.672   4.191  24.107  0.00  0.00    +0.046 A 
ATOM     30  C   UNL     1      -2.500   4.567  26.488  0.00  0.00    +0.046 A 
ATOM     32  C   UNL     1      -2.013   4.764  25.196  0.00  0.00    +0.120 A 
BRANCH  32   5
ATOM      5  O   UNL     1      -0.896   5.515  24.996  0.00  0.00    -0.495 OA
ATOM     35  C   UNL     1       0.082   4.998  24.094  0.00  0.00    +0.277 C 
ENDBRANCH  32   5
ENDBRANCH  20  22
ENDBRANCH  17  20
TORSDOF 8
ENDMDL
