MODEL 1
REMARK VINA RESULT:       4.2      0.000      0.000
REMARK  Name = 9424604
REMARK  4 active torsions:
REMARK  status: ('A' for Active; 'I' for Inactive)
REMARK    1  A    between atoms: N_5  and  C_14
REMARK    2  A    between atoms: N_8  and  C_21
REMARK    3  A    between atoms: C_25  and  C_26
REMARK    4  A    between atoms: C_27  and  C_28
REMARK                            x       y       z     vdW  Elec       q    Type
REMARK                         _______ _______ _______ _____ _____    ______ ____
ROOT
ATOM      1  O   UNL     1      -3.586   5.380  26.852  0.00  0.00    -0.268 OA
ATOM      5  N   UNL     1      -4.127   0.801  24.874  0.00  0.00    -0.298 NA
ATOM      6  N   UNL     1      -3.278   3.871  25.089  0.00  0.00    -0.310 N 
ATOM      9  C   UNL     1      -5.248   2.795  23.849  0.00  0.00    +0.024 C 
ATOM     10  C   UNL     1      -2.954   2.238  23.203  0.00  0.00    +0.052 C 
ATOM     11  C   UNL     1      -4.288   2.756  22.672  0.00  0.00    +0.017 C 
ATOM     12  C   UNL     1      -5.406   1.385  24.456  0.00  0.00    +0.090 C 
ATOM     13  C   UNL     1      -3.147   0.815  23.778  0.00  0.00    +0.094 C 
ATOM     15  C   UNL     1      -4.729   3.820  24.862  0.00  0.00    +0.130 C 
ATOM     16  C   UNL     1      -2.376   3.168  24.268  0.00  0.00    +0.047 A 
ATOM     21  C   UNL     1      -1.045   3.311  24.460  0.00  0.00    +0.054 A 
ATOM     22  C   UNL     1      -2.845   4.730  26.115  0.00  0.00    +0.252 A 
ATOM     23  C   UNL     1      -0.551   4.182  25.499  0.00  0.00    +0.030 A 
ATOM     24  C   UNL     1      -1.379   4.856  26.299  0.00  0.00    +0.072 A 
ENDROOT
BRANCH   5  14
ATOM      2  O   UNL     1      -1.152  -3.909  23.451  0.00  0.00    -0.276 OA
ATOM      7  N   UNL     1      -1.929  -2.043  24.596  0.00  0.00    -0.302 N 
ATOM     14  C   UNL     1      -4.315  -0.557  25.390  0.00  0.00    +0.060 C 
ATOM     17  C   UNL     1      -3.199  -0.909  26.385  0.00  0.00    +0.038 C 
ATOM     18  C   UNL     1      -4.324  -1.572  24.236  0.00  0.00    +0.038 C 
ATOM     19  C   UNL     1      -1.840  -1.084  25.706  0.00  0.00    +0.109 C 
ATOM     20  C   UNL     1      -2.948  -1.733  23.591  0.00  0.00    +0.109 C 
ATOM     25  C   UNL     1      -1.096  -3.148  24.420  0.00  0.00    +0.212 C 
ATOM     26  C   UNL     1      -0.075  -3.405  25.499  0.00  0.00    +0.109 C 
ENDBRANCH   5  14
BRANCH  21   8
ATOM      3  O   UNL     1       0.181   0.880  25.186  0.00  0.00    -0.266 OA
ATOM      8  N   UNL     1      -0.096   2.647  23.731  0.00  0.00    -0.277 N 
ATOM     27  C   UNL     1       0.482   1.445  24.132  0.00  0.00    +0.284 C 
ATOM     32  H   UNL     1       0.059   2.933  22.769  0.00  0.00    +0.155 HD
BRANCH  27  28
ATOM      4  O   UNL     1       2.708   1.345  23.287  0.00  0.00    -0.458 OA
ATOM     28  C   UNL     1       1.461   0.872  23.195  0.00  0.00    +0.189 A 
ATOM     29  C   UNL     1       1.302  -0.065  22.244  0.00  0.00    +0.054 A 
ATOM     30  C   UNL     1       2.586  -0.207  21.666  0.00  0.00    +0.042 A 
ATOM     31  C   UNL     1       3.405   0.672  22.335  0.00  0.00    +0.196 A 
ENDBRANCH  27  28
ENDBRANCH  21   8
TORSDOF 3
ENDMDL
MODEL 2
REMARK VINA RESULT:       6.6      1.484      1.972
REMARK  Name = 9424604
REMARK  4 active torsions:
REMARK  status: ('A' for Active; 'I' for Inactive)
REMARK    1  A    between atoms: N_5  and  C_14
REMARK    2  A    between atoms: N_8  and  C_21
REMARK    3  A    between atoms: C_25  and  C_26
REMARK    4  A    between atoms: C_27  and  C_28
REMARK                            x       y       z     vdW  Elec       q    Type
REMARK                         _______ _______ _______ _____ _____    ______ ____
ROOT
ATOM      1  O   UNL     1      -2.327   3.762  28.910  0.00  0.00    -0.268 OA
ATOM      5  N   UNL     1      -3.648   2.149  24.346  0.00  0.00    -0.298 NA
ATOM      6  N   UNL     1      -1.966   3.662  26.599  0.00  0.00    -0.310 N 
ATOM      9  C   UNL     1      -3.656   4.592  24.910  0.00  0.00    +0.024 C 
ATOM     10  C   UNL     1      -1.592   3.546  24.115  0.00  0.00    +0.052 C 
ATOM     11  C   UNL     1      -2.431   4.819  24.040  0.00  0.00    +0.017 C 
ATOM     12  C   UNL     1      -4.455   3.374  24.401  0.00  0.00    +0.090 C 
ATOM     13  C   UNL     1      -2.415   2.354  23.573  0.00  0.00    +0.094 C 
ATOM     15  C   UNL     1      -3.195   4.432  26.361  0.00  0.00    +0.130 C 
ATOM     16  C   UNL     1      -1.126   3.265  25.542  0.00  0.00    +0.047 A 
ATOM     21  C   UNL     1       0.038   2.632  25.813  0.00  0.00    +0.054 A 
ATOM     22  C   UNL     1      -1.640   3.425  27.946  0.00  0.00    +0.252 A 
ATOM     23  C   UNL     1       0.419   2.367  27.179  0.00  0.00    +0.030 A 
ATOM     24  C   UNL     1      -0.359   2.723  28.204  0.00  0.00    +0.072 A 
ENDROOT
BRANCH   5  14
ATOM      2  O   UNL     1      -1.961  -3.318  23.778  0.00  0.00    -0.276 OA
ATOM      7  N   UNL     1      -2.978  -1.386  24.572  0.00  0.00    -0.302 N 
ATOM     14  C   UNL     1      -4.426   1.033  23.805  0.00  0.00    +0.060 C 
ATOM     17  C   UNL     1      -4.905   0.116  24.941  0.00  0.00    +0.038 C 
ATOM     18  C   UNL     1      -3.582   0.228  22.805  0.00  0.00    +0.038 C 
ATOM     19  C   UNL     1      -3.759  -0.665  25.587  0.00  0.00    +0.109 C 
ATOM     20  C   UNL     1      -2.458  -0.552  23.486  0.00  0.00    +0.109 C 
ATOM     25  C   UNL     1      -2.666  -2.744  24.612  0.00  0.00    +0.212 C 
ATOM     26  C   UNL     1      -3.242  -3.537  25.758  0.00  0.00    +0.109 C 
ENDBRANCH   5  14
BRANCH  21   8
ATOM      3  O   UNL     1      -0.006   0.079  24.623  0.00  0.00    -0.266 OA
ATOM      8  N   UNL     1       0.902   2.185  24.851  0.00  0.00    -0.277 N 
ATOM     27  C   UNL     1       0.841   0.911  24.292  0.00  0.00    +0.284 C 
ATOM     32  H   UNL     1       1.494   2.865  24.382  0.00  0.00    +0.155 HD
BRANCH  27  28
ATOM      4  O   UNL     1       3.020   1.246  23.386  0.00  0.00    -0.458 OA
ATOM     28  C   UNL     1       1.840   0.631  23.249  0.00  0.00    +0.189 A 
ATOM     29  C   UNL     1       1.759  -0.155  22.162  0.00  0.00    +0.054 A 
ATOM     30  C   UNL     1       3.022  -0.030  21.536  0.00  0.00    +0.042 A 
ATOM     31  C   UNL     1       3.752   0.832  22.320  0.00  0.00    +0.196 A 
ENDBRANCH  27  28
ENDBRANCH  21   8
TORSDOF 3
ENDMDL
MODEL 3
REMARK VINA RESULT:       6.7      1.649      5.706
REMARK  Name = 9424604
REMARK  4 active torsions:
REMARK  status: ('A' for Active; 'I' for Inactive)
REMARK    1  A    between atoms: N_5  and  C_14
REMARK    2  A    between atoms: N_8  and  C_21
REMARK    3  A    between atoms: C_25  and  C_26
REMARK    4  A    between atoms: C_27  and  C_28
REMARK                            x       y       z     vdW  Elec       q    Type
REMARK                         _______ _______ _______ _____ _____    ______ ____
ROOT
ATOM      1  O   UNL     1      -4.152  -4.025  23.822  0.00  0.00    -0.268 OA
ATOM      5  N   UNL     1      -3.115   0.869  24.211  0.00  0.00    -0.298 NA
ATOM      6  N   UNL     1      -2.822  -2.281  24.641  0.00  0.00    -0.310 N 
ATOM      9  C   UNL     1      -3.743  -0.487  26.224  0.00  0.00    +0.024 C 
ATOM     10  C   UNL     1      -1.403  -0.398  25.514  0.00  0.00    +0.052 C 
ATOM     11  C   UNL     1      -2.315  -0.425  26.738  0.00  0.00    +0.017 C 
ATOM     12  C   UNL     1      -4.046   0.740  25.338  0.00  0.00    +0.090 C 
ATOM     13  C   UNL     1      -1.717   0.857  24.667  0.00  0.00    +0.094 C 
ATOM     15  C   UNL     1      -3.932  -1.813  25.482  0.00  0.00    +0.130 C 
ATOM     16  C   UNL     1      -1.559  -1.662  24.671  0.00  0.00    +0.047 A 
ATOM     21  C   UNL     1      -0.542  -2.178  23.944  0.00  0.00    +0.054 A 
ATOM     22  C   UNL     1      -3.075  -3.433  23.874  0.00  0.00    +0.252 A 
ATOM     23  C   UNL     1      -0.750  -3.359  23.142  0.00  0.00    +0.030 A 
ATOM     24  C   UNL     1      -1.937  -3.966  23.086  0.00  0.00    +0.072 A 
ENDROOT
BRANCH   5  14
ATOM      2  O   UNL     1      -2.150   6.324  25.747  0.00  0.00    -0.276 OA
ATOM      7  N   UNL     1      -1.947   4.237  24.749  0.00  0.00    -0.302 N 
ATOM     14  C   UNL     1      -3.402   2.074  23.430  0.00  0.00    +0.060 C 
ATOM     17  C   UNL     1      -2.103   2.659  22.855  0.00  0.00    +0.038 C 
ATOM     18  C   UNL     1      -4.104   3.124  24.305  0.00  0.00    +0.038 C 
ATOM     19  C   UNL     1      -1.204   3.265  23.933  0.00  0.00    +0.109 C 
ATOM     20  C   UNL     1      -3.173   3.720  25.361  0.00  0.00    +0.109 C 
ATOM     25  C   UNL     1      -1.539   5.544  25.013  0.00  0.00    +0.212 C 
ATOM     26  C   UNL     1      -0.269   6.004  24.344  0.00  0.00    +0.109 C 
ENDBRANCH   5  14
BRANCH  21   8
ATOM      3  O   UNL     1       0.334  -0.270  22.064  0.00  0.00    -0.266 OA
ATOM      8  N   UNL     1       0.709  -1.628  23.890  0.00  0.00    -0.277 N 
ATOM     27  C   UNL     1       1.097  -0.686  22.939  0.00  0.00    +0.284 C 
ATOM     32  H   UNL     1       1.329  -1.760  24.684  0.00  0.00    +0.155 HD
BRANCH  27  28
ATOM      4  O   UNL     1       3.382  -1.081  23.489  0.00  0.00    -0.458 OA
ATOM     28  C   UNL     1       2.477  -0.192  23.067  0.00  0.00    +0.189 A 
ATOM     29  C   UNL     1       2.984   1.030  22.825  0.00  0.00    +0.054 A 
ATOM     30  C   UNL     1       4.362   0.909  23.124  0.00  0.00    +0.042 A 
ATOM     31  C   UNL     1       4.553  -0.393  23.523  0.00  0.00    +0.196 A 
ENDBRANCH  27  28
ENDBRANCH  21   8
TORSDOF 3
ENDMDL
