MODEL 1
REMARK VINA RESULT:      -0.6      0.000      0.000
REMARK  Name = 40777985
REMARK  10 active torsions:
REMARK  status: ('A' for Active; 'I' for Inactive)
REMARK    1  A    between atoms: O_2  and  C_11
REMARK    2  A    between atoms: O_3  and  C_12
REMARK    3  A    between atoms: N_7  and  C_21
REMARK    4  A    between atoms: N_8  and  C_15
REMARK    5  A    between atoms: N_9  and  C_25
REMARK    6  A    between atoms: C_10  and  C_14
REMARK    7  A    between atoms: C_13  and  C_15
REMARK    8  A    between atoms: C_14  and  C_16
REMARK    9  A    between atoms: C_25  and  C_29
REMARK   10  A    between atoms: C_25  and  C_30
REMARK                            x       y       z     vdW  Elec       q    Type
REMARK                         _______ _______ _______ _____ _____    ______ ____
ROOT
ATOM      1  O   UNL     1      -3.379   2.653  23.444  0.00  0.00    -0.366 OA
ATOM     10  C   UNL     1      -4.278   1.684  24.011  0.00  0.00    +0.159 C 
ATOM     11  C   UNL     1      -4.079   1.769  25.515  0.00  0.00    +0.175 C 
ATOM     12  C   UNL     1      -3.823   3.250  25.704  0.00  0.00    +0.176 C 
ATOM     13  C   UNL     1      -2.983   3.586  24.476  0.00  0.00    +0.167 C 
ENDROOT
BRANCH  11   2
ATOM      2  O   UNL     1      -5.205   1.301  26.226  0.00  0.00    -0.387 OA
ATOM     31  H   UNL     1      -5.091   1.564  27.155  0.00  0.00    +0.210 HD
ENDBRANCH  11   2
BRANCH  12   3
ATOM      3  O   UNL     1      -5.046   3.979  25.617  0.00  0.00    -0.387 OA
ATOM     32  H   UNL     1      -4.830   4.922  25.715  0.00  0.00    +0.210 HD
ENDBRANCH  12   3
BRANCH  10  14
ATOM     14  C   UNL     1      -3.975   0.310  23.441  0.00  0.00    +0.130 C 
BRANCH  14  16
ATOM      4  O   UNL     1      -3.557  -1.158  25.260  0.00  0.00    -0.276 OA
ATOM      6  N   UNL     1      -1.696  -0.284  24.177  0.00  0.00    -0.298 N 
ATOM      7  N   UNL     1       1.160  -0.186  23.714  0.00  0.00    -0.327 N 
ATOM     16  C   UNL     1      -3.067  -0.448  24.378  0.00  0.00    +0.218 C 
ATOM     17  C   UNL     1      -0.752  -0.980  25.046  0.00  0.00    +0.126 C 
ATOM     18  C   UNL     1      -1.116   0.551  23.122  0.00  0.00    +0.126 C 
ATOM     19  C   UNL     1       0.527  -1.368  24.307  0.00  0.00    +0.124 C 
ATOM     20  C   UNL     1       0.319   0.980  23.428  0.00  0.00    +0.124 C 
BRANCH   7  21
ATOM     21  C   UNL     1       2.529  -0.164  23.463  0.00  0.00    +0.030 A 
ATOM     23  C   UNL     1       3.103   0.934  22.823  0.00  0.00    +0.023 A 
ATOM     24  C   UNL     1       3.327  -1.240  23.854  0.00  0.00    +0.023 A 
ATOM     26  C   UNL     1       4.476   0.956  22.573  0.00  0.00    +0.002 A 
ATOM     27  C   UNL     1       4.699  -1.217  23.603  0.00  0.00    +0.002 A 
ATOM     28  C   UNL     1       5.273  -0.120  22.963  0.00  0.00    +0.000 A 
ENDBRANCH   7  21
ENDBRANCH  14  16
ENDBRANCH  10  14
BRANCH  13  15
ATOM     15  C   UNL     1      -1.489   3.415  24.709  0.00  0.00    +0.140 C 
BRANCH  15   8
ATOM      5  O   UNL     1       0.933   2.379  25.886  0.00  0.00    -0.253 OA
ATOM      8  N   UNL     1      -1.195   3.286  26.106  0.00  0.00    -0.297 N 
ATOM      9  N   UNL     1       0.031   2.758  27.990  0.00  0.00    -0.297 N 
ATOM     22  C   UNL     1       0.009   2.771  26.598  0.00  0.00    +0.300 C 
ATOM     33  H   UNL     1      -1.894   3.592  26.774  0.00  0.00    +0.150 HD
ATOM     34  H   UNL     1      -0.750   3.173  28.489  0.00  0.00    +0.150 HD
BRANCH   9  25
ATOM     25  C   UNL     1       1.161   2.275  28.750  0.00  0.00    +0.068 C 
ATOM     29  C   UNL     1       0.850   2.311  30.242  0.00  0.00    +0.027 C 
ATOM     30  C   UNL     1       2.409   3.086  28.428  0.00  0.00    +0.027 C 
ENDBRANCH   9  25
ENDBRANCH  15   8
ENDBRANCH  13  15
TORSDOF 8
ENDMDL
MODEL 2
REMARK VINA RESULT:       1.4      1.617      2.386
REMARK  Name = 40777985
REMARK  10 active torsions:
REMARK  status: ('A' for Active; 'I' for Inactive)
REMARK    1  A    between atoms: O_2  and  C_11
REMARK    2  A    between atoms: O_3  and  C_12
REMARK    3  A    between atoms: N_7  and  C_21
REMARK    4  A    between atoms: N_8  and  C_15
REMARK    5  A    between atoms: N_9  and  C_25
REMARK    6  A    between atoms: C_10  and  C_14
REMARK    7  A    between atoms: C_13  and  C_15
REMARK    8  A    between atoms: C_14  and  C_16
REMARK    9  A    between atoms: C_25  and  C_29
REMARK   10  A    between atoms: C_25  and  C_30
REMARK                            x       y       z     vdW  Elec       q    Type
REMARK                         _______ _______ _______ _____ _____    ______ ____
ROOT
ATOM      1  O   UNL     1      -5.976   2.070  24.230  0.00  0.00    -0.366 OA
ATOM     10  C   UNL     1      -5.286   0.860  24.588  0.00  0.00    +0.159 C 
ATOM     11  C   UNL     1      -4.782   1.078  26.005  0.00  0.00    +0.175 C 
ATOM     12  C   UNL     1      -5.903   1.903  26.602  0.00  0.00    +0.176 C 
ATOM     13  C   UNL     1      -6.289   2.806  25.435  0.00  0.00    +0.167 C 
ENDROOT
BRANCH  11   2
ATOM      2  O   UNL     1      -4.563  -0.141  26.682  0.00  0.00    -0.387 OA
ATOM     31  H   UNL     1      -5.229  -0.774  26.364  0.00  0.00    +0.210 HD
ENDBRANCH  11   2
BRANCH  12   3
ATOM      3  O   UNL     1      -7.022   1.071  26.907  0.00  0.00    -0.387 OA
ATOM     32  H   UNL     1      -7.543   1.524  27.592  0.00  0.00    +0.210 HD
ENDBRANCH  12   3
BRANCH  10  14
ATOM     14  C   UNL     1      -4.175   0.590  23.589  0.00  0.00    +0.130 C 
BRANCH  14  16
ATOM      4  O   UNL     1      -3.845  -1.566  24.528  0.00  0.00    -0.276 OA
ATOM      6  N   UNL     1      -1.933  -0.366  23.975  0.00  0.00    -0.298 N 
ATOM      7  N   UNL     1       0.934  -0.179  23.617  0.00  0.00    -0.327 N 
ATOM     16  C   UNL     1      -3.312  -0.550  24.074  0.00  0.00    +0.218 C 
ATOM     17  C   UNL     1      -1.031  -1.421  24.428  0.00  0.00    +0.126 C 
ATOM     18  C   UNL     1      -1.303   0.837  23.426  0.00  0.00    +0.126 C 
ATOM     19  C   UNL     1       0.249  -1.475  23.596  0.00  0.00    +0.124 C 
ATOM     20  C   UNL     1       0.139   1.019  23.899  0.00  0.00    +0.124 C 
BRANCH   7  21
ATOM     21  C   UNL     1       2.308  -0.098  23.409  0.00  0.00    +0.030 A 
ATOM     23  C   UNL     1       2.864   1.060  22.865  0.00  0.00    +0.023 A 
ATOM     24  C   UNL     1       3.128  -1.175  23.745  0.00  0.00    +0.023 A 
ATOM     26  C   UNL     1       4.241   1.140  22.657  0.00  0.00    +0.002 A 
ATOM     27  C   UNL     1       4.506  -1.094  23.536  0.00  0.00    +0.002 A 
ATOM     28  C   UNL     1       5.062   0.064  22.992  0.00  0.00    +0.000 A 
ENDBRANCH   7  21
ENDBRANCH  14  16
ENDBRANCH  10  14
BRANCH  13  15
ATOM     15  C   UNL     1      -5.502   4.108  25.403  0.00  0.00    +0.140 C 
BRANCH  15   8
ATOM      5  O   UNL     1      -3.026   3.752  23.965  0.00  0.00    -0.253 OA
ATOM      8  N   UNL     1      -4.195   3.936  25.965  0.00  0.00    -0.297 N 
ATOM      9  N   UNL     1      -1.907   3.625  25.993  0.00  0.00    -0.297 N 
ATOM     22  C   UNL     1      -3.039   3.769  25.195  0.00  0.00    +0.300 C 
ATOM     33  H   UNL     1      -4.101   3.946  26.975  0.00  0.00    +0.150 HD
ATOM     34  H   UNL     1      -2.009   3.728  26.999  0.00  0.00    +0.150 HD
BRANCH   9  25
ATOM     25  C   UNL     1      -0.583   3.437  25.447  0.00  0.00    +0.068 C 
ATOM     29  C   UNL     1       0.377   2.969  26.534  0.00  0.00    +0.027 C 
ATOM     30  C   UNL     1      -0.088   4.720  24.790  0.00  0.00    +0.027 C 
ENDBRANCH   9  25
ENDBRANCH  15   8
ENDBRANCH  13  15
TORSDOF 8
ENDMDL
MODEL 3
REMARK VINA RESULT:       1.4      2.617      4.141
REMARK  Name = 40777985
REMARK  10 active torsions:
REMARK  status: ('A' for Active; 'I' for Inactive)
REMARK    1  A    between atoms: O_2  and  C_11
REMARK    2  A    between atoms: O_3  and  C_12
REMARK    3  A    between atoms: N_7  and  C_21
REMARK    4  A    between atoms: N_8  and  C_15
REMARK    5  A    between atoms: N_9  and  C_25
REMARK    6  A    between atoms: C_10  and  C_14
REMARK    7  A    between atoms: C_13  and  C_15
REMARK    8  A    between atoms: C_14  and  C_16
REMARK    9  A    between atoms: C_25  and  C_29
REMARK   10  A    between atoms: C_25  and  C_30
REMARK                            x       y       z     vdW  Elec       q    Type
REMARK                         _______ _______ _______ _____ _____    ______ ____
ROOT
ATOM      1  O   UNL     1      -3.160   2.155  25.010  0.00  0.00    -0.366 OA
ATOM     10  C   UNL     1      -2.918   3.271  24.136  0.00  0.00    +0.159 C 
ATOM     11  C   UNL     1      -4.133   4.172  24.273  0.00  0.00    +0.175 C 
ATOM     12  C   UNL     1      -4.477   3.998  25.737  0.00  0.00    +0.176 C 
ATOM     13  C   UNL     1      -4.192   2.515  25.957  0.00  0.00    +0.167 C 
ENDROOT
BRANCH  11   2
ATOM      2  O   UNL     1      -3.845   5.508  23.920  0.00  0.00    -0.387 OA
ATOM     31  H   UNL     1      -4.006   5.598  22.966  0.00  0.00    +0.210 HD
ENDBRANCH  11   2
BRANCH  12   3
ATOM      3  O   UNL     1      -3.573   4.746  26.550  0.00  0.00    -0.387 OA
ATOM     32  H   UNL     1      -2.864   5.074  25.971  0.00  0.00    +0.210 HD
ENDBRANCH  12   3
BRANCH  10  14
ATOM     14  C   UNL     1      -2.694   2.772  22.719  0.00  0.00    +0.130 C 
BRANCH  14  16
ATOM      4  O   UNL     1      -3.157   0.449  22.550  0.00  0.00    -0.276 OA
ATOM      6  N   UNL     1      -0.955   1.044  22.994  0.00  0.00    -0.298 N 
ATOM      7  N   UNL     1       1.846   0.375  23.293  0.00  0.00    -0.327 N 
ATOM     16  C   UNL     1      -2.300   1.315  22.743  0.00  0.00    +0.218 C 
ATOM     17  C   UNL     1      -0.496  -0.342  23.039  0.00  0.00    +0.126 C 
ATOM     18  C   UNL     1       0.063   2.075  23.214  0.00  0.00    +0.126 C 
ATOM     19  C   UNL     1       0.937  -0.485  22.530  0.00  0.00    +0.124 C 
ATOM     20  C   UNL     1       1.285   1.549  23.968  0.00  0.00    +0.124 C 
BRANCH   7  21
ATOM     21  C   UNL     1       3.198   0.062  23.400  0.00  0.00    +0.030 A 
ATOM     23  C   UNL     1       3.589  -1.229  23.752  0.00  0.00    +0.023 A 
ATOM     24  C   UNL     1       4.162   1.042  23.156  0.00  0.00    +0.023 A 
ATOM     26  C   UNL     1       4.945  -1.542  23.859  0.00  0.00    +0.002 A 
ATOM     27  C   UNL     1       5.517   0.728  23.263  0.00  0.00    +0.002 A 
ATOM     28  C   UNL     1       5.908  -0.564  23.614  0.00  0.00    +0.000 A 
ENDBRANCH   7  21
ENDBRANCH  14  16
ENDBRANCH  10  14
BRANCH  13  15
ATOM     15  C   UNL     1      -5.401   1.631  25.686  0.00  0.00    +0.140 C 
BRANCH  15   8
ATOM      5  O   UNL     1      -3.933  -0.722  26.487  0.00  0.00    -0.253 OA
ATOM      8  N   UNL     1      -5.049   0.511  24.864  0.00  0.00    -0.297 N 
ATOM      9  N   UNL     1      -4.128  -1.537  24.324  0.00  0.00    -0.297 N 
ATOM     22  C   UNL     1      -4.333  -0.596  25.330  0.00  0.00    +0.300 C 
ATOM     33  H   UNL     1      -5.344   0.518  23.893  0.00  0.00    +0.150 HD
ATOM     34  H   UNL     1      -4.562  -1.378  23.420  0.00  0.00    +0.150 HD
BRANCH   9  25
ATOM     25  C   UNL     1      -3.416  -2.774  24.542  0.00  0.00    +0.068 C 
ATOM     29  C   UNL     1      -1.913  -2.524  24.558  0.00  0.00    +0.027 C 
ATOM     30  C   UNL     1      -3.792  -3.803  23.482  0.00  0.00    +0.027 C 
ENDBRANCH   9  25
ENDBRANCH  15   8
ENDBRANCH  13  15
TORSDOF 8
ENDMDL
MODEL 4
REMARK VINA RESULT:       1.6      1.941      4.243
REMARK  Name = 40777985
REMARK  10 active torsions:
REMARK  status: ('A' for Active; 'I' for Inactive)
REMARK    1  A    between atoms: O_2  and  C_11
REMARK    2  A    between atoms: O_3  and  C_12
REMARK    3  A    between atoms: N_7  and  C_21
REMARK    4  A    between atoms: N_8  and  C_15
REMARK    5  A    between atoms: N_9  and  C_25
REMARK    6  A    between atoms: C_10  and  C_14
REMARK    7  A    between atoms: C_13  and  C_15
REMARK    8  A    between atoms: C_14  and  C_16
REMARK    9  A    between atoms: C_25  and  C_29
REMARK   10  A    between atoms: C_25  and  C_30
REMARK                            x       y       z     vdW  Elec       q    Type
REMARK                         _______ _______ _______ _____ _____    ______ ____
ROOT
ATOM      1  O   UNL     1      -4.265   2.130  26.041  0.00  0.00    -0.366 OA
ATOM     10  C   UNL     1      -4.676   3.487  26.284  0.00  0.00    +0.159 C 
ATOM     11  C   UNL     1      -5.833   3.743  25.333  0.00  0.00    +0.175 C 
ATOM     12  C   UNL     1      -6.516   2.391  25.315  0.00  0.00    +0.176 C 
ATOM     13  C   UNL     1      -5.329   1.434  25.349  0.00  0.00    +0.167 C 
ENDROOT
BRANCH  11   2
ATOM      2  O   UNL     1      -6.669   4.786  25.785  0.00  0.00    -0.387 OA
ATOM     31  H   UNL     1      -6.867   4.615  26.721  0.00  0.00    +0.210 HD
ENDBRANCH  11   2
BRANCH  12   3
ATOM      3  O   UNL     1      -7.271   2.202  26.511  0.00  0.00    -0.387 OA
ATOM     32  H   UNL     1      -6.716   1.696  27.129  0.00  0.00    +0.210 HD
ENDBRANCH  12   3
BRANCH  10  14
ATOM     14  C   UNL     1      -3.501   4.423  26.068  0.00  0.00    +0.130 C 
BRANCH  14  16
ATOM      4  O   UNL     1      -2.120   3.907  27.930  0.00  0.00    -0.276 OA
ATOM      6  N   UNL     1      -1.330   3.272  25.840  0.00  0.00    -0.298 N 
ATOM      7  N   UNL     1       0.563   1.868  24.159  0.00  0.00    -0.327 N 
ATOM     16  C   UNL     1      -2.260   3.846  26.707  0.00  0.00    +0.218 C 
ATOM     17  C   UNL     1      -0.101   2.698  26.379  0.00  0.00    +0.126 C 
ATOM     18  C   UNL     1      -1.503   3.192  24.387  0.00  0.00    +0.126 C 
ATOM     19  C   UNL     1       0.375   1.497  25.564  0.00  0.00    +0.124 C 
ATOM     20  C   UNL     1      -0.179   3.021  23.642  0.00  0.00    +0.124 C 
BRANCH   7  21
ATOM     21  C   UNL     1       1.451   1.162  23.350  0.00  0.00    +0.030 A 
ATOM     23  C   UNL     1       2.800   1.514  23.324  0.00  0.00    +0.023 A 
ATOM     24  C   UNL     1       0.989   0.104  22.567  0.00  0.00    +0.023 A 
ATOM     26  C   UNL     1       3.689   0.807  22.513  0.00  0.00    +0.002 A 
ATOM     27  C   UNL     1       1.879  -0.603  21.758  0.00  0.00    +0.002 A 
ATOM     28  C   UNL     1       3.228  -0.252  21.731  0.00  0.00    +0.000 A 
ENDBRANCH   7  21
ENDBRANCH  14  16
ENDBRANCH  10  14
BRANCH  13  15
ATOM     15  C   UNL     1      -4.819   1.067  23.963  0.00  0.00    +0.140 C 
BRANCH  15   8
ATOM      5  O   UNL     1      -4.086  -1.585  24.833  0.00  0.00    -0.253 OA
ATOM      8  N   UNL     1      -3.499   0.514  24.026  0.00  0.00    -0.297 N 
ATOM      9  N   UNL     1      -1.862  -1.067  24.423  0.00  0.00    -0.297 N 
ATOM     22  C   UNL     1      -3.226  -0.787  24.461  0.00  0.00    +0.300 C 
ATOM     33  H   UNL     1      -2.721   1.094  23.731  0.00  0.00    +0.150 HD
ATOM     34  H   UNL     1      -1.238  -0.369  24.029  0.00  0.00    +0.150 HD
BRANCH   9  25
ATOM     25  C   UNL     1      -1.313  -2.342  24.820  0.00  0.00    +0.068 C 
ATOM     29  C   UNL     1       0.119  -2.171  25.313  0.00  0.00    +0.027 C 
ATOM     30  C   UNL     1      -1.385  -3.338  23.670  0.00  0.00    +0.027 C 
ENDBRANCH   9  25
ENDBRANCH  15   8
ENDBRANCH  13  15
TORSDOF 8
ENDMDL
MODEL 5
REMARK VINA RESULT:       1.7      2.353      3.953
REMARK  Name = 40777985
REMARK  10 active torsions:
REMARK  status: ('A' for Active; 'I' for Inactive)
REMARK    1  A    between atoms: O_2  and  C_11
REMARK    2  A    between atoms: O_3  and  C_12
REMARK    3  A    between atoms: N_7  and  C_21
REMARK    4  A    between atoms: N_8  and  C_15
REMARK    5  A    between atoms: N_9  and  C_25
REMARK    6  A    between atoms: C_10  and  C_14
REMARK    7  A    between atoms: C_13  and  C_15
REMARK    8  A    between atoms: C_14  and  C_16
REMARK    9  A    between atoms: C_25  and  C_29
REMARK   10  A    between atoms: C_25  and  C_30
REMARK                            x       y       z     vdW  Elec       q    Type
REMARK                         _______ _______ _______ _____ _____    ______ ____
ROOT
ATOM      1  O   UNL     1      -3.751   1.753  25.402  0.00  0.00    -0.366 OA
ATOM     10  C   UNL     1      -3.765   3.166  25.128  0.00  0.00    +0.159 C 
ATOM     11  C   UNL     1      -5.220   3.518  24.866  0.00  0.00    +0.175 C 
ATOM     12  C   UNL     1      -5.934   2.595  25.831  0.00  0.00    +0.176 C 
ATOM     13  C   UNL     1      -5.091   1.328  25.741  0.00  0.00    +0.167 C 
ENDROOT
BRANCH  11   2
ATOM      2  O   UNL     1      -5.483   4.885  25.101  0.00  0.00    -0.387 OA
ATOM     31  H   UNL     1      -4.704   5.259  25.546  0.00  0.00    +0.210 HD
ENDBRANCH  11   2
BRANCH  12   3
ATOM      3  O   UNL     1      -5.837   3.098  27.163  0.00  0.00    -0.387 OA
ATOM     32  H   UNL     1      -5.283   2.479  27.668  0.00  0.00    +0.210 HD
ENDBRANCH  12   3
BRANCH  10  14
ATOM     14  C   UNL     1      -2.852   3.467  23.953  0.00  0.00    +0.130 C 
BRANCH  14  16
ATOM      4  O   UNL     1      -3.406   1.654  22.524  0.00  0.00    -0.276 OA
ATOM      6  N   UNL     1      -1.237   1.701  23.355  0.00  0.00    -0.298 N 
ATOM      7  N   UNL     1       1.482   0.707  23.416  0.00  0.00    -0.327 N 
ATOM     16  C   UNL     1      -2.534   2.194  23.208  0.00  0.00    +0.218 C 
ATOM     17  C   UNL     1      -0.852   0.470  22.670  0.00  0.00    +0.126 C 
ATOM     18  C   UNL     1      -0.199   2.349  24.161  0.00  0.00    +0.126 C 
ATOM     19  C   UNL     1       0.617   0.482  22.254  0.00  0.00    +0.124 C 
ATOM     20  C   UNL     1       0.911   1.386  24.583  0.00  0.00    +0.124 C 
BRANCH   7  21
ATOM     21  C   UNL     1       2.799   0.256  23.420  0.00  0.00    +0.030 A 
ATOM     23  C   UNL     1       3.085  -1.056  23.797  0.00  0.00    +0.023 A 
ATOM     24  C   UNL     1       3.832   1.116  23.046  0.00  0.00    +0.023 A 
ATOM     26  C   UNL     1       4.405  -1.508  23.800  0.00  0.00    +0.002 A 
ATOM     27  C   UNL     1       5.152   0.663  23.050  0.00  0.00    +0.002 A 
ATOM     28  C   UNL     1       5.438  -0.648  23.426  0.00  0.00    +0.000 A 
ENDBRANCH   7  21
ENDBRANCH  14  16
ENDBRANCH  10  14
BRANCH  13  15
ATOM     15  C   UNL     1      -5.564   0.372  24.656  0.00  0.00    +0.140 C 
BRANCH  15   8
ATOM      5  O   UNL     1      -3.712  -1.295  26.110  0.00  0.00    -0.253 OA
ATOM      8  N   UNL     1      -4.471  -0.379  24.114  0.00  0.00    -0.297 N 
ATOM      9  N   UNL     1      -2.640  -1.788  24.112  0.00  0.00    -0.297 N 
ATOM     22  C   UNL     1      -3.615  -1.167  24.890  0.00  0.00    +0.300 C 
ATOM     33  H   UNL     1      -4.315  -0.345  23.112  0.00  0.00    +0.150 HD
ATOM     34  H   UNL     1      -2.689  -1.680  23.103  0.00  0.00    +0.150 HD
BRANCH   9  25
ATOM     25  C   UNL     1      -1.631  -2.658  24.669  0.00  0.00    +0.068 C 
ATOM     29  C   UNL     1      -0.566  -1.840  25.390  0.00  0.00    +0.027 C 
ATOM     30  C   UNL     1      -1.014  -3.527  23.580  0.00  0.00    +0.027 C 
ENDBRANCH   9  25
ENDBRANCH  15   8
ENDBRANCH  13  15
TORSDOF 8
ENDMDL
MODEL 6
REMARK VINA RESULT:       3.1      2.318      3.459
REMARK  Name = 40777985
REMARK  10 active torsions:
REMARK  status: ('A' for Active; 'I' for Inactive)
REMARK    1  A    between atoms: O_2  and  C_11
REMARK    2  A    between atoms: O_3  and  C_12
REMARK    3  A    between atoms: N_7  and  C_21
REMARK    4  A    between atoms: N_8  and  C_15
REMARK    5  A    between atoms: N_9  and  C_25
REMARK    6  A    between atoms: C_10  and  C_14
REMARK    7  A    between atoms: C_13  and  C_15
REMARK    8  A    between atoms: C_14  and  C_16
REMARK    9  A    between atoms: C_25  and  C_29
REMARK   10  A    between atoms: C_25  and  C_30
REMARK                            x       y       z     vdW  Elec       q    Type
REMARK                         _______ _______ _______ _____ _____    ______ ____
ROOT
ATOM      1  O   UNL     1      -4.944  -0.025  24.001  0.00  0.00    -0.366 OA
ATOM     10  C   UNL     1      -3.554  -0.357  23.832  0.00  0.00    +0.159 C 
ATOM     11  C   UNL     1      -2.850   0.179  25.066  0.00  0.00    +0.175 C 
ATOM     12  C   UNL     1      -3.895  -0.052  26.137  0.00  0.00    +0.176 C 
ATOM     13  C   UNL     1      -5.187   0.274  25.395  0.00  0.00    +0.167 C 
ENDROOT
BRANCH  11   2
ATOM      2  O   UNL     1      -1.634  -0.494  25.316  0.00  0.00    -0.387 OA
ATOM     31  H   UNL     1      -1.250  -0.730  24.455  0.00  0.00    +0.210 HD
ENDBRANCH  11   2
BRANCH  12   3
ATOM      3  O   UNL     1      -3.932  -1.431  26.504  0.00  0.00    -0.387 OA
ATOM     32  H   UNL     1      -4.147  -1.474  27.451  0.00  0.00    +0.210 HD
ENDBRANCH  12   3
BRANCH  10  14
ATOM     14  C   UNL     1      -3.040   0.244  22.536  0.00  0.00    +0.130 C 
BRANCH  14  16
ATOM      4  O   UNL     1      -2.478   2.499  23.026  0.00  0.00    -0.276 OA
ATOM      6  N   UNL     1      -0.714   0.994  22.873  0.00  0.00    -0.298 N 
ATOM      7  N   UNL     1       2.085   0.320  23.187  0.00  0.00    -0.327 N 
ATOM     16  C   UNL     1      -2.061   1.353  22.836  0.00  0.00    +0.218 C 
ATOM     17  C   UNL     1       0.296   2.012  23.152  0.00  0.00    +0.126 C 
ATOM     18  C   UNL     1      -0.221  -0.369  22.657  0.00  0.00    +0.126 C 
ATOM     19  C   UNL     1       1.486   1.440  23.919  0.00  0.00    +0.124 C 
ATOM     20  C   UNL     1       1.246  -0.408  22.231  0.00  0.00    +0.124 C 
BRANCH   7  21
ATOM     21  C   UNL     1       3.423  -0.016  23.373  0.00  0.00    +0.030 A 
ATOM     23  C   UNL     1       4.415   0.949  23.203  0.00  0.00    +0.023 A 
ATOM     24  C   UNL     1       3.770  -1.320  23.729  0.00  0.00    +0.023 A 
ATOM     26  C   UNL     1       5.756   0.611  23.389  0.00  0.00    +0.002 A 
ATOM     27  C   UNL     1       5.111  -1.657  23.915  0.00  0.00    +0.002 A 
ATOM     28  C   UNL     1       6.103  -0.692  23.745  0.00  0.00    +0.000 A 
ENDBRANCH   7  21
ENDBRANCH  14  16
ENDBRANCH  10  14
BRANCH  13  15
ATOM     15  C   UNL     1      -5.576   1.742  25.494  0.00  0.00    +0.140 C 
BRANCH  15   8
ATOM      5  O   UNL     1      -3.712   3.445  26.892  0.00  0.00    -0.253 OA
ATOM      8  N   UNL     1      -4.573   2.584  24.912  0.00  0.00    -0.297 N 
ATOM      9  N   UNL     1      -2.831   4.099  24.848  0.00  0.00    -0.297 N 
ATOM     22  C   UNL     1      -3.705   3.383  25.663  0.00  0.00    +0.300 C 
ATOM     33  H   UNL     1      -4.482   2.595  23.902  0.00  0.00    +0.150 HD
ATOM     34  H   UNL     1      -2.852   3.924  23.848  0.00  0.00    +0.150 HD
BRANCH   9  25
ATOM     25  C   UNL     1      -1.831   5.000  25.373  0.00  0.00    +0.068 C 
ATOM     29  C   UNL     1      -1.878   6.332  24.634  0.00  0.00    +0.027 C 
ATOM     30  C   UNL     1      -0.446   4.370  25.286  0.00  0.00    +0.027 C 
ENDBRANCH   9  25
ENDBRANCH  15   8
ENDBRANCH  13  15
TORSDOF 8
ENDMDL
