MODEL 1
REMARK VINA RESULT:       2.6      0.000      0.000
REMARK  Name = 7143793
REMARK  3 active torsions:
REMARK  status: ('A' for Active; 'I' for Inactive)
REMARK    1  A    between atoms: S_1  and  N_6
REMARK    2  A    between atoms: S_1  and  C_19
REMARK    3  A    between atoms: C_17  and  C_20
REMARK                            x       y       z     vdW  Elec       q    Type
REMARK                         _______ _______ _______ _____ _____    ______ ____
ROOT
ATOM      5  O   UNL     1       0.430   1.994  25.873  0.00  0.00    -0.267 OA
ATOM      6  N   UNL     1      -4.504   2.394  25.282  0.00  0.00    -0.176 NA
ATOM      7  N   UNL     1      -1.429   2.994  24.880  0.00  0.00    -0.311 N 
ATOM      8  C   UNL     1      -3.182   4.291  26.224  0.00  0.00    +0.025 C 
ATOM      9  C   UNL     1      -3.429   4.069  23.790  0.00  0.00    +0.052 C 
ATOM     10  C   UNL     1      -3.382   5.077  24.935  0.00  0.00    +0.017 C 
ATOM     11  C   UNL     1      -4.345   3.311  26.446  0.00  0.00    +0.114 C 
ATOM     12  C   UNL     1      -4.630   3.124  23.985  0.00  0.00    +0.119 C 
ATOM     13  C   UNL     1      -1.822   3.583  26.167  0.00  0.00    +0.130 C 
ATOM     14  C   UNL     1      -2.140   3.272  23.710  0.00  0.00    +0.026 A 
ATOM     15  C   UNL     1      -1.695   2.820  22.528  0.00  0.00    +0.022 A 
ATOM     16  C   UNL     1      -0.245   2.231  24.869  0.00  0.00    +0.260 A 
ATOM     17  C   UNL     1       0.209   1.706  23.533  0.00  0.00    +0.053 A 
ATOM     18  C   UNL     1      -0.506   2.020  22.443  0.00  0.00    +0.016 A 
ENDROOT
BRANCH  17  20
ATOM      2  S   UNL     1       1.264  -0.844  23.594  0.00  0.00    -0.096 S 
ATOM     20  C   UNL     1       1.407   0.857  23.413  0.00  0.00    +0.024 A 
ATOM     23  C   UNL     1       2.714   1.233  23.163  0.00  0.00    +0.016 A 
ATOM     27  C   UNL     1       3.599   0.117  23.118  0.00  0.00    +0.008 A 
ATOM     28  C   UNL     1       2.942  -1.073  23.337  0.00  0.00    +0.046 A 
ENDBRANCH  17  20
BRANCH   6   1
ATOM      1  S   UNL     1      -5.593   1.094  25.507  0.00  0.00    +0.061 S 
ATOM      3  O   UNL     1      -6.619   1.153  24.488  0.00  0.00    -0.153 OA
ATOM      4  O   UNL     1      -5.941   1.007  26.910  0.00  0.00    -0.153 OA
BRANCH   1  19
ATOM     19  C   UNL     1      -4.533  -0.266  25.125  0.00  0.00    +0.105 A 
ATOM     21  C   UNL     1      -4.911  -1.166  24.143  0.00  0.00    +0.028 A 
ATOM     22  C   UNL     1      -3.340  -0.410  25.815  0.00  0.00    +0.028 A 
ATOM     24  C   UNL     1      -4.073  -2.240  23.842  0.00  0.00    +0.002 A 
ATOM     25  C   UNL     1      -2.502  -1.484  25.514  0.00  0.00    +0.002 A 
ATOM     26  C   UNL     1      -2.870  -2.399  24.527  0.00  0.00    +0.000 A 
ENDBRANCH   1  19
ENDBRANCH   6   1
TORSDOF 3
ENDMDL
MODEL 2
REMARK VINA RESULT:       4.0      1.848      4.465
REMARK  Name = 7143793
REMARK  3 active torsions:
REMARK  status: ('A' for Active; 'I' for Inactive)
REMARK    1  A    between atoms: S_1  and  N_6
REMARK    2  A    between atoms: S_1  and  C_19
REMARK    3  A    between atoms: C_17  and  C_20
REMARK                            x       y       z     vdW  Elec       q    Type
REMARK                         _______ _______ _______ _____ _____    ______ ____
ROOT
ATOM      5  O   UNL     1      -0.317  -0.656  22.007  0.00  0.00    -0.267 OA
ATOM      6  N   UNL     1      -4.232   0.474  24.879  0.00  0.00    -0.176 NA
ATOM      7  N   UNL     1      -1.683  -1.082  23.850  0.00  0.00    -0.311 N 
ATOM      8  C   UNL     1      -4.162  -1.682  23.621  0.00  0.00    +0.025 C 
ATOM      9  C   UNL     1      -3.142  -1.540  25.850  0.00  0.00    +0.052 C 
ATOM     10  C   UNL     1      -3.953  -2.441  24.924  0.00  0.00    +0.017 C 
ATOM     11  C   UNL     1      -4.932  -0.376  23.874  0.00  0.00    +0.114 C 
ATOM     12  C   UNL     1      -3.941  -0.257  26.148  0.00  0.00    +0.119 C 
ATOM     13  C   UNL     1      -2.798  -1.440  22.963  0.00  0.00    +0.130 C 
ATOM     14  C   UNL     1      -1.798  -1.193  25.237  0.00  0.00    +0.026 A 
ATOM     15  C   UNL     1      -0.731  -0.974  26.021  0.00  0.00    +0.022 A 
ATOM     16  C   UNL     1      -0.468  -0.730  23.228  0.00  0.00    +0.260 A 
ATOM     17  C   UNL     1       0.701  -0.455  24.135  0.00  0.00    +0.053 A 
ATOM     18  C   UNL     1       0.533  -0.594  25.459  0.00  0.00    +0.016 A 
ENDROOT
BRANCH  17  20
ATOM      2  S   UNL     1       3.291  -1.166  23.498  0.00  0.00    -0.096 S 
ATOM     20  C   UNL     1       2.005  -0.033  23.595  0.00  0.00    +0.024 A 
ATOM     23  C   UNL     1       2.386   1.210  23.123  0.00  0.00    +0.016 A 
ATOM     27  C   UNL     1       3.740   1.228  22.680  0.00  0.00    +0.008 A 
ATOM     28  C   UNL     1       4.349   0.002  22.828  0.00  0.00    +0.046 A 
ENDBRANCH  17  20
BRANCH   6   1
ATOM      1  S   UNL     1      -4.845   2.061  25.062  0.00  0.00    +0.061 S 
ATOM      3  O   UNL     1      -5.422   2.196  26.383  0.00  0.00    -0.153 OA
ATOM      4  O   UNL     1      -5.600   2.415  23.879  0.00  0.00    -0.153 OA
BRANCH   1  19
ATOM     19  C   UNL     1      -3.336   2.978  25.037  0.00  0.00    +0.105 A 
ATOM     21  C   UNL     1      -3.295   4.232  25.625  0.00  0.00    +0.028 A 
ATOM     22  C   UNL     1      -2.218   2.429  24.431  0.00  0.00    +0.028 A 
ATOM     24  C   UNL     1      -2.104   4.957  25.605  0.00  0.00    +0.002 A 
ATOM     25  C   UNL     1      -1.027   3.154  24.411  0.00  0.00    +0.002 A 
ATOM     26  C   UNL     1      -0.970   4.418  24.998  0.00  0.00    +0.000 A 
ENDBRANCH   1  19
ENDBRANCH   6   1
TORSDOF 3
ENDMDL
MODEL 3
REMARK VINA RESULT:       5.2      2.673      3.458
REMARK  Name = 7143793
REMARK  3 active torsions:
REMARK  status: ('A' for Active; 'I' for Inactive)
REMARK    1  A    between atoms: S_1  and  N_6
REMARK    2  A    between atoms: S_1  and  C_19
REMARK    3  A    between atoms: C_17  and  C_20
REMARK                            x       y       z     vdW  Elec       q    Type
REMARK                         _______ _______ _______ _____ _____    ______ ____
ROOT
ATOM      5  O   UNL     1      -1.720   3.421  27.805  0.00  0.00    -0.267 OA
ATOM      6  N   UNL     1      -3.775   0.918  24.015  0.00  0.00    -0.176 NA
ATOM      7  N   UNL     1      -2.068   3.110  25.519  0.00  0.00    -0.311 N 
ATOM      8  C   UNL     1      -4.381   3.304  24.436  0.00  0.00    +0.025 C 
ATOM      9  C   UNL     1      -2.425   2.771  23.050  0.00  0.00    +0.052 C 
ATOM     10  C   UNL     1      -3.608   3.725  23.194  0.00  0.00    +0.017 C 
ATOM     11  C   UNL     1      -4.895   1.862  24.291  0.00  0.00    +0.114 C 
ATOM     12  C   UNL     1      -2.944   1.335  22.846  0.00  0.00    +0.119 C 
ATOM     13  C   UNL     1      -3.481   3.483  25.666  0.00  0.00    +0.130 C 
ATOM     14  C   UNL     1      -1.518   2.836  24.265  0.00  0.00    +0.026 A 
ATOM     15  C   UNL     1      -0.201   2.613  24.140  0.00  0.00    +0.022 A 
ATOM     16  C   UNL     1      -1.280   3.149  26.686  0.00  0.00    +0.260 A 
ATOM     17  C   UNL     1       0.188   2.858  26.520  0.00  0.00    +0.053 A 
ATOM     18  C   UNL     1       0.660   2.619  25.288  0.00  0.00    +0.016 A 
ENDROOT
BRANCH  17  20
ATOM      2  S   UNL     1       0.612   2.018  29.115  0.00  0.00    -0.096 S 
ATOM     20  C   UNL     1       1.097   2.826  27.680  0.00  0.00    +0.024 A 
ATOM     23  C   UNL     1       2.358   3.377  27.809  0.00  0.00    +0.016 A 
ATOM     27  C   UNL     1       2.927   3.132  29.092  0.00  0.00    +0.008 A 
ATOM     28  C   UNL     1       2.083   2.404  29.902  0.00  0.00    +0.046 A 
ENDBRANCH  17  20
BRANCH   6   1
ATOM      1  S   UNL     1      -4.173  -0.744  24.083  0.00  0.00    +0.061 S 
ATOM      3  O   UNL     1      -4.390  -1.235  22.739  0.00  0.00    -0.153 OA
ATOM      4  O   UNL     1      -5.162  -0.950  25.121  0.00  0.00    -0.153 OA
BRANCH   1  19
ATOM     19  C   UNL     1      -2.640  -1.405  24.658  0.00  0.00    +0.105 A 
ATOM     21  C   UNL     1      -2.268  -2.684  24.278  0.00  0.00    +0.028 A 
ATOM     22  C   UNL     1      -1.833  -0.633  25.478  0.00  0.00    +0.028 A 
ATOM     24  C   UNL     1      -1.057  -3.207  24.732  0.00  0.00    +0.002 A 
ATOM     25  C   UNL     1      -0.622  -1.155  25.932  0.00  0.00    +0.002 A 
ATOM     26  C   UNL     1      -0.234  -2.443  25.559  0.00  0.00    +0.000 A 
ENDBRANCH   1  19
ENDBRANCH   6   1
TORSDOF 3
ENDMDL
