MODEL 1
REMARK VINA RESULT:      10.8      0.000      0.000
REMARK  Name = 7142382
REMARK  2 active torsions:
REMARK  status: ('A' for Active; 'I' for Inactive)
REMARK    1  A    between atoms: C_18  and  C_23
REMARK    2  A    between atoms: C_21  and  C_24
REMARK                            x       y       z     vdW  Elec       q    Type
REMARK                         _______ _______ _______ _____ _____    ______ ____
ROOT
ATOM      2  O   UNL     1      -4.135   1.028  23.715  0.00  0.00    -0.273 OA
ATOM      3  O   UNL     1       0.387   3.756  23.873  0.00  0.00    -0.270 OA
ATOM      4  O   UNL     1      -6.202   2.400  26.835  0.00  0.00    -0.265 OA
ATOM      6  N   UNL     1      -1.594   2.886  24.688  0.00  0.00    -0.283 N 
ATOM      7  N   UNL     1      -4.265   3.199  25.769  0.00  0.00    -0.290 N 
ATOM      8  N   UNL     1      -2.030   0.434  23.090  0.00  0.00    -0.283 N 
ATOM     10  C   UNL     1      -2.338   1.728  25.167  0.00  0.00    +0.180 C 
ATOM     11  C   UNL     1      -3.406   2.097  26.203  0.00  0.00    +0.140 C 
ATOM     12  C   UNL     1      -2.132   4.209  25.009  0.00  0.00    +0.128 C 
ATOM     13  C   UNL     1      -3.651   4.238  24.941  0.00  0.00    +0.127 C 
ATOM     14  C   UNL     1      -2.921   1.069  23.926  0.00  0.00    +0.239 C 
ATOM     15  C   UNL     1      -0.333   2.785  24.107  0.00  0.00    +0.249 C 
ATOM     16  C   UNL     1       0.174   1.443  23.715  0.00  0.00    +0.059 A 
ATOM     17  C   UNL     1      -0.621   0.427  23.160  0.00  0.00    +0.046 A 
ATOM     18  C   UNL     1      -5.600   3.216  26.149  0.00  0.00    +0.301 C 
ATOM     19  C   UNL     1       1.572   1.282  23.752  0.00  0.00    +0.023 A 
ATOM     20  C   UNL     1       0.008  -0.694  22.592  0.00  0.00    +0.024 A 
ATOM     21  C   UNL     1       2.175   0.140  23.227  0.00  0.00    -0.017 A 
ATOM     22  C   UNL     1       1.394  -0.843  22.634  0.00  0.00    +0.010 A 
ATOM     30  H   UNL     1      -2.444  -0.184  22.397  0.00  0.00    +0.155 HD
ENDROOT
BRANCH  21  24
ATOM      1 CL   UNL     1       8.097  -0.477  23.440  0.00  0.00    -0.084 Cl
ATOM     24  C   UNL     1       3.614  -0.010  23.278  0.00  0.00    -0.018 A 
ATOM     25  C   UNL     1       4.174  -1.212  23.711  0.00  0.00    +0.010 A 
ATOM     26  C   UNL     1       4.439   1.047  22.895  0.00  0.00    +0.010 A 
ATOM     27  C   UNL     1       5.560  -1.357  23.762  0.00  0.00    +0.020 A 
ATOM     28  C   UNL     1       5.826   0.903  22.946  0.00  0.00    +0.020 A 
ATOM     29  C   UNL     1       6.386  -0.300  23.379  0.00  0.00    +0.041 A 
ENDBRANCH  21  24
BRANCH  18  23
ATOM      5  O   UNL     1      -6.238   5.457  26.162  0.00  0.00    -0.265 OA
ATOM      9  N   UNL     1      -7.259   4.030  24.634  0.00  0.00    -0.322 N 
ATOM     23  C   UNL     1      -6.401   4.361  25.650  0.00  0.00    +0.297 C 
ATOM     31  H   UNL     1      -7.860   4.729  24.208  0.00  0.00    +0.145 HD
ATOM     32  H   UNL     1      -7.326   3.087  24.266  0.00  0.00    +0.145 HD
ENDBRANCH  18  23
TORSDOF 2
ENDMDL
