MODEL 1
REMARK VINA RESULT:      -2.8      0.000      0.000
REMARK  Name = 28961232
REMARK  16 active torsions:
REMARK  status: ('A' for Active; 'I' for Inactive)
REMARK    1  A    between atoms: O_4  and  C_11
REMARK    2  A    between atoms: O_5  and  C_14
REMARK    3  A    between atoms: N_6  and  C_9
REMARK    4  A    between atoms: N_6  and  C_15
REMARK    5  A    between atoms: N_6  and  C_16
REMARK    6  A    between atoms: N_7  and  C_13
REMARK    7  A    between atoms: N_7  and  C_18
REMARK    8  A    between atoms: N_7  and  C_19
REMARK    9  A    between atoms: N_8  and  C_17
REMARK   10  A    between atoms: N_8  and  C_22
REMARK   11  A    between atoms: N_8  and  C_23
REMARK   12  A    between atoms: C_10  and  C_13
REMARK   13  A    between atoms: C_12  and  C_14
REMARK   14  A    between atoms: C_15  and  C_17
REMARK   15  A    between atoms: C_18  and  C_20
REMARK   16  A    between atoms: C_19  and  C_21
REMARK                            x       y       z     vdW  Elec       q    Type
REMARK                         _______ _______ _______ _____ _____    ______ ____
ROOT
ATOM     13  C   UNL     1      -0.982   0.695  23.922  0.00  0.00    +0.118 C 
ENDROOT
BRANCH  13  10
ATOM      3  O   UNL     1      -0.499   1.382  26.161  0.00  0.00    -0.366 OA
ATOM      9  C   UNL     1      -2.216   2.654  25.113  0.00  0.00    +0.118 C 
ATOM     10  C   UNL     1      -1.577   1.263  25.206  0.00  0.00    +0.152 C 
ATOM     11  C   UNL     1      -1.077   3.582  25.505  0.00  0.00    +0.165 C 
ATOM     12  C   UNL     1      -0.402   2.753  26.592  0.00  0.00    +0.174 C 
BRANCH  11   4
ATOM      4  O   UNL     1      -0.184   3.798  24.420  0.00  0.00    -0.388 OA
ATOM     34  H   UNL     1       0.715   3.613  24.739  0.00  0.00    +0.210 HD
ENDBRANCH  11   4
BRANCH   9   6
ATOM      6  N   UNL     1      -2.873   2.975  23.858  0.00  0.00    -0.296 NA
ATOM     16  C   UNL     1      -3.132   4.415  23.758  0.00  0.00    +0.105 C 
BRANCH   6  15
ATOM     15  C   UNL     1      -4.127   2.229  23.718  0.00  0.00    +0.100 C 
BRANCH  15  17
ATOM     17  C   UNL     1      -4.620   1.768  25.086  0.00  0.00    +0.099 C 
BRANCH  17   8
ATOM      8  N   UNL     1      -5.905   2.388  25.393  0.00  0.00    -0.307 NA
ATOM     22  C   UNL     1      -5.739   3.824  25.625  0.00  0.00    +0.104 C 
ATOM     23  C   UNL     1      -6.517   1.753  26.560  0.00  0.00    +0.104 C 
ENDBRANCH  17   8
ENDBRANCH  15  17
ENDBRANCH   6  15
ENDBRANCH   9   6
BRANCH  12  14
ATOM     14  C   UNL     1       1.053   3.092  26.861  0.00  0.00    +0.190 C 
BRANCH  14   5
ATOM      5  O   UNL     1       1.426   2.545  28.116  0.00  0.00    -0.392 OA
ATOM     35  H   UNL     1       1.212   1.596  28.089  0.00  0.00    +0.210 HD
ENDBRANCH  14   5
ENDBRANCH  12  14
ENDBRANCH  13  10
BRANCH  13   7
ATOM      7  N   UNL     1       0.237  -0.050  24.197  0.00  0.00    -0.291 NA
BRANCH   7  18
ATOM     18  C   UNL     1      -0.060  -1.269  24.953  0.00  0.00    +0.120 C 
BRANCH  18  20
ATOM      1  F   UNL     1      -5.242  -3.199  23.868  0.00  0.00    -0.205 F 
ATOM     20  C   UNL     1      -1.445  -1.785  24.664  0.00  0.00    -0.033 A 
ATOM     24  C   UNL     1      -1.626  -2.820  23.746  0.00  0.00    +0.008 A 
ATOM     26  C   UNL     1      -2.547  -1.228  25.312  0.00  0.00    +0.008 A 
ATOM     28  C   UNL     1      -2.908  -3.297  23.477  0.00  0.00    +0.038 A 
ATOM     30  C   UNL     1      -3.830  -1.706  25.043  0.00  0.00    +0.038 A 
ATOM     32  C   UNL     1      -4.010  -2.740  24.126  0.00  0.00    +0.123 A 
ENDBRANCH  18  20
ENDBRANCH   7  18
BRANCH   7  19
ATOM     19  C   UNL     1       0.932  -0.384  22.951  0.00  0.00    +0.120 C 
BRANCH  19  21
ATOM      2  F   UNL     1       6.522   0.089  23.477  0.00  0.00    -0.205 F 
ATOM     21  C   UNL     1       2.425  -0.257  23.092  0.00  0.00    -0.033 A 
ATOM     25  C   UNL     1       3.167  -1.311  23.625  0.00  0.00    +0.008 A 
ATOM     27  C   UNL     1       3.068   0.913  22.688  0.00  0.00    +0.008 A 
ATOM     29  C   UNL     1       4.551  -1.194  23.755  0.00  0.00    +0.038 A 
ATOM     31  C   UNL     1       4.451   1.031  22.818  0.00  0.00    +0.038 A 
ATOM     33  C   UNL     1       5.193  -0.023  23.352  0.00  0.00    +0.123 A 
ENDBRANCH  19  21
ENDBRANCH   7  19
ENDBRANCH  13   7
TORSDOF 13
ENDMDL
MODEL 2
REMARK VINA RESULT:      -2.7      2.372      5.835
REMARK  Name = 28961232
REMARK  16 active torsions:
REMARK  status: ('A' for Active; 'I' for Inactive)
REMARK    1  A    between atoms: O_4  and  C_11
REMARK    2  A    between atoms: O_5  and  C_14
REMARK    3  A    between atoms: N_6  and  C_9
REMARK    4  A    between atoms: N_6  and  C_15
REMARK    5  A    between atoms: N_6  and  C_16
REMARK    6  A    between atoms: N_7  and  C_13
REMARK    7  A    between atoms: N_7  and  C_18
REMARK    8  A    between atoms: N_7  and  C_19
REMARK    9  A    between atoms: N_8  and  C_17
REMARK   10  A    between atoms: N_8  and  C_22
REMARK   11  A    between atoms: N_8  and  C_23
REMARK   12  A    between atoms: C_10  and  C_13
REMARK   13  A    between atoms: C_12  and  C_14
REMARK   14  A    between atoms: C_15  and  C_17
REMARK   15  A    between atoms: C_18  and  C_20
REMARK   16  A    between atoms: C_19  and  C_21
REMARK                            x       y       z     vdW  Elec       q    Type
REMARK                         _______ _______ _______ _____ _____    ______ ____
ROOT
ATOM     13  C   UNL     1      -1.038   0.742  23.490  0.00  0.00    +0.118 C 
ENDROOT
BRANCH  13  10
ATOM      3  O   UNL     1      -0.954  -1.646  23.585  0.00  0.00    -0.366 OA
ATOM      9  C   UNL     1      -2.931  -0.712  24.527  0.00  0.00    +0.118 C 
ATOM     10  C   UNL     1      -1.868  -0.536  23.437  0.00  0.00    +0.152 C 
ATOM     11  C   UNL     1      -2.197  -1.510  25.595  0.00  0.00    +0.165 C 
ATOM     12  C   UNL     1      -1.352  -2.432  24.725  0.00  0.00    +0.174 C 
BRANCH  11   4
ATOM      4  O   UNL     1      -1.363  -0.675  26.388  0.00  0.00    -0.388 OA
ATOM     34  H   UNL     1      -1.478  -0.942  27.316  0.00  0.00    +0.210 HD
ENDBRANCH  11   4
BRANCH   9   6
ATOM      6  N   UNL     1      -3.577   0.501  24.996  0.00  0.00    -0.296 NA
ATOM     16  C   UNL     1      -4.544   0.201  26.057  0.00  0.00    +0.105 C 
BRANCH   6  15
ATOM     15  C   UNL     1      -4.244   1.198  23.892  0.00  0.00    +0.100 C 
BRANCH  15  17
ATOM     17  C   UNL     1      -4.429   2.672  24.235  0.00  0.00    +0.099 C 
BRANCH  17   8
ATOM      8  N   UNL     1      -5.451   2.824  25.266  0.00  0.00    -0.307 NA
ATOM     22  C   UNL     1      -6.669   2.105  24.892  0.00  0.00    +0.104 C 
ATOM     23  C   UNL     1      -5.746   4.239  25.494  0.00  0.00    +0.104 C 
ENDBRANCH  17   8
ENDBRANCH  15  17
ENDBRANCH   6  15
ENDBRANCH   9   6
BRANCH  12  14
ATOM     14  C   UNL     1      -0.115  -3.007  25.392  0.00  0.00    +0.190 C 
BRANCH  14   5
ATOM      5  O   UNL     1       0.778  -1.947  25.694  0.00  0.00    -0.392 OA
ATOM     35  H   UNL     1       1.630  -2.351  25.933  0.00  0.00    +0.210 HD
ENDBRANCH  14   5
ENDBRANCH  12  14
ENDBRANCH  13  10
BRANCH  13   7
ATOM      7  N   UNL     1       0.343   0.453  23.847  0.00  0.00    -0.291 NA
BRANCH   7  18
ATOM     18  C   UNL     1       1.106   0.034  22.668  0.00  0.00    +0.120 C 
BRANCH  18  20
ATOM      1  F   UNL     1       6.630  -0.250  23.741  0.00  0.00    -0.205 F 
ATOM     20  C   UNL     1       2.582  -0.042  22.954  0.00  0.00    -0.033 A 
ATOM     24  C   UNL     1       3.126  -1.199  23.513  0.00  0.00    +0.008 A 
ATOM     26  C   UNL     1       3.406   1.045  22.662  0.00  0.00    +0.008 A 
ATOM     28  C   UNL     1       4.493  -1.269  23.778  0.00  0.00    +0.038 A 
ATOM     30  C   UNL     1       4.774   0.974  22.928  0.00  0.00    +0.038 A 
ATOM     32  C   UNL     1       5.317  -0.183  23.486  0.00  0.00    +0.123 A 
ENDBRANCH  18  20
ENDBRANCH   7  18
BRANCH   7  19
ATOM     19  C   UNL     1       0.973   1.620  24.468  0.00  0.00    +0.120 C 
BRANCH  19  21
ATOM      2  F   UNL     1      -2.834   5.439  26.104  0.00  0.00    -0.205 F 
ATOM     21  C   UNL     1      -0.044   2.641  24.905  0.00  0.00    -0.033 A 
ATOM     25  C   UNL     1      -0.835   2.400  26.028  0.00  0.00    +0.008 A 
ATOM     27  C   UNL     1      -0.195   3.828  24.187  0.00  0.00    +0.008 A 
ATOM     29  C   UNL     1      -1.777   3.345  26.433  0.00  0.00    +0.038 A 
ATOM     31  C   UNL     1      -1.137   4.772  24.592  0.00  0.00    +0.038 A 
ATOM     33  C   UNL     1      -1.929   4.531  25.715  0.00  0.00    +0.123 A 
ENDBRANCH  19  21
ENDBRANCH   7  19
ENDBRANCH  13   7
TORSDOF 13
ENDMDL
MODEL 3
REMARK VINA RESULT:      -2.3      1.047      1.894
REMARK  Name = 28961232
REMARK  16 active torsions:
REMARK  status: ('A' for Active; 'I' for Inactive)
REMARK    1  A    between atoms: O_4  and  C_11
REMARK    2  A    between atoms: O_5  and  C_14
REMARK    3  A    between atoms: N_6  and  C_9
REMARK    4  A    between atoms: N_6  and  C_15
REMARK    5  A    between atoms: N_6  and  C_16
REMARK    6  A    between atoms: N_7  and  C_13
REMARK    7  A    between atoms: N_7  and  C_18
REMARK    8  A    between atoms: N_7  and  C_19
REMARK    9  A    between atoms: N_8  and  C_17
REMARK   10  A    between atoms: N_8  and  C_22
REMARK   11  A    between atoms: N_8  and  C_23
REMARK   12  A    between atoms: C_10  and  C_13
REMARK   13  A    between atoms: C_12  and  C_14
REMARK   14  A    between atoms: C_15  and  C_17
REMARK   15  A    between atoms: C_18  and  C_20
REMARK   16  A    between atoms: C_19  and  C_21
REMARK                            x       y       z     vdW  Elec       q    Type
REMARK                         _______ _______ _______ _____ _____    ______ ____
ROOT
ATOM     13  C   UNL     1      -0.800   0.780  24.000  0.00  0.00    +0.118 C 
ENDROOT
BRANCH  13  10
ATOM      3  O   UNL     1      -0.509   2.585  25.542  0.00  0.00    -0.366 OA
ATOM      9  C   UNL     1      -2.786   2.033  25.124  0.00  0.00    +0.118 C 
ATOM     10  C   UNL     1      -1.368   1.462  25.240  0.00  0.00    +0.152 C 
ATOM     11  C   UNL     1      -2.542   3.480  24.725  0.00  0.00    +0.165 C 
ATOM     12  C   UNL     1      -1.297   3.791  25.545  0.00  0.00    +0.174 C 
BRANCH  11   4
ATOM      4  O   UNL     1      -2.263   3.597  23.335  0.00  0.00    -0.388 OA
ATOM     34  H   UNL     1      -1.734   4.403  23.209  0.00  0.00    +0.210 HD
ENDBRANCH  11   4
BRANCH   9   6
ATOM      6  N   UNL     1      -3.704   1.301  24.269  0.00  0.00    -0.296 NA
ATOM     16  C   UNL     1      -4.026   2.074  23.066  0.00  0.00    +0.105 C 
BRANCH   6  15
ATOM     15  C   UNL     1      -4.935   0.963  24.992  0.00  0.00    +0.100 C 
BRANCH  15  17
ATOM     17  C   UNL     1      -6.062   1.904  24.580  0.00  0.00    +0.099 C 
BRANCH  17   8
ATOM      8  N   UNL     1      -6.454   2.744  25.708  0.00  0.00    -0.307 NA
ATOM     22  C   UNL     1      -5.729   4.015  25.678  0.00  0.00    +0.104 C 
ATOM     23  C   UNL     1      -6.213   2.051  26.973  0.00  0.00    +0.104 C 
ENDBRANCH  17   8
ENDBRANCH  15  17
ENDBRANCH   6  15
ENDBRANCH   9   6
BRANCH  12  14
ATOM     14  C   UNL     1      -0.449   4.943  25.035  0.00  0.00    +0.190 C 
BRANCH  14   5
ATOM      5  O   UNL     1      -1.280   6.079  24.855  0.00  0.00    -0.392 OA
ATOM     35  H   UNL     1      -0.703   6.861  24.870  0.00  0.00    +0.210 HD
ENDBRANCH  14   5
ENDBRANCH  12  14
ENDBRANCH  13  10
BRANCH  13   7
ATOM      7  N   UNL     1       0.405   0.031  24.322  0.00  0.00    -0.291 NA
BRANCH   7  18
ATOM     18  C   UNL     1       0.094  -1.095  25.207  0.00  0.00    +0.120 C 
BRANCH  18  20
ATOM      1  F   UNL     1      -4.938  -3.350  24.047  0.00  0.00    -0.205 F 
ATOM     20  C   UNL     1      -1.250  -1.697  24.896  0.00  0.00    -0.033 A 
ATOM     24  C   UNL     1      -2.342  -1.429  25.723  0.00  0.00    +0.008 A 
ATOM     26  C   UNL     1      -1.404  -2.524  23.784  0.00  0.00    +0.008 A 
ATOM     28  C   UNL     1      -3.587  -1.987  25.436  0.00  0.00    +0.038 A 
ATOM     30  C   UNL     1      -2.651  -3.083  23.497  0.00  0.00    +0.038 A 
ATOM     32  C   UNL     1      -3.741  -2.814  24.323  0.00  0.00    +0.123 A 
ENDBRANCH  18  20
ENDBRANCH   7  18
BRANCH   7  19
ATOM     19  C   UNL     1       1.058  -0.450  23.102  0.00  0.00    +0.120 C 
BRANCH  19  21
ATOM      2  F   UNL     1       6.660   0.094  23.367  0.00  0.00    -0.205 F 
ATOM     21  C   UNL     1       2.554  -0.305  23.173  0.00  0.00    -0.033 A 
ATOM     25  C   UNL     1       3.162   0.868  22.728  0.00  0.00    +0.008 A 
ATOM     27  C   UNL     1       3.333  -1.344  23.684  0.00  0.00    +0.008 A 
ATOM     29  C   UNL     1       4.549   1.003  22.793  0.00  0.00    +0.038 A 
ATOM     31  C   UNL     1       4.719  -1.209  23.749  0.00  0.00    +0.038 A 
ATOM     33  C   UNL     1       5.328  -0.036  23.304  0.00  0.00    +0.123 A 
ENDBRANCH  19  21
ENDBRANCH   7  19
ENDBRANCH  13   7
TORSDOF 13
ENDMDL
MODEL 4
REMARK VINA RESULT:      -2.3      1.293      5.540
REMARK  Name = 28961232
REMARK  16 active torsions:
REMARK  status: ('A' for Active; 'I' for Inactive)
REMARK    1  A    between atoms: O_4  and  C_11
REMARK    2  A    between atoms: O_5  and  C_14
REMARK    3  A    between atoms: N_6  and  C_9
REMARK    4  A    between atoms: N_6  and  C_15
REMARK    5  A    between atoms: N_6  and  C_16
REMARK    6  A    between atoms: N_7  and  C_13
REMARK    7  A    between atoms: N_7  and  C_18
REMARK    8  A    between atoms: N_7  and  C_19
REMARK    9  A    between atoms: N_8  and  C_17
REMARK   10  A    between atoms: N_8  and  C_22
REMARK   11  A    between atoms: N_8  and  C_23
REMARK   12  A    between atoms: C_10  and  C_13
REMARK   13  A    between atoms: C_12  and  C_14
REMARK   14  A    between atoms: C_15  and  C_17
REMARK   15  A    between atoms: C_18  and  C_20
REMARK   16  A    between atoms: C_19  and  C_21
REMARK                            x       y       z     vdW  Elec       q    Type
REMARK                         _______ _______ _______ _____ _____    ______ ____
ROOT
ATOM     13  C   UNL     1       0.491   1.484  23.776  0.00  0.00    +0.118 C 
ENDROOT
BRANCH  13  10
ATOM      3  O   UNL     1      -0.038   3.074  25.484  0.00  0.00    -0.366 OA
ATOM      9  C   UNL     1      -1.941   1.983  24.559  0.00  0.00    +0.118 C 
ATOM     10  C   UNL     1      -0.461   1.811  24.922  0.00  0.00    +0.152 C 
ATOM     11  C   UNL     1      -2.068   3.482  24.335  0.00  0.00    +0.165 C 
ATOM     12  C   UNL     1      -1.134   4.006  25.419  0.00  0.00    +0.174 C 
BRANCH  11   4
ATOM      4  O   UNL     1      -1.595   3.858  23.048  0.00  0.00    -0.388 OA
ATOM     34  H   UNL     1      -0.895   3.232  22.798  0.00  0.00    +0.210 HD
ENDBRANCH  11   4
BRANCH   9   6
ATOM      6  N   UNL     1      -2.437   1.151  23.476  0.00  0.00    -0.296 NA
ATOM     16  C   UNL     1      -2.535   1.919  22.231  0.00  0.00    +0.105 C 
BRANCH   6  15
ATOM     15  C   UNL     1      -3.744   0.577  23.815  0.00  0.00    +0.100 C 
BRANCH  15  17
ATOM     17  C   UNL     1      -4.286   1.219  25.088  0.00  0.00    +0.099 C 
BRANCH  17   8
ATOM      8  N   UNL     1      -5.336   2.178  24.760  0.00  0.00    -0.307 NA
ATOM     22  C   UNL     1      -5.245   3.355  25.624  0.00  0.00    +0.104 C 
ATOM     23  C   UNL     1      -6.655   1.558  24.883  0.00  0.00    +0.104 C 
ENDBRANCH  17   8
ENDBRANCH  15  17
ENDBRANCH   6  15
ENDBRANCH   9   6
BRANCH  12  14
ATOM     14  C   UNL     1      -0.587   5.404  25.189  0.00  0.00    +0.190 C 
BRANCH  14   5
ATOM      5  O   UNL     1      -1.664   6.272  24.874  0.00  0.00    -0.392 OA
ATOM     35  H   UNL     1      -2.457   5.914  25.310  0.00  0.00    +0.210 HD
ENDBRANCH  14   5
ENDBRANCH  12  14
ENDBRANCH  13  10
BRANCH  13   7
ATOM      7  N   UNL     1       0.296   0.121  23.309  0.00  0.00    -0.291 NA
BRANCH   7  18
ATOM     18  C   UNL     1       1.271  -0.215  22.267  0.00  0.00    +0.120 C 
BRANCH  18  20
ATOM      1  F   UNL     1       6.558  -0.047  24.210  0.00  0.00    -0.205 F 
ATOM     20  C   UNL     1       2.684  -0.170  22.787  0.00  0.00    -0.033 A 
ATOM     24  C   UNL     1       3.445   0.990  22.639  0.00  0.00    +0.008 A 
ATOM     26  C   UNL     1       3.232  -1.288  23.415  0.00  0.00    +0.008 A 
ATOM     28  C   UNL     1       4.753   1.031  23.120  0.00  0.00    +0.038 A 
ATOM     30  C   UNL     1       4.541  -1.246  23.896  0.00  0.00    +0.038 A 
ATOM     32  C   UNL     1       5.301  -0.087  23.748  0.00  0.00    +0.123 A 
ENDBRANCH  18  20
ENDBRANCH   7  18
BRANCH   7  19
ATOM     19  C   UNL     1       0.398  -0.828  24.420  0.00  0.00    +0.120 C 
BRANCH  19  21
ATOM      2  F   UNL     1      -4.403  -3.674  25.195  0.00  0.00    -0.205 F 
ATOM     21  C   UNL     1      -0.885  -1.589  24.627  0.00  0.00    -0.033 A 
ATOM     25  C   UNL     1      -1.645  -1.372  25.776  0.00  0.00    +0.008 A 
ATOM     27  C   UNL     1      -1.313  -2.508  23.670  0.00  0.00    +0.008 A 
ATOM     29  C   UNL     1      -2.834  -2.077  25.968  0.00  0.00    +0.038 A 
ATOM     31  C   UNL     1      -2.501  -3.213  23.862  0.00  0.00    +0.038 A 
ATOM     33  C   UNL     1      -3.262  -2.997  25.011  0.00  0.00    +0.123 A 
ENDBRANCH  19  21
ENDBRANCH   7  19
ENDBRANCH  13   7
TORSDOF 13
ENDMDL
MODEL 5
REMARK VINA RESULT:      -2.1      0.967      5.465
REMARK  Name = 28961232
REMARK  16 active torsions:
REMARK  status: ('A' for Active; 'I' for Inactive)
REMARK    1  A    between atoms: O_4  and  C_11
REMARK    2  A    between atoms: O_5  and  C_14
REMARK    3  A    between atoms: N_6  and  C_9
REMARK    4  A    between atoms: N_6  and  C_15
REMARK    5  A    between atoms: N_6  and  C_16
REMARK    6  A    between atoms: N_7  and  C_13
REMARK    7  A    between atoms: N_7  and  C_18
REMARK    8  A    between atoms: N_7  and  C_19
REMARK    9  A    between atoms: N_8  and  C_17
REMARK   10  A    between atoms: N_8  and  C_22
REMARK   11  A    between atoms: N_8  and  C_23
REMARK   12  A    between atoms: C_10  and  C_13
REMARK   13  A    between atoms: C_12  and  C_14
REMARK   14  A    between atoms: C_15  and  C_17
REMARK   15  A    between atoms: C_18  and  C_20
REMARK   16  A    between atoms: C_19  and  C_21
REMARK                            x       y       z     vdW  Elec       q    Type
REMARK                         _______ _______ _______ _____ _____    ______ ____
ROOT
ATOM     13  C   UNL     1       0.386   1.266  24.067  0.00  0.00    +0.118 C 
ENDROOT
BRANCH  13  10
ATOM      3  O   UNL     1       0.309   1.257  26.458  0.00  0.00    -0.366 OA
ATOM      9  C   UNL     1      -1.411   2.552  25.443  0.00  0.00    +0.118 C 
ATOM     10  C   UNL     1      -0.533   1.306  25.284  0.00  0.00    +0.152 C 
ATOM     11  C   UNL     1      -0.571   3.451  26.338  0.00  0.00    +0.165 C 
ATOM     12  C   UNL     1       0.049   2.418  27.270  0.00  0.00    +0.174 C 
BRANCH  11   4
ATOM      4  O   UNL     1       0.441   4.123  25.599  0.00  0.00    -0.388 OA
ATOM     34  H   UNL     1       1.295   3.909  26.009  0.00  0.00    +0.210 HD
ENDBRANCH  11   4
BRANCH   9   6
ATOM      6  N   UNL     1      -1.881   3.168  24.214  0.00  0.00    -0.296 NA
ATOM     16  C   UNL     1      -2.102   4.605  24.400  0.00  0.00    +0.105 C 
BRANCH   6  15
ATOM     15  C   UNL     1      -3.115   2.527  23.748  0.00  0.00    +0.100 C 
BRANCH  15  17
ATOM     17  C   UNL     1      -3.979   2.123  24.938  0.00  0.00    +0.099 C 
BRANCH  17   8
ATOM      8  N   UNL     1      -5.328   2.662  24.786  0.00  0.00    -0.307 NA
ATOM     22  C   UNL     1      -5.494   3.866  25.601  0.00  0.00    +0.104 C 
ATOM     23  C   UNL     1      -6.327   1.658  25.152  0.00  0.00    +0.104 C 
ENDBRANCH  17   8
ENDBRANCH  15  17
ENDBRANCH   6  15
ENDBRANCH   9   6
BRANCH  12  14
ATOM     14  C   UNL     1       1.334   2.845  27.957  0.00  0.00    +0.190 C 
BRANCH  14   5
ATOM      5  O   UNL     1       1.306   2.396  29.302  0.00  0.00    -0.392 OA
ATOM     35  H   UNL     1       0.749   3.019  29.800  0.00  0.00    +0.210 HD
ENDBRANCH  14   5
ENDBRANCH  12  14
ENDBRANCH  13  10
BRANCH  13   7
ATOM      7  N   UNL     1       0.050   0.149  23.197  0.00  0.00    -0.291 NA
BRANCH   7  18
ATOM     18  C   UNL     1       1.068  -0.021  22.156  0.00  0.00    +0.120 C 
BRANCH  18  20
ATOM      1  F   UNL     1       6.264  -0.266  24.323  0.00  0.00    -0.205 F 
ATOM     20  C   UNL     1       2.456  -0.087  22.736  0.00  0.00    -0.033 A 
ATOM     24  C   UNL     1       3.300   1.021  22.652  0.00  0.00    +0.008 A 
ATOM     26  C   UNL     1       2.899  -1.256  23.355  0.00  0.00    +0.008 A 
ATOM     28  C   UNL     1       4.585   0.960  23.188  0.00  0.00    +0.038 A 
ATOM     30  C   UNL     1       4.186  -1.316  23.891  0.00  0.00    +0.038 A 
ATOM     32  C   UNL     1       5.028  -0.208  23.807  0.00  0.00    +0.123 A 
ENDBRANCH  18  20
ENDBRANCH   7  18
BRANCH   7  19
ATOM     19  C   UNL     1      -0.093  -1.087  23.971  0.00  0.00    +0.120 C 
BRANCH  19  21
ATOM      2  F   UNL     1      -5.421  -2.921  24.025  0.00  0.00    -0.205 F 
ATOM     21  C   UNL     1      -1.516  -1.577  23.986  0.00  0.00    -0.033 A 
ATOM     25  C   UNL     1      -2.545  -0.744  23.547  0.00  0.00    +0.008 A 
ATOM     27  C   UNL     1      -1.806  -2.865  24.437  0.00  0.00    +0.008 A 
ATOM     29  C   UNL     1      -3.864  -1.198  23.560  0.00  0.00    +0.038 A 
ATOM     31  C   UNL     1      -3.125  -3.318  24.451  0.00  0.00    +0.038 A 
ATOM     33  C   UNL     1      -4.154  -2.485  24.013  0.00  0.00    +0.123 A 
ENDBRANCH  19  21
ENDBRANCH   7  19
ENDBRANCH  13   7
TORSDOF 13
ENDMDL
MODEL 6
REMARK VINA RESULT:      -1.7      2.664      7.915
REMARK  Name = 28961232
REMARK  16 active torsions:
REMARK  status: ('A' for Active; 'I' for Inactive)
REMARK    1  A    between atoms: O_4  and  C_11
REMARK    2  A    between atoms: O_5  and  C_14
REMARK    3  A    between atoms: N_6  and  C_9
REMARK    4  A    between atoms: N_6  and  C_15
REMARK    5  A    between atoms: N_6  and  C_16
REMARK    6  A    between atoms: N_7  and  C_13
REMARK    7  A    between atoms: N_7  and  C_18
REMARK    8  A    between atoms: N_7  and  C_19
REMARK    9  A    between atoms: N_8  and  C_17
REMARK   10  A    between atoms: N_8  and  C_22
REMARK   11  A    between atoms: N_8  and  C_23
REMARK   12  A    between atoms: C_10  and  C_13
REMARK   13  A    between atoms: C_12  and  C_14
REMARK   14  A    between atoms: C_15  and  C_17
REMARK   15  A    between atoms: C_18  and  C_20
REMARK   16  A    between atoms: C_19  and  C_21
REMARK                            x       y       z     vdW  Elec       q    Type
REMARK                         _______ _______ _______ _____ _____    ______ ____
ROOT
ATOM     13  C   UNL     1      -0.806   1.881  24.754  0.00  0.00    +0.118 C 
ENDROOT
BRANCH  13  10
ATOM      3  O   UNL     1      -1.307  -0.142  25.927  0.00  0.00    -0.366 OA
ATOM      9  C   UNL     1       0.176  -0.436  24.089  0.00  0.00    +0.118 C 
ATOM     10  C   UNL     1      -0.256   0.530  25.198  0.00  0.00    +0.152 C 
ATOM     11  C   UNL     1      -1.070  -1.279  23.865  0.00  0.00    +0.165 C 
ATOM     12  C   UNL     1      -1.583  -1.406  25.294  0.00  0.00    +0.174 C 
BRANCH  11   4
ATOM      4  O   UNL     1      -2.021  -0.600  23.055  0.00  0.00    -0.388 OA
ATOM     34  H   UNL     1      -2.894  -0.981  23.245  0.00  0.00    +0.210 HD
ENDBRANCH  11   4
BRANCH   9   6
ATOM      6  N   UNL     1       0.737   0.169  22.893  0.00  0.00    -0.296 NA
ATOM     16  C   UNL     1       1.016  -0.848  21.875  0.00  0.00    +0.105 C 
BRANCH   6  15
ATOM     15  C   UNL     1       1.962   0.911  23.209  0.00  0.00    +0.100 C 
BRANCH  15  17
ATOM     17  C   UNL     1       3.174   0.203  22.613  0.00  0.00    +0.099 C 
BRANCH  17   8
ATOM      8  N   UNL     1       4.135  -0.121  23.663  0.00  0.00    -0.307 NA
ATOM     22  C   UNL     1       5.422   0.523  23.398  0.00  0.00    +0.104 C 
ATOM     23  C   UNL     1       4.305  -1.569  23.776  0.00  0.00    +0.104 C 
ENDBRANCH  17   8
ENDBRANCH  15  17
ENDBRANCH   6  15
ENDBRANCH   9   6
BRANCH  12  14
ATOM     14  C   UNL     1      -3.062  -1.721  25.431  0.00  0.00    +0.190 C 
BRANCH  14   5
ATOM      5  O   UNL     1      -3.401  -2.742  24.506  0.00  0.00    -0.392 OA
ATOM     35  H   UNL     1      -2.798  -3.488  24.670  0.00  0.00    +0.210 HD
ENDBRANCH  14   5
ENDBRANCH  12  14
ENDBRANCH  13  10
BRANCH  13   7
ATOM      7  N   UNL     1      -0.909   2.798  25.879  0.00  0.00    -0.291 NA
BRANCH   7  18
ATOM     18  C   UNL     1       0.391   3.409  26.170  0.00  0.00    +0.120 C 
BRANCH  18  20
ATOM      1  F   UNL     1       2.404   1.771  31.171  0.00  0.00    -0.205 F 
ATOM     20  C   UNL     1       0.929   2.972  27.506  0.00  0.00    -0.033 A 
ATOM     24  C   UNL     1       0.068   2.432  28.462  0.00  0.00    +0.008 A 
ATOM     26  C   UNL     1       2.288   3.106  27.789  0.00  0.00    +0.008 A 
ATOM     28  C   UNL     1       0.566   2.026  29.699  0.00  0.00    +0.038 A 
ATOM     30  C   UNL     1       2.786   2.701  29.028  0.00  0.00    +0.038 A 
ATOM     32  C   UNL     1       1.925   2.161  29.982  0.00  0.00    +0.123 A 
ENDBRANCH  18  20
ENDBRANCH   7  18
BRANCH   7  19
ATOM     19  C   UNL     1      -1.907   3.836  25.612  0.00  0.00    +0.120 C 
BRANCH  19  21
ATOM      2  F   UNL     1      -7.026   1.648  24.739  0.00  0.00    -0.205 F 
ATOM     21  C   UNL     1      -3.275   3.252  25.379  0.00  0.00    -0.033 A 
ATOM     25  C   UNL     1      -3.418   2.100  24.606  0.00  0.00    +0.008 A 
ATOM     27  C   UNL     1      -4.399   3.862  25.936  0.00  0.00    +0.008 A 
ATOM     29  C   UNL     1      -4.685   1.558  24.390  0.00  0.00    +0.038 A 
ATOM     31  C   UNL     1      -5.666   3.321  25.720  0.00  0.00    +0.038 A 
ATOM     33  C   UNL     1      -5.809   2.169  24.947  0.00  0.00    +0.123 A 
ENDBRANCH  19  21
ENDBRANCH   7  19
ENDBRANCH  13   7
TORSDOF 13
ENDMDL
MODEL 7
REMARK VINA RESULT:      -0.4      2.609      6.573
REMARK  Name = 28961232
REMARK  16 active torsions:
REMARK  status: ('A' for Active; 'I' for Inactive)
REMARK    1  A    between atoms: O_4  and  C_11
REMARK    2  A    between atoms: O_5  and  C_14
REMARK    3  A    between atoms: N_6  and  C_9
REMARK    4  A    between atoms: N_6  and  C_15
REMARK    5  A    between atoms: N_6  and  C_16
REMARK    6  A    between atoms: N_7  and  C_13
REMARK    7  A    between atoms: N_7  and  C_18
REMARK    8  A    between atoms: N_7  and  C_19
REMARK    9  A    between atoms: N_8  and  C_17
REMARK   10  A    between atoms: N_8  and  C_22
REMARK   11  A    between atoms: N_8  and  C_23
REMARK   12  A    between atoms: C_10  and  C_13
REMARK   13  A    between atoms: C_12  and  C_14
REMARK   14  A    between atoms: C_15  and  C_17
REMARK   15  A    between atoms: C_18  and  C_20
REMARK   16  A    between atoms: C_19  and  C_21
REMARK                            x       y       z     vdW  Elec       q    Type
REMARK                         _______ _______ _______ _____ _____    ______ ____
ROOT
ATOM     13  C   UNL     1      -0.239   2.436  24.410  0.00  0.00    +0.118 C 
ENDROOT
BRANCH  13  10
ATOM      3  O   UNL     1      -1.159   0.545  25.551  0.00  0.00    -0.366 OA
ATOM      9  C   UNL     1       0.488  -0.017  23.927  0.00  0.00    +0.118 C 
ATOM     10  C   UNL     1       0.059   1.041  24.951  0.00  0.00    +0.152 C 
ATOM     11  C   UNL     1      -0.825  -0.692  23.561  0.00  0.00    +0.165 C 
ATOM     12  C   UNL     1      -1.526  -0.693  24.914  0.00  0.00    +0.174 C 
BRANCH  11   4
ATOM      4  O   UNL     1      -1.563   0.078  22.621  0.00  0.00    -0.388 OA
ATOM     34  H   UNL     1      -2.197  -0.518  22.187  0.00  0.00    +0.210 HD
ENDBRANCH  11   4
BRANCH   9   6
ATOM      6  N   UNL     1       1.273   0.461  22.802  0.00  0.00    -0.296 NA
ATOM     16  C   UNL     1       1.379  -0.570  21.765  0.00  0.00    +0.105 C 
BRANCH   6  15
ATOM     15  C   UNL     1       2.611   0.874  23.237  0.00  0.00    +0.100 C 
BRANCH  15  17
ATOM     17  C   UNL     1       3.666   0.337  22.275  0.00  0.00    +0.099 C 
BRANCH  17   8
ATOM      8  N   UNL     1       4.765  -0.269  23.020  0.00  0.00    -0.307 NA
ATOM     22  C   UNL     1       4.289  -1.415  23.795  0.00  0.00    +0.104 C 
ATOM     23  C   UNL     1       5.393   0.715  23.901  0.00  0.00    +0.104 C 
ENDBRANCH  17   8
ENDBRANCH  15  17
ENDBRANCH   6  15
ENDBRANCH   9   6
BRANCH  12  14
ATOM     14  C   UNL     1      -3.040  -0.801  24.865  0.00  0.00    +0.190 C 
BRANCH  14   5
ATOM      5  O   UNL     1      -3.394  -1.930  24.083  0.00  0.00    -0.392 OA
ATOM     35  H   UNL     1      -3.159  -2.720  24.599  0.00  0.00    +0.210 HD
ENDBRANCH  14   5
ENDBRANCH  12  14
ENDBRANCH  13  10
BRANCH  13   7
ATOM      7  N   UNL     1      -0.464   3.378  25.496  0.00  0.00    -0.291 NA
BRANCH   7  18
ATOM     18  C   UNL     1      -1.518   4.334  25.143  0.00  0.00    +0.120 C 
BRANCH  18  20
ATOM      1  F   UNL     1      -6.567   1.855  24.803  0.00  0.00    -0.205 F 
ATOM     20  C   UNL     1      -2.867   3.671  25.051  0.00  0.00    -0.033 A 
ATOM     24  C   UNL     1      -3.794   3.833  26.081  0.00  0.00    +0.008 A 
ATOM     26  C   UNL     1      -3.190   2.895  23.938  0.00  0.00    +0.008 A 
ATOM     28  C   UNL     1      -5.044   3.220  25.997  0.00  0.00    +0.038 A 
ATOM     30  C   UNL     1      -4.440   2.282  23.855  0.00  0.00    +0.038 A 
ATOM     32  C   UNL     1      -5.366   2.444  24.884  0.00  0.00    +0.123 A 
ENDBRANCH  18  20
ENDBRANCH   7  18
BRANCH   7  19
ATOM     19  C   UNL     1      -0.815   2.673  26.731  0.00  0.00    +0.120 C 
BRANCH  19  21
ATOM      2  F   UNL     1       3.424   2.708  30.444  0.00  0.00    -0.205 F 
ATOM     21  C   UNL     1       0.318   2.683  27.723  0.00  0.00    -0.033 A 
ATOM     25  C   UNL     1       0.073   2.383  29.063  0.00  0.00    +0.008 A 
ATOM     27  C   UNL     1       1.612   2.990  27.302  0.00  0.00    +0.008 A 
ATOM     29  C   UNL     1       1.122   2.391  29.982  0.00  0.00    +0.038 A 
ATOM     31  C   UNL     1       2.661   2.999  28.221  0.00  0.00    +0.038 A 
ATOM     33  C   UNL     1       2.416   2.700  29.561  0.00  0.00    +0.123 A 
ENDBRANCH  19  21
ENDBRANCH   7  19
ENDBRANCH  13   7
TORSDOF 13
ENDMDL
MODEL 8
REMARK VINA RESULT:      -0.3      2.090      6.599
REMARK  Name = 28961232
REMARK  16 active torsions:
REMARK  status: ('A' for Active; 'I' for Inactive)
REMARK    1  A    between atoms: O_4  and  C_11
REMARK    2  A    between atoms: O_5  and  C_14
REMARK    3  A    between atoms: N_6  and  C_9
REMARK    4  A    between atoms: N_6  and  C_15
REMARK    5  A    between atoms: N_6  and  C_16
REMARK    6  A    between atoms: N_7  and  C_13
REMARK    7  A    between atoms: N_7  and  C_18
REMARK    8  A    between atoms: N_7  and  C_19
REMARK    9  A    between atoms: N_8  and  C_17
REMARK   10  A    between atoms: N_8  and  C_22
REMARK   11  A    between atoms: N_8  and  C_23
REMARK   12  A    between atoms: C_10  and  C_13
REMARK   13  A    between atoms: C_12  and  C_14
REMARK   14  A    between atoms: C_15  and  C_17
REMARK   15  A    between atoms: C_18  and  C_20
REMARK   16  A    between atoms: C_19  and  C_21
REMARK                            x       y       z     vdW  Elec       q    Type
REMARK                         _______ _______ _______ _____ _____    ______ ____
ROOT
ATOM     13  C   UNL     1       0.515   1.223  24.557  0.00  0.00    +0.118 C 
ENDROOT
BRANCH  13  10
ATOM      3  O   UNL     1      -0.684   2.514  22.938  0.00  0.00    -0.366 OA
ATOM      9  C   UNL     1      -1.063   3.195  25.187  0.00  0.00    +0.118 C 
ATOM     10  C   UNL     1      -0.026   2.609  24.222  0.00  0.00    +0.152 C 
ATOM     11  C   UNL     1      -2.386   2.783  24.561  0.00  0.00    +0.165 C 
ATOM     12  C   UNL     1      -2.054   2.933  23.081  0.00  0.00    +0.174 C 
BRANCH  11   4
ATOM      4  O   UNL     1      -2.707   1.431  24.862  0.00  0.00    -0.388 OA
ATOM     34  H   UNL     1      -2.882   0.976  24.021  0.00  0.00    +0.210 HD
ENDBRANCH  11   4
BRANCH   9   6
ATOM      6  N   UNL     1      -0.906   2.845  26.588  0.00  0.00    -0.296 NA
ATOM     16  C   UNL     1      -1.834   3.611  27.426  0.00  0.00    +0.105 C 
BRANCH   6  15
ATOM     15  C   UNL     1       0.473   3.071  27.032  0.00  0.00    +0.100 C 
BRANCH  15  17
ATOM     17  C   UNL     1       0.825   2.114  28.166  0.00  0.00    +0.099 C 
BRANCH  17   8
ATOM      8  N   UNL     1       1.615   2.805  29.180  0.00  0.00    -0.307 NA
ATOM     22  C   UNL     1       2.982   3.023  28.705  0.00  0.00    +0.104 C 
ATOM     23  C   UNL     1       1.627   2.045  30.430  0.00  0.00    +0.104 C 
ENDBRANCH  17   8
ENDBRANCH  15  17
ENDBRANCH   6  15
ENDBRANCH   9   6
BRANCH  12  14
ATOM     14  C   UNL     1      -2.924   2.128  22.131  0.00  0.00    +0.190 C 
BRANCH  14   5
ATOM      5  O   UNL     1      -2.298   2.087  20.859  0.00  0.00    -0.392 OA
ATOM     35  H   UNL     1      -1.629   1.382  20.892  0.00  0.00    +0.210 HD
ENDBRANCH  14   5
ENDBRANCH  12  14
ENDBRANCH  13  10
BRANCH  13   7
ATOM      7  N   UNL     1      -0.077   0.211  23.695  0.00  0.00    -0.291 NA
BRANCH   7  18
ATOM     18  C   UNL     1       0.765  -0.027  22.520  0.00  0.00    +0.120 C 
BRANCH  18  20
ATOM      1  F   UNL     1       6.241  -0.111  23.848  0.00  0.00    -0.205 F 
ATOM     20  C   UNL     1       2.228  -0.049  22.874  0.00  0.00    -0.033 A 
ATOM     24  C   UNL     1       2.793  -1.196  23.432  0.00  0.00    +0.008 A 
ATOM     26  C   UNL     1       3.019   1.077  22.647  0.00  0.00    +0.008 A 
ATOM     28  C   UNL     1       4.148  -1.217  23.760  0.00  0.00    +0.038 A 
ATOM     30  C   UNL     1       4.375   1.056  22.976  0.00  0.00    +0.038 A 
ATOM     32  C   UNL     1       4.939  -0.091  23.533  0.00  0.00    +0.123 A 
ENDBRANCH  18  20
ENDBRANCH   7  18
BRANCH   7  19
ATOM     19  C   UNL     1      -0.283  -1.040  24.431  0.00  0.00    +0.120 C 
BRANCH  19  21
ATOM      2  F   UNL     1      -5.518  -3.019  23.781  0.00  0.00    -0.205 F 
ATOM     21  C   UNL     1      -1.682  -1.568  24.257  0.00  0.00    -0.033 A 
ATOM     25  C   UNL     1      -1.979  -2.883  24.613  0.00  0.00    +0.008 A 
ATOM     27  C   UNL     1      -2.681  -0.743  23.741  0.00  0.00    +0.008 A 
ATOM     29  C   UNL     1      -3.275  -3.374  24.453  0.00  0.00    +0.038 A 
ATOM     31  C   UNL     1      -3.976  -1.233  23.580  0.00  0.00    +0.038 A 
ATOM     33  C   UNL     1      -4.274  -2.549  23.935  0.00  0.00    +0.123 A 
ENDBRANCH  19  21
ENDBRANCH   7  19
ENDBRANCH  13   7
TORSDOF 13
ENDMDL
MODEL 9
REMARK VINA RESULT:       0.1      2.835      5.691
REMARK  Name = 28961232
REMARK  16 active torsions:
REMARK  status: ('A' for Active; 'I' for Inactive)
REMARK    1  A    between atoms: O_4  and  C_11
REMARK    2  A    between atoms: O_5  and  C_14
REMARK    3  A    between atoms: N_6  and  C_9
REMARK    4  A    between atoms: N_6  and  C_15
REMARK    5  A    between atoms: N_6  and  C_16
REMARK    6  A    between atoms: N_7  and  C_13
REMARK    7  A    between atoms: N_7  and  C_18
REMARK    8  A    between atoms: N_7  and  C_19
REMARK    9  A    between atoms: N_8  and  C_17
REMARK   10  A    between atoms: N_8  and  C_22
REMARK   11  A    between atoms: N_8  and  C_23
REMARK   12  A    between atoms: C_10  and  C_13
REMARK   13  A    between atoms: C_12  and  C_14
REMARK   14  A    between atoms: C_15  and  C_17
REMARK   15  A    between atoms: C_18  and  C_20
REMARK   16  A    between atoms: C_19  and  C_21
REMARK                            x       y       z     vdW  Elec       q    Type
REMARK                         _______ _______ _______ _____ _____    ______ ____
ROOT
ATOM     13  C   UNL     1      -0.027   1.410  25.494  0.00  0.00    +0.118 C 
ENDROOT
BRANCH  13  10
ATOM      3  O   UNL     1       0.611   1.200  23.199  0.00  0.00    -0.366 OA
ATOM      9  C   UNL     1      -0.649  -0.645  24.021  0.00  0.00    +0.118 C 
ATOM     10  C   UNL     1      -0.444   0.871  24.130  0.00  0.00    +0.152 C 
ATOM     11  C   UNL     1       0.707  -1.140  23.543  0.00  0.00    +0.165 C 
ATOM     12  C   UNL     1       1.099  -0.014  22.595  0.00  0.00    +0.174 C 
BRANCH  11   4
ATOM      4  O   UNL     1       1.636  -1.232  24.615  0.00  0.00    -0.388 OA
ATOM     34  H   UNL     1       2.399  -0.673  24.391  0.00  0.00    +0.210 HD
ENDBRANCH  11   4
BRANCH   9   6
ATOM      6  N   UNL     1      -1.169  -1.309  25.204  0.00  0.00    -0.296 NA
ATOM     16  C   UNL     1      -1.316  -2.749  24.972  0.00  0.00    +0.105 C 
BRANCH   6  15
ATOM     15  C   UNL     1      -2.456  -0.731  25.604  0.00  0.00    +0.100 C 
BRANCH  15  17
ATOM     17  C   UNL     1      -3.543  -1.800  25.577  0.00  0.00    +0.099 C 
BRANCH  17   8
ATOM      8  N   UNL     1      -4.453  -1.564  24.460  0.00  0.00    -0.307 NA
ATOM     22  C   UNL     1      -4.347  -2.641  23.475  0.00  0.00    +0.104 C 
ATOM     23  C   UNL     1      -4.173  -0.272  23.832  0.00  0.00    +0.104 C 
ENDBRANCH  17   8
ENDBRANCH  15  17
ENDBRANCH   6  15
ENDBRANCH   9   6
BRANCH  12  14
ATOM     14  C   UNL     1       2.587   0.125  22.325  0.00  0.00    +0.190 C 
BRANCH  14   5
ATOM      5  O   UNL     1       3.106   1.164  23.139  0.00  0.00    -0.392 OA
ATOM     35  H   UNL     1       2.345   1.646  23.507  0.00  0.00    +0.210 HD
ENDBRANCH  14   5
ENDBRANCH  12  14
ENDBRANCH  13  10
BRANCH  13   7
ATOM      7  N   UNL     1       0.107   2.858  25.465  0.00  0.00    -0.291 NA
BRANCH   7  18
ATOM     18  C   UNL     1      -0.676   3.428  24.365  0.00  0.00    +0.120 C 
BRANCH  18  20
ATOM      1  F   UNL     1      -6.155   3.757  25.636  0.00  0.00    -0.205 F 
ATOM     20  C   UNL     1      -2.140   3.516  24.705  0.00  0.00    -0.033 A 
ATOM     24  C   UNL     1      -3.094   3.035  23.808  0.00  0.00    +0.008 A 
ATOM     26  C   UNL     1      -2.542   4.079  25.916  0.00  0.00    +0.008 A 
ATOM     28  C   UNL     1      -4.450   3.117  24.123  0.00  0.00    +0.038 A 
ATOM     30  C   UNL     1      -3.900   4.160  26.230  0.00  0.00    +0.038 A 
ATOM     32  C   UNL     1      -4.852   3.679  25.334  0.00  0.00    +0.123 A 
ENDBRANCH  18  20
ENDBRANCH   7  18
BRANCH   7  19
ATOM     19  C   UNL     1      -0.313   3.444  26.740  0.00  0.00    +0.120 C 
BRANCH  19  21
ATOM      2  F   UNL     1       2.934   1.718  31.010  0.00  0.00    -0.205 F 
ATOM     21  C   UNL     1       0.554   2.982  27.881  0.00  0.00    -0.033 A 
ATOM     25  C   UNL     1       1.938   2.921  27.723  0.00  0.00    +0.008 A 
ATOM     27  C   UNL     1      -0.026   2.618  29.096  0.00  0.00    +0.008 A 
ATOM     29  C   UNL     1       2.743   2.494  28.780  0.00  0.00    +0.038 A 
ATOM     31  C   UNL     1       0.777   2.191  30.153  0.00  0.00    +0.038 A 
ATOM     33  C   UNL     1       2.162   2.128  29.995  0.00  0.00    +0.123 A 
ENDBRANCH  19  21
ENDBRANCH   7  19
ENDBRANCH  13   7
TORSDOF 13
ENDMDL
MODEL 10
REMARK VINA RESULT:       0.6      2.914      5.997
REMARK  Name = 28961232
REMARK  16 active torsions:
REMARK  status: ('A' for Active; 'I' for Inactive)
REMARK    1  A    between atoms: O_4  and  C_11
REMARK    2  A    between atoms: O_5  and  C_14
REMARK    3  A    between atoms: N_6  and  C_9
REMARK    4  A    between atoms: N_6  and  C_15
REMARK    5  A    between atoms: N_6  and  C_16
REMARK    6  A    between atoms: N_7  and  C_13
REMARK    7  A    between atoms: N_7  and  C_18
REMARK    8  A    between atoms: N_7  and  C_19
REMARK    9  A    between atoms: N_8  and  C_17
REMARK   10  A    between atoms: N_8  and  C_22
REMARK   11  A    between atoms: N_8  and  C_23
REMARK   12  A    between atoms: C_10  and  C_13
REMARK   13  A    between atoms: C_12  and  C_14
REMARK   14  A    between atoms: C_15  and  C_17
REMARK   15  A    between atoms: C_18  and  C_20
REMARK   16  A    between atoms: C_19  and  C_21
REMARK                            x       y       z     vdW  Elec       q    Type
REMARK                         _______ _______ _______ _____ _____    ______ ____
ROOT
ATOM     13  C   UNL     1      -1.533   1.488  22.845  0.00  0.00    +0.118 C 
ENDROOT
BRANCH  13  10
ATOM      3  O   UNL     1       0.129  -0.227  22.707  0.00  0.00    -0.366 OA
ATOM      9  C   UNL     1       0.114   0.935  24.784  0.00  0.00    +0.118 C 
ATOM     10  C   UNL     1      -0.764   0.432  23.633  0.00  0.00    +0.152 C 
ATOM     11  C   UNL     1       1.477   1.102  24.128  0.00  0.00    +0.165 C 
ATOM     12  C   UNL     1       1.481  -0.094  23.183  0.00  0.00    +0.174 C 
BRANCH  11   4
ATOM      4  O   UNL     1       1.555   2.316  23.391  0.00  0.00    -0.388 OA
ATOM     34  H   UNL     1       1.259   3.033  23.975  0.00  0.00    +0.210 HD
ENDBRANCH  11   4
BRANCH   9   6
ATOM      6  N   UNL     1      -0.374   2.100  25.502  0.00  0.00    -0.296 NA
ATOM     16  C   UNL     1       0.259   3.324  25.002  0.00  0.00    +0.105 C 
BRANCH   6  15
ATOM     15  C   UNL     1      -0.133   1.964  26.942  0.00  0.00    +0.100 C 
BRANCH  15  17
ATOM     17  C   UNL     1       0.975   2.915  27.382  0.00  0.00    +0.099 C 
BRANCH  17   8
ATOM      8  N   UNL     1       1.675   2.371  28.541  0.00  0.00    -0.307 NA
ATOM     22  C   UNL     1       0.853   2.500  29.745  0.00  0.00    +0.104 C 
ATOM     23  C   UNL     1       2.960   3.043  28.729  0.00  0.00    +0.104 C 
ENDBRANCH  17   8
ENDBRANCH  15  17
ENDBRANCH   6  15
ENDBRANCH   9   6
BRANCH  12  14
ATOM     14  C   UNL     1       2.421   0.015  21.996  0.00  0.00    +0.190 C 
BRANCH  14   5
ATOM      5  O   UNL     1       3.542   0.801  22.369  0.00  0.00    -0.392 OA
ATOM     35  H   UNL     1       3.999   1.055  21.549  0.00  0.00    +0.210 HD
ENDBRANCH  14   5
ENDBRANCH  12  14
ENDBRANCH  13  10
BRANCH  13   7
ATOM      7  N   UNL     1      -2.959   1.408  23.119  0.00  0.00    -0.291 NA
BRANCH   7  18
ATOM     18  C   UNL     1      -3.199   0.934  24.485  0.00  0.00    +0.120 C 
BRANCH  18  20
ATOM      1  F   UNL     1      -4.025  -4.638  24.655  0.00  0.00    -0.205 F 
ATOM     20  C   UNL     1      -3.419  -0.555  24.531  0.00  0.00    -0.033 A 
ATOM     24  C   UNL     1      -4.093  -1.192  23.489  0.00  0.00    +0.008 A 
ATOM     26  C   UNL     1      -2.950  -1.297  25.615  0.00  0.00    +0.008 A 
ATOM     28  C   UNL     1      -4.297  -2.571  23.531  0.00  0.00    +0.038 A 
ATOM     30  C   UNL     1      -3.155  -2.677  25.657  0.00  0.00    +0.038 A 
ATOM     32  C   UNL     1      -3.829  -3.313  24.615  0.00  0.00    +0.123 A 
ENDBRANCH  18  20
ENDBRANCH   7  18
BRANCH   7  19
ATOM     19  C   UNL     1      -3.600   2.709  22.917  0.00  0.00    +0.120 C 
BRANCH  19  21
ATOM      2  F   UNL     1      -3.577   5.814  27.619  0.00  0.00    -0.205 F 
ATOM     21  C   UNL     1      -3.594   3.539  24.173  0.00  0.00    -0.033 A 
ATOM     25  C   UNL     1      -4.606   3.378  25.119  0.00  0.00    +0.008 A 
ATOM     27  C   UNL     1      -2.576   4.468  24.391  0.00  0.00    +0.008 A 
ATOM     29  C   UNL     1      -4.600   4.146  26.284  0.00  0.00    +0.038 A 
ATOM     31  C   UNL     1      -2.571   5.236  25.555  0.00  0.00    +0.038 A 
ATOM     33  C   UNL     1      -3.583   5.076  26.501  0.00  0.00    +0.123 A 
ENDBRANCH  19  21
ENDBRANCH   7  19
ENDBRANCH  13   7
TORSDOF 13
ENDMDL
