MODEL 1
REMARK VINA RESULT:      10.2      0.000      0.000
REMARK  Name = 51137936
REMARK  6 active torsions:
REMARK  status: ('A' for Active; 'I' for Inactive)
REMARK    1  A    between atoms: N_6  and  C_22
REMARK    2  A    between atoms: N_6  and  C_26
REMARK    3  A    between atoms: N_6  and  C_27
REMARK    4  A    between atoms: C_8  and  C_12
REMARK    5  A    between atoms: C_15  and  C_16
REMARK    6  A    between atoms: C_19  and  C_25
REMARK                            x       y       z     vdW  Elec       q    Type
REMARK                         _______ _______ _______ _____ _____    ______ ____
ROOT
ATOM      1  O   UNL     1       0.971  -0.856  24.010  0.00  0.00    -0.420 OA
ATOM      3  N   UNL     1      -0.384  -0.788  22.232  0.00  0.00    -0.112 NA
ATOM      5  N   UNL     1       0.900  -0.510  21.800  0.00  0.00    -0.107 NA
ATOM     12  C   UNL     1      -0.295  -0.983  23.527  0.00  0.00    +0.222 A 
ATOM     15  C   UNL     1       1.657  -0.560  22.872  0.00  0.00    +0.248 A 
ENDROOT
BRANCH  12   8
ATOM      2  N   UNL     1      -2.565   0.601  25.273  0.00  0.00    -0.314 N 
ATOM      4  N   UNL     1      -4.473   1.684  24.432  0.00  0.00    -0.239 NA
ATOM      8  C   UNL     1      -1.383  -1.322  24.532  0.00  0.00    +0.095 C 
ATOM      9  C   UNL     1      -0.957  -0.975  25.963  0.00  0.00    +0.033 C 
ATOM     10  C   UNL     1      -2.713  -0.558  24.391  0.00  0.00    +0.119 C 
ATOM     11  C   UNL     1      -1.400   0.477  26.143  0.00  0.00    +0.107 C 
ATOM     13  C   UNL     1      -3.425   1.678  25.286  0.00  0.00    +0.121 A 
ATOM     14  C   UNL     1      -3.152   2.696  26.184  0.00  0.00    +0.045 A 
ATOM     17  C   UNL     1      -4.011   3.790  26.210  0.00  0.00    +0.024 A 
ATOM     18  C   UNL     1      -5.286   2.763  24.485  0.00  0.00    +0.131 A 
ATOM     19  C   UNL     1      -5.100   3.831  25.348  0.00  0.00    +0.070 A 
BRANCH  19  25
ATOM      7  N   UNL     1      -6.728   5.842  25.351  0.00  0.00    -0.191 NA
ATOM     25  C   UNL     1      -5.998   4.940  25.349  0.00  0.00    +0.101 C 
ENDBRANCH  19  25
ENDBRANCH  12   8
BRANCH  15  16
ATOM     16  C   UNL     1       3.068  -0.356  23.025  0.00  0.00    +0.039 A 
ATOM     20  C   UNL     1       3.652   0.831  22.583  0.00  0.00    +0.015 A 
ATOM     21  C   UNL     1       3.856  -1.344  23.615  0.00  0.00    +0.015 A 
ATOM     22  C   UNL     1       5.813   0.041  23.322  0.00  0.00    +0.029 A 
ATOM     23  C   UNL     1       5.025   1.029  22.732  0.00  0.00    +0.024 A 
ATOM     24  C   UNL     1       5.229  -1.146  23.764  0.00  0.00    +0.024 A 
BRANCH  22   6
ATOM      6  N   UNL     1       7.200   0.243  23.472  0.00  0.00    -0.336 N 
ATOM     26  C   UNL     1       7.700   1.393  24.201  0.00  0.00    +0.129 C 
ATOM     27  C   UNL     1       8.146  -0.693  22.895  0.00  0.00    +0.129 C 
ENDBRANCH  22   6
ENDBRANCH  15  16
TORSDOF 4
ENDMDL
MODEL 2
REMARK VINA RESULT:      11.7      1.764      2.346
REMARK  Name = 51137936
REMARK  6 active torsions:
REMARK  status: ('A' for Active; 'I' for Inactive)
REMARK    1  A    between atoms: N_6  and  C_22
REMARK    2  A    between atoms: N_6  and  C_26
REMARK    3  A    between atoms: N_6  and  C_27
REMARK    4  A    between atoms: C_8  and  C_12
REMARK    5  A    between atoms: C_15  and  C_16
REMARK    6  A    between atoms: C_19  and  C_25
REMARK                            x       y       z     vdW  Elec       q    Type
REMARK                         _______ _______ _______ _____ _____    ______ ____
ROOT
ATOM      1  O   UNL     1      -0.383  -1.294  23.477  0.00  0.00    -0.420 OA
ATOM      3  N   UNL     1      -1.220  -2.487  25.174  0.00  0.00    -0.112 NA
ATOM      5  N   UNL     1       0.139  -2.338  25.386  0.00  0.00    -0.107 NA
ATOM     12  C   UNL     1      -1.479  -1.862  24.049  0.00  0.00    +0.222 A 
ATOM     15  C   UNL     1       0.586  -1.636  24.371  0.00  0.00    +0.248 A 
ENDROOT
BRANCH  12   8
ATOM      2  N   UNL     1      -4.146   0.023  24.266  0.00  0.00    -0.314 N 
ATOM      4  N   UNL     1      -4.268   2.330  23.840  0.00  0.00    -0.239 NA
ATOM      8  C   UNL     1      -2.801  -1.691  23.319  0.00  0.00    +0.095 C 
ATOM      9  C   UNL     1      -3.960  -2.320  24.100  0.00  0.00    +0.033 C 
ATOM     10  C   UNL     1      -3.291  -0.246  23.109  0.00  0.00    +0.119 C 
ATOM     11  C   UNL     1      -4.449  -1.195  25.013  0.00  0.00    +0.107 C 
ATOM     13  C   UNL     1      -4.615   1.273  24.608  0.00  0.00    +0.121 A 
ATOM     14  C   UNL     1      -5.421   1.362  25.730  0.00  0.00    +0.045 A 
ATOM     17  C   UNL     1      -5.903   2.617  26.088  0.00  0.00    +0.024 A 
ATOM     18  C   UNL     1      -4.754   3.533  24.218  0.00  0.00    +0.131 A 
ATOM     19  C   UNL     1      -5.568   3.728  25.322  0.00  0.00    +0.070 A 
BRANCH  19  25
ATOM      7  N   UNL     1      -6.433   6.086  25.943  0.00  0.00    -0.191 NA
ATOM     25  C   UNL     1      -6.045   5.028  25.665  0.00  0.00    +0.101 C 
ENDBRANCH  19  25
ENDBRANCH  12   8
BRANCH  15  16
ATOM     16  C   UNL     1       1.911  -1.182  24.065  0.00  0.00    +0.039 A 
ATOM     20  C   UNL     1       3.010  -1.987  24.365  0.00  0.00    +0.015 A 
ATOM     21  C   UNL     1       2.101   0.064  23.468  0.00  0.00    +0.015 A 
ATOM     22  C   UNL     1       4.489  -0.298  23.470  0.00  0.00    +0.029 A 
ATOM     23  C   UNL     1       4.300  -1.544  24.067  0.00  0.00    +0.024 A 
ATOM     24  C   UNL     1       3.390   0.506  23.170  0.00  0.00    +0.024 A 
BRANCH  22   6
ATOM      6  N   UNL     1       5.793   0.148  23.170  0.00  0.00    -0.336 N 
ATOM     26  C   UNL     1       6.634  -0.606  22.260  0.00  0.00    +0.129 C 
ATOM     27  C   UNL     1       6.311   1.361  23.771  0.00  0.00    +0.129 C 
ENDBRANCH  22   6
ENDBRANCH  15  16
TORSDOF 4
ENDMDL
MODEL 3
REMARK VINA RESULT:      12.7      2.101      2.815
REMARK  Name = 51137936
REMARK  6 active torsions:
REMARK  status: ('A' for Active; 'I' for Inactive)
REMARK    1  A    between atoms: N_6  and  C_22
REMARK    2  A    between atoms: N_6  and  C_26
REMARK    3  A    between atoms: N_6  and  C_27
REMARK    4  A    between atoms: C_8  and  C_12
REMARK    5  A    between atoms: C_15  and  C_16
REMARK    6  A    between atoms: C_19  and  C_25
REMARK                            x       y       z     vdW  Elec       q    Type
REMARK                         _______ _______ _______ _____ _____    ______ ____
ROOT
ATOM      1  O   UNL     1      -1.617  -1.075  24.163  0.00  0.00    -0.420 OA
ATOM      3  N   UNL     1      -2.236  -3.174  24.630  0.00  0.00    -0.112 NA
ATOM      5  N   UNL     1      -0.869  -3.168  24.422  0.00  0.00    -0.107 NA
ATOM     12  C   UNL     1      -2.629  -1.932  24.468  0.00  0.00    +0.222 A 
ATOM     15  C   UNL     1      -0.552  -1.923  24.153  0.00  0.00    +0.248 A 
ENDROOT
BRANCH  12   8
ATOM      2  N   UNL     1      -3.993   1.035  24.701  0.00  0.00    -0.314 N 
ATOM      4  N   UNL     1      -4.032   2.690  23.035  0.00  0.00    -0.239 NA
ATOM      8  C   UNL     1      -4.024  -1.338  24.573  0.00  0.00    +0.095 C 
ATOM      9  C   UNL     1      -4.342  -0.895  26.006  0.00  0.00    +0.033 C 
ATOM     10  C   UNL     1      -4.288  -0.052  23.766  0.00  0.00    +0.119 C 
ATOM     11  C   UNL     1      -3.845   0.549  26.070  0.00  0.00    +0.107 C 
ATOM     13  C   UNL     1      -3.875   2.358  24.336  0.00  0.00    +0.121 A 
ATOM     14  C   UNL     1      -3.598   3.270  25.341  0.00  0.00    +0.045 A 
ATOM     17  C   UNL     1      -3.476   4.611  24.989  0.00  0.00    +0.024 A 
ATOM     18  C   UNL     1      -3.907   4.001  22.730  0.00  0.00    +0.131 A 
ATOM     19  C   UNL     1      -3.633   4.991  23.661  0.00  0.00    +0.070 A 
BRANCH  19  25
ATOM      7  N   UNL     1      -3.414   7.468  22.948  0.00  0.00    -0.191 NA
ATOM     25  C   UNL     1      -3.512   6.358  23.268  0.00  0.00    +0.101 C 
ENDBRANCH  19  25
ENDBRANCH  12   8
BRANCH  15  16
ATOM     16  C   UNL     1       0.719  -1.329  23.855  0.00  0.00    +0.039 A 
ATOM     20  C   UNL     1       0.777  -0.107  23.184  0.00  0.00    +0.015 A 
ATOM     21  C   UNL     1       1.896  -1.972  24.236  0.00  0.00    +0.015 A 
ATOM     22  C   UNL     1       3.191  -0.173  23.276  0.00  0.00    +0.029 A 
ATOM     23  C   UNL     1       2.014   0.470  22.894  0.00  0.00    +0.024 A 
ATOM     24  C   UNL     1       3.133  -1.394  23.947  0.00  0.00    +0.024 A 
BRANCH  22   6
ATOM      6  N   UNL     1       4.440   0.412  22.983  0.00  0.00    -0.336 N 
ATOM     26  C   UNL     1       5.667  -0.203  23.453  0.00  0.00    +0.129 C 
ATOM     27  C   UNL     1       4.515   1.638  22.213  0.00  0.00    +0.129 C 
ENDBRANCH  22   6
ENDBRANCH  15  16
TORSDOF 4
ENDMDL
MODEL 4
REMARK VINA RESULT:      13.7      2.022      9.998
REMARK  Name = 51137936
REMARK  6 active torsions:
REMARK  status: ('A' for Active; 'I' for Inactive)
REMARK    1  A    between atoms: N_6  and  C_22
REMARK    2  A    between atoms: N_6  and  C_26
REMARK    3  A    between atoms: N_6  and  C_27
REMARK    4  A    between atoms: C_8  and  C_12
REMARK    5  A    between atoms: C_15  and  C_16
REMARK    6  A    between atoms: C_19  and  C_25
REMARK                            x       y       z     vdW  Elec       q    Type
REMARK                         _______ _______ _______ _____ _____    ______ ____
ROOT
ATOM      1  O   UNL     1      -0.871   0.842  24.032  0.00  0.00    -0.420 OA
ATOM      3  N   UNL     1       1.089   1.917  23.980  0.00  0.00    -0.112 NA
ATOM      5  N   UNL     1       0.122   2.814  24.395  0.00  0.00    -0.107 NA
ATOM     12  C   UNL     1       0.464   0.780  23.779  0.00  0.00    +0.222 A 
ATOM     15  C   UNL     1      -1.006   2.143  24.411  0.00  0.00    +0.248 A 
ENDROOT
BRANCH  12   8
ATOM      2  N   UNL     1       3.351  -0.480  22.890  0.00  0.00    -0.314 N 
ATOM      4  N   UNL     1       5.207  -0.844  24.283  0.00  0.00    -0.239 NA
ATOM      8  C   UNL     1       1.015  -0.558  23.316  0.00  0.00    +0.095 C 
ATOM      9  C   UNL     1       1.263  -0.573  21.804  0.00  0.00    +0.033 C 
ATOM     10  C   UNL     1       2.389  -0.970  23.878  0.00  0.00    +0.119 C 
ATOM     11  C   UNL     1       2.695  -0.060  21.655  0.00  0.00    +0.107 C 
ATOM     13  C   UNL     1       4.713  -0.427  23.096  0.00  0.00    +0.121 A 
ATOM     14  C   UNL     1       5.492   0.057  22.059  0.00  0.00    +0.045 A 
ATOM     17  C   UNL     1       6.868   0.117  22.251  0.00  0.00    +0.024 A 
ATOM     18  C   UNL     1       6.549  -0.772  24.434  0.00  0.00    +0.131 A 
ATOM     19  C   UNL     1       7.415  -0.304  23.458  0.00  0.00    +0.070 A 
BRANCH  19  25
ATOM      7  N   UNL     1       9.967  -0.214  23.870  0.00  0.00    -0.191 NA
ATOM     25  C   UNL     1       8.822  -0.254  23.686  0.00  0.00    +0.101 C 
ENDBRANCH  19  25
ENDBRANCH  12   8
BRANCH  15  16
ATOM     16  C   UNL     1      -2.333   2.560  24.759  0.00  0.00    +0.039 A 
ATOM     20  C   UNL     1      -3.436   1.868  24.256  0.00  0.00    +0.015 A 
ATOM     21  C   UNL     1      -2.522   3.656  25.600  0.00  0.00    +0.015 A 
ATOM     22  C   UNL     1      -4.915   3.371  25.436  0.00  0.00    +0.029 A 
ATOM     23  C   UNL     1      -4.727   2.275  24.595  0.00  0.00    +0.024 A 
ATOM     24  C   UNL     1      -3.813   4.062  25.939  0.00  0.00    +0.024 A 
BRANCH  22   6
ATOM      6  N   UNL     1      -6.220   3.780  25.778  0.00  0.00    -0.336 N 
ATOM     26  C   UNL     1      -6.622   5.164  25.612  0.00  0.00    +0.129 C 
ATOM     27  C   UNL     1      -7.176   2.826  26.304  0.00  0.00    +0.129 C 
ENDBRANCH  22   6
ENDBRANCH  15  16
TORSDOF 4
ENDMDL
