MODEL 1
REMARK VINA RESULT:      -0.2      0.000      0.000
REMARK  Name = 26743990
REMARK  7 active torsions:
REMARK  status: ('A' for Active; 'I' for Inactive)
REMARK    1  A    between atoms: O_1  and  C_11
REMARK    2  A    between atoms: N_4  and  C_13
REMARK    3  A    between atoms: N_7  and  C_21
REMARK    4  A    between atoms: C_9  and  C_14
REMARK    5  A    between atoms: C_13  and  C_15
REMARK    6  A    between atoms: C_18  and  C_22
REMARK    7  A    between atoms: C_25  and  C_28
REMARK                            x       y       z     vdW  Elec       q    Type
REMARK                         _______ _______ _______ _____ _____    ______ ____
ROOT
ATOM      4  N   UNL     1      -3.794   4.256  25.610  0.00  0.00    -0.285 NA
ATOM      9  C   UNL     1      -4.545   3.020  25.913  0.00  0.00    +0.149 C 
ATOM     10  C   UNL     1      -6.023   3.394  25.691  0.00  0.00    +0.061 C 
ATOM     11  C   UNL     1      -6.005   4.869  25.311  0.00  0.00    +0.130 C 
ATOM     12  C   UNL     1      -4.696   5.369  25.895  0.00  0.00    +0.116 C 
ENDROOT
BRANCH   9  14
ATOM      2  O   UNL     1      -3.828   2.112  23.760  0.00  0.00    -0.336 OA
ATOM      5  N   UNL     1      -3.948   0.591  25.400  0.00  0.00    -0.190 NA
ATOM      6  N   UNL     1      -3.450   0.892  23.187  0.00  0.00    -0.056 NA
ATOM     14  C   UNL     1      -4.104   1.847  25.064  0.00  0.00    +0.245 A 
ATOM     18  C   UNL     1      -3.546   0.045  24.216  0.00  0.00    +0.204 A 
BRANCH  18  22
ATOM      8  N   UNL     1      -1.609  -3.130  24.190  0.00  0.00    -0.263 NA
ATOM     22  C   UNL     1      -3.246  -1.353  24.095  0.00  0.00    +0.041 A 
ATOM     23  C   UNL     1      -4.238  -2.274  23.779  0.00  0.00    +0.014 A 
ATOM     24  C   UNL     1      -1.959  -1.827  24.290  0.00  0.00    +0.122 A 
ATOM     26  C   UNL     1      -3.917  -3.623  23.668  0.00  0.00    +0.020 A 
ATOM     27  C   UNL     1      -2.601  -3.996  23.882  0.00  0.00    +0.111 A 
ENDBRANCH  18  22
ENDBRANCH   9  14
BRANCH  11   1
ATOM      1  O   UNL     1      -7.119   5.544  25.863  0.00  0.00    -0.390 OA
ATOM     29  H   UNL     1      -6.904   6.492  25.884  0.00  0.00    +0.210 HD
ENDBRANCH  11   1
BRANCH   4  13
ATOM     13  C   UNL     1      -2.542   4.362  26.348  0.00  0.00    +0.120 C 
BRANCH  13  15
ATOM     15  C   UNL     1      -1.422   3.628  25.660  0.00  0.00    -0.033 A 
ATOM     16  C   UNL     1      -0.927   4.095  24.442  0.00  0.00    +0.007 A 
ATOM     17  C   UNL     1      -0.878   2.481  26.239  0.00  0.00    +0.007 A 
ATOM     19  C   UNL     1       0.110   3.416  23.804  0.00  0.00    +0.023 A 
ATOM     20  C   UNL     1       0.159   1.803  25.602  0.00  0.00    +0.023 A 
ATOM     21  C   UNL     1       0.654   2.269  24.385  0.00  0.00    +0.033 A 
BRANCH  21   7
ATOM      3  O   UNL     1       0.636  -0.306  22.823  0.00  0.00    -0.276 OA
ATOM      7  N   UNL     1       1.692   1.589  23.746  0.00  0.00    -0.286 N 
ATOM     25  C   UNL     1       1.627   0.386  23.031  0.00  0.00    +0.214 C 
ATOM     28  C   UNL     1       2.977  -0.018  22.493  0.00  0.00    +0.109 C 
ATOM     30  H   UNL     1       2.607   2.030  23.815  0.00  0.00    +0.155 HD
ENDBRANCH  21   7
ENDBRANCH  13  15
ENDBRANCH   4  13
TORSDOF 6
ENDMDL
MODEL 2
REMARK VINA RESULT:       0.1      2.400      4.793
REMARK  Name = 26743990
REMARK  7 active torsions:
REMARK  status: ('A' for Active; 'I' for Inactive)
REMARK    1  A    between atoms: O_1  and  C_11
REMARK    2  A    between atoms: N_4  and  C_13
REMARK    3  A    between atoms: N_7  and  C_21
REMARK    4  A    between atoms: C_9  and  C_14
REMARK    5  A    between atoms: C_13  and  C_15
REMARK    6  A    between atoms: C_18  and  C_22
REMARK    7  A    between atoms: C_25  and  C_28
REMARK                            x       y       z     vdW  Elec       q    Type
REMARK                         _______ _______ _______ _____ _____    ______ ____
ROOT
ATOM      4  N   UNL     1      -4.058   1.791  25.197  0.00  0.00    -0.285 NA
ATOM      9  C   UNL     1      -3.248   2.964  24.811  0.00  0.00    +0.149 C 
ATOM     10  C   UNL     1      -4.057   4.179  25.304  0.00  0.00    +0.061 C 
ATOM     11  C   UNL     1      -5.323   3.590  25.912  0.00  0.00    +0.130 C 
ATOM     12  C   UNL     1      -5.448   2.239  25.231  0.00  0.00    +0.116 C 
ENDROOT
BRANCH   9  14
ATOM      2  O   UNL     1      -0.826   3.034  24.498  0.00  0.00    -0.336 OA
ATOM      5  N   UNL     1      -1.465   2.789  26.630  0.00  0.00    -0.190 NA
ATOM      6  N   UNL     1       0.352   2.967  25.252  0.00  0.00    -0.056 NA
ATOM     14  C   UNL     1      -1.848   2.922  25.385  0.00  0.00    +0.245 A 
ATOM     18  C   UNL     1      -0.107   2.822  26.498  0.00  0.00    +0.204 A 
BRANCH  18  22
ATOM      8  N   UNL     1       2.993   2.886  28.550  0.00  0.00    -0.263 NA
ATOM     22  C   UNL     1       0.763   2.709  27.633  0.00  0.00    +0.041 A 
ATOM     23  C   UNL     1       0.273   2.332  28.878  0.00  0.00    +0.014 A 
ATOM     24  C   UNL     1       2.119   2.974  27.523  0.00  0.00    +0.122 A 
ATOM     26  C   UNL     1       1.141   2.230  29.959  0.00  0.00    +0.020 A 
ATOM     27  C   UNL     1       2.479   2.516  29.746  0.00  0.00    +0.111 A 
ENDBRANCH  18  22
ENDBRANCH   9  14
BRANCH  11   1
ATOM      1  O   UNL     1      -6.440   4.417  25.646  0.00  0.00    -0.390 OA
ATOM     29  H   UNL     1      -6.248   5.295  26.018  0.00  0.00    +0.210 HD
ENDBRANCH  11   1
BRANCH   4  13
ATOM     13  C   UNL     1      -3.871   0.649  24.311  0.00  0.00    +0.120 C 
BRANCH  13  15
ATOM     15  C   UNL     1      -2.414   0.356  24.073  0.00  0.00    -0.033 A 
ATOM     16  C   UNL     1      -1.793   0.811  22.909  0.00  0.00    +0.007 A 
ATOM     17  C   UNL     1      -1.684  -0.369  25.014  0.00  0.00    +0.007 A 
ATOM     19  C   UNL     1      -0.443   0.541  22.687  0.00  0.00    +0.023 A 
ATOM     20  C   UNL     1      -0.335  -0.639  24.793  0.00  0.00    +0.023 A 
ATOM     21  C   UNL     1       0.286  -0.185  23.630  0.00  0.00    +0.033 A 
BRANCH  21   7
ATOM      3  O   UNL     1       2.605   1.681  23.167  0.00  0.00    -0.276 OA
ATOM      7  N   UNL     1       1.637  -0.456  23.408  0.00  0.00    -0.286 N 
ATOM     25  C   UNL     1       2.679   0.457  23.196  0.00  0.00    +0.214 C 
ATOM     28  C   UNL     1       4.001  -0.241  22.994  0.00  0.00    +0.109 C 
ATOM     30  H   UNL     1       1.887  -1.443  23.401  0.00  0.00    +0.155 HD
ENDBRANCH  21   7
ENDBRANCH  13  15
ENDBRANCH   4  13
TORSDOF 6
ENDMDL
MODEL 3
REMARK VINA RESULT:       1.1      1.759      4.382
REMARK  Name = 26743990
REMARK  7 active torsions:
REMARK  status: ('A' for Active; 'I' for Inactive)
REMARK    1  A    between atoms: O_1  and  C_11
REMARK    2  A    between atoms: N_4  and  C_13
REMARK    3  A    between atoms: N_7  and  C_21
REMARK    4  A    between atoms: C_9  and  C_14
REMARK    5  A    between atoms: C_13  and  C_15
REMARK    6  A    between atoms: C_18  and  C_22
REMARK    7  A    between atoms: C_25  and  C_28
REMARK                            x       y       z     vdW  Elec       q    Type
REMARK                         _______ _______ _______ _____ _____    ______ ____
ROOT
ATOM      4  N   UNL     1      -5.266   2.287  25.310  0.00  0.00    -0.285 NA
ATOM      9  C   UNL     1      -4.411   3.036  24.366  0.00  0.00    +0.149 C 
ATOM     10  C   UNL     1      -4.657   4.518  24.704  0.00  0.00    +0.061 C 
ATOM     11  C   UNL     1      -5.696   4.503  25.818  0.00  0.00    +0.130 C 
ATOM     12  C   UNL     1      -6.388   3.164  25.638  0.00  0.00    +0.116 C 
ENDROOT
BRANCH   9  14
ATOM      2  O   UNL     1      -2.288   3.066  25.574  0.00  0.00    -0.336 OA
ATOM      5  N   UNL     1      -2.217   1.957  23.630  0.00  0.00    -0.190 NA
ATOM      6  N   UNL     1      -0.976   2.594  25.442  0.00  0.00    -0.056 NA
ATOM     14  C   UNL     1      -2.952   2.647  24.466  0.00  0.00    +0.245 A 
ATOM     18  C   UNL     1      -1.013   1.951  24.272  0.00  0.00    +0.204 A 
BRANCH  18  22
ATOM      8  N   UNL     1       2.525   1.256  23.364  0.00  0.00    -0.263 NA
ATOM     22  C   UNL     1       0.134   1.292  23.716  0.00  0.00    +0.041 A 
ATOM     23  C   UNL     1       0.005   0.098  23.016  0.00  0.00    +0.014 A 
ATOM     24  C   UNL     1       1.404   1.825  23.862  0.00  0.00    +0.122 A 
ATOM     26  C   UNL     1       1.135  -0.517  22.489  0.00  0.00    +0.020 A 
ATOM     27  C   UNL     1       2.361   0.096  22.688  0.00  0.00    +0.111 A 
ENDBRANCH  18  22
ENDBRANCH   9  14
BRANCH  11   1
ATOM      1  O   UNL     1      -6.599   5.583  25.678  0.00  0.00    -0.390 OA
ATOM     29  H   UNL     1      -6.594   6.078  26.516  0.00  0.00    +0.210 HD
ENDBRANCH  11   1
BRANCH   4  13
ATOM     13  C   UNL     1      -5.709   1.001  24.787  0.00  0.00    +0.120 C 
BRANCH  13  15
ATOM     15  C   UNL     1      -4.619  -0.035  24.849  0.00  0.00    -0.033 A 
ATOM     16  C   UNL     1      -3.880  -0.200  26.021  0.00  0.00    +0.007 A 
ATOM     17  C   UNL     1      -4.347  -0.831  23.736  0.00  0.00    +0.007 A 
ATOM     19  C   UNL     1      -2.870  -1.160  26.080  0.00  0.00    +0.023 A 
ATOM     20  C   UNL     1      -3.338  -1.790  23.795  0.00  0.00    +0.023 A 
ATOM     21  C   UNL     1      -2.599  -1.956  24.966  0.00  0.00    +0.033 A 
BRANCH  21   7
ATOM      3  O   UNL     1       0.299  -1.700  25.743  0.00  0.00    -0.276 OA
ATOM      7  N   UNL     1      -1.588  -2.916  25.024  0.00  0.00    -0.286 N 
ATOM     25  C   UNL     1      -0.248  -2.740  25.393  0.00  0.00    +0.214 C 
ATOM     28  C   UNL     1       0.525  -4.034  25.324  0.00  0.00    +0.109 C 
ATOM     30  H   UNL     1      -1.870  -3.859  24.763  0.00  0.00    +0.155 HD
ENDBRANCH  21   7
ENDBRANCH  13  15
ENDBRANCH   4  13
TORSDOF 6
ENDMDL
MODEL 4
REMARK VINA RESULT:       2.4      1.705      6.288
REMARK  Name = 26743990
REMARK  7 active torsions:
REMARK  status: ('A' for Active; 'I' for Inactive)
REMARK    1  A    between atoms: O_1  and  C_11
REMARK    2  A    between atoms: N_4  and  C_13
REMARK    3  A    between atoms: N_7  and  C_21
REMARK    4  A    between atoms: C_9  and  C_14
REMARK    5  A    between atoms: C_13  and  C_15
REMARK    6  A    between atoms: C_18  and  C_22
REMARK    7  A    between atoms: C_25  and  C_28
REMARK                            x       y       z     vdW  Elec       q    Type
REMARK                         _______ _______ _______ _____ _____    ______ ____
ROOT
ATOM      4  N   UNL     1       2.518   1.290  23.631  0.00  0.00    -0.285 NA
ATOM      9  C   UNL     1       2.065   0.105  22.873  0.00  0.00    +0.149 C 
ATOM     10  C   UNL     1       3.309  -0.800  22.779  0.00  0.00    +0.061 C 
ATOM     11  C   UNL     1       4.418  -0.020  23.472  0.00  0.00    +0.130 C 
ATOM     12  C   UNL     1       3.951   1.421  23.378  0.00  0.00    +0.116 C 
ENDROOT
BRANCH   9  14
ATOM      2  O   UNL     1       1.148  -1.313  24.638  0.00  0.00    -0.336 OA
ATOM      5  N   UNL     1      -0.374  -0.593  23.161  0.00  0.00    -0.190 NA
ATOM      6  N   UNL     1      -0.078  -1.851  25.049  0.00  0.00    -0.056 NA
ATOM     14  C   UNL     1       0.886  -0.586  23.521  0.00  0.00    +0.245 A 
ATOM     18  C   UNL     1      -0.925  -1.381  24.129  0.00  0.00    +0.204 A 
BRANCH  18  22
ATOM      8  N   UNL     1      -4.085  -3.340  24.185  0.00  0.00    -0.263 NA
ATOM     22  C   UNL     1      -2.328  -1.680  24.148  0.00  0.00    +0.041 A 
ATOM     23  C   UNL     1      -3.278  -0.664  24.148  0.00  0.00    +0.014 A 
ATOM     24  C   UNL     1      -2.780  -2.990  24.167  0.00  0.00    +0.122 A 
ATOM     26  C   UNL     1      -4.631  -0.985  24.167  0.00  0.00    +0.020 A 
ATOM     27  C   UNL     1      -4.980  -2.325  24.185  0.00  0.00    +0.111 A 
ENDBRANCH  18  22
ENDBRANCH   9  14
BRANCH  11   1
ATOM      1  O   UNL     1       5.656  -0.215  22.815  0.00  0.00    -0.390 OA
ATOM     29  H   UNL     1       5.874  -1.161  22.880  0.00  0.00    +0.210 HD
ENDBRANCH  11   1
BRANCH   4  13
ATOM     13  C   UNL     1       1.787   2.503  23.288  0.00  0.00    +0.120 C 
BRANCH  13  15
ATOM     15  C   UNL     1       0.431   2.543  23.940  0.00  0.00    -0.033 A 
ATOM     16  C   UNL     1       0.315   2.375  25.320  0.00  0.00    +0.007 A 
ATOM     17  C   UNL     1      -0.711   2.750  23.165  0.00  0.00    +0.007 A 
ATOM     19  C   UNL     1      -0.941   2.412  25.924  0.00  0.00    +0.023 A 
ATOM     20  C   UNL     1      -1.966   2.788  23.769  0.00  0.00    +0.023 A 
ATOM     21  C   UNL     1      -2.082   2.619  25.148  0.00  0.00    +0.033 A 
BRANCH  21   7
ATOM      3  O   UNL     1      -4.838   2.522  23.937  0.00  0.00    -0.276 OA
ATOM      7  N   UNL     1      -3.339   2.656  25.753  0.00  0.00    -0.286 N 
ATOM     25  C   UNL     1      -4.597   2.609  25.137  0.00  0.00    +0.214 C 
ATOM     28  C   UNL     1      -5.716   2.676  26.146  0.00  0.00    +0.109 C 
ATOM     30  H   UNL     1      -3.331   2.727  26.769  0.00  0.00    +0.155 HD
ENDBRANCH  21   7
ENDBRANCH  13  15
ENDBRANCH   4  13
TORSDOF 6
ENDMDL
MODEL 5
REMARK VINA RESULT:       2.5      2.129      7.175
REMARK  Name = 26743990
REMARK  7 active torsions:
REMARK  status: ('A' for Active; 'I' for Inactive)
REMARK    1  A    between atoms: O_1  and  C_11
REMARK    2  A    between atoms: N_4  and  C_13
REMARK    3  A    between atoms: N_7  and  C_21
REMARK    4  A    between atoms: C_9  and  C_14
REMARK    5  A    between atoms: C_13  and  C_15
REMARK    6  A    between atoms: C_18  and  C_22
REMARK    7  A    between atoms: C_25  and  C_28
REMARK                            x       y       z     vdW  Elec       q    Type
REMARK                         _______ _______ _______ _____ _____    ______ ____
ROOT
ATOM      4  N   UNL     1       0.715  -0.232  22.880  0.00  0.00    -0.285 NA
ATOM      9  C   UNL     1       1.345   0.515  23.987  0.00  0.00    +0.149 C 
ATOM     10  C   UNL     1       2.625   1.118  23.376  0.00  0.00    +0.061 C 
ATOM     11  C   UNL     1       2.650   0.616  21.938  0.00  0.00    +0.130 C 
ATOM     12  C   UNL     1       1.797  -0.638  21.985  0.00  0.00    +0.116 C 
ENDROOT
BRANCH   9  14
ATOM      2  O   UNL     1       0.927   2.293  25.611  0.00  0.00    -0.336 OA
ATOM      5  N   UNL     1      -0.795   1.885  24.239  0.00  0.00    -0.190 NA
ATOM      6  N   UNL     1      -0.087   3.183  25.985  0.00  0.00    -0.056 NA
ATOM     14  C   UNL     1       0.429   1.565  24.578  0.00  0.00    +0.245 A 
ATOM     18  C   UNL     1      -1.069   2.881  25.130  0.00  0.00    +0.204 A 
BRANCH  18  22
ATOM      8  N   UNL     1      -4.181   4.500  23.895  0.00  0.00    -0.263 NA
ATOM     22  C   UNL     1      -2.334   3.557  25.139  0.00  0.00    +0.041 A 
ATOM     23  C   UNL     1      -2.943   3.923  26.334  0.00  0.00    +0.014 A 
ATOM     24  C   UNL     1      -2.988   3.865  23.957  0.00  0.00    +0.122 A 
ATOM     26  C   UNL     1      -4.170   4.577  26.311  0.00  0.00    +0.020 A 
ATOM     27  C   UNL     1      -4.742   4.840  25.077  0.00  0.00    +0.111 A 
ENDBRANCH  18  22
ENDBRANCH   9  14
BRANCH  11   1
ATOM      1  O   UNL     1       3.974   0.335  21.527  0.00  0.00    -0.390 OA
ATOM     29  H   UNL     1       4.569   0.891  22.060  0.00  0.00    +0.210 HD
ENDBRANCH  11   1
BRANCH   4  13
ATOM     13  C   UNL     1      -0.077  -1.368  23.333  0.00  0.00    +0.120 C 
BRANCH  13  15
ATOM     15  C   UNL     1      -1.330  -0.930  24.043  0.00  0.00    -0.033 A 
ATOM     16  C   UNL     1      -1.458  -1.131  25.418  0.00  0.00    +0.007 A 
ATOM     17  C   UNL     1      -2.363  -0.324  23.328  0.00  0.00    +0.007 A 
ATOM     19  C   UNL     1      -2.619  -0.725  26.076  0.00  0.00    +0.023 A 
ATOM     20  C   UNL     1      -3.523   0.082  23.986  0.00  0.00    +0.023 A 
ATOM     21  C   UNL     1      -3.651  -0.118  25.360  0.00  0.00    +0.033 A 
BRANCH  21   7
ATOM      3  O   UNL     1      -5.728   1.920  24.585  0.00  0.00    -0.276 OA
ATOM      7  N   UNL     1      -4.813   0.287  26.019  0.00  0.00    -0.286 N 
ATOM     25  C   UNL     1      -5.748   1.247  25.611  0.00  0.00    +0.214 C 
ATOM     28  C   UNL     1      -6.869   1.396  26.609  0.00  0.00    +0.109 C 
ATOM     30  H   UNL     1      -4.994  -0.178  26.906  0.00  0.00    +0.155 HD
ENDBRANCH  21   7
ENDBRANCH  13  15
ENDBRANCH   4  13
TORSDOF 6
ENDMDL
MODEL 6
REMARK VINA RESULT:       3.1      2.360      5.817
REMARK  Name = 26743990
REMARK  7 active torsions:
REMARK  status: ('A' for Active; 'I' for Inactive)
REMARK    1  A    between atoms: O_1  and  C_11
REMARK    2  A    between atoms: N_4  and  C_13
REMARK    3  A    between atoms: N_7  and  C_21
REMARK    4  A    between atoms: C_9  and  C_14
REMARK    5  A    between atoms: C_13  and  C_15
REMARK    6  A    between atoms: C_18  and  C_22
REMARK    7  A    between atoms: C_25  and  C_28
REMARK                            x       y       z     vdW  Elec       q    Type
REMARK                         _______ _______ _______ _____ _____    ______ ____
ROOT
ATOM      4  N   UNL     1      -4.238  -1.373  23.966  0.00  0.00    -0.285 NA
ATOM      9  C   UNL     1      -3.201  -1.684  24.972  0.00  0.00    +0.149 C 
ATOM     10  C   UNL     1      -2.946  -3.195  24.819  0.00  0.00    +0.061 C 
ATOM     11  C   UNL     1      -3.917  -3.653  23.738  0.00  0.00    +0.130 C 
ATOM     12  C   UNL     1      -5.009  -2.599  23.774  0.00  0.00    +0.116 C 
ENDROOT
BRANCH   9  14
ATOM      2  O   UNL     1      -1.743   0.143  25.685  0.00  0.00    -0.336 OA
ATOM      5  N   UNL     1      -1.008  -0.962  23.881  0.00  0.00    -0.190 NA
ATOM      6  N   UNL     1      -0.539   0.756  25.317  0.00  0.00    -0.056 NA
ATOM     14  C   UNL     1      -1.946  -0.858  24.789  0.00  0.00    +0.245 A 
ATOM     18  C   UNL     1      -0.167   0.049  24.246  0.00  0.00    +0.204 A 
BRANCH  18  22
ATOM      8  N   UNL     1       3.034   1.666  23.266  0.00  0.00    -0.263 NA
ATOM     22  C   UNL     1       1.038   0.326  23.519  0.00  0.00    +0.041 A 
ATOM     23  C   UNL     1       1.393  -0.427  22.406  0.00  0.00    +0.014 A 
ATOM     24  C   UNL     1       1.885   1.352  23.906  0.00  0.00    +0.122 A 
ATOM     26  C   UNL     1       2.568  -0.134  21.722  0.00  0.00    +0.020 A 
ATOM     27  C   UNL     1       3.347   0.912  22.187  0.00  0.00    +0.111 A 
ENDBRANCH  18  22
ENDBRANCH   9  14
BRANCH  11   1
ATOM      1  O   UNL     1      -4.422  -4.942  24.029  0.00  0.00    -0.390 OA
ATOM     29  H   UNL     1      -4.372  -5.466  23.211  0.00  0.00    +0.210 HD
ENDBRANCH  11   1
BRANCH   4  13
ATOM     13  C   UNL     1      -5.083  -0.247  24.343  0.00  0.00    +0.120 C 
BRANCH  13  15
ATOM     15  C   UNL     1      -4.314   1.047  24.367  0.00  0.00    -0.033 A 
ATOM     16  C   UNL     1      -3.526   1.410  23.274  0.00  0.00    +0.007 A 
ATOM     17  C   UNL     1      -4.390   1.884  25.481  0.00  0.00    +0.007 A 
ATOM     19  C   UNL     1      -2.814   2.609  23.296  0.00  0.00    +0.023 A 
ATOM     20  C   UNL     1      -3.678   3.082  25.502  0.00  0.00    +0.023 A 
ATOM     21  C   UNL     1      -2.890   3.445  24.410  0.00  0.00    +0.033 A 
BRANCH  21   7
ATOM      3  O   UNL     1      -0.123   4.057  25.428  0.00  0.00    -0.276 OA
ATOM      7  N   UNL     1      -2.178   4.645  24.432  0.00  0.00    -0.286 N 
ATOM     25  C   UNL     1      -0.886   4.874  24.922  0.00  0.00    +0.214 C 
ATOM     28  C   UNL     1      -0.475   6.317  24.762  0.00  0.00    +0.109 C 
ATOM     30  H   UNL     1      -2.667   5.448  24.041  0.00  0.00    +0.155 HD
ENDBRANCH  21   7
ENDBRANCH  13  15
ENDBRANCH   4  13
TORSDOF 6
ENDMDL
