MODEL 1
REMARK VINA RESULT:       8.2      0.000      0.000
REMARK  Name = 40586262
REMARK  4 active torsions:
REMARK  status: ('A' for Active; 'I' for Inactive)
REMARK    1  A    between atoms: O_3  and  C_27
REMARK    2  A    between atoms: O_3  and  C_31
REMARK    3  A    between atoms: N_6  and  C_20
REMARK    4  A    between atoms: C_17  and  C_19
REMARK                            x       y       z     vdW  Elec       q    Type
REMARK                         _______ _______ _______ _____ _____    ______ ____
ROOT
ATOM      1  O   UNL     1       0.615   1.673  26.082  0.00  0.00    -0.267 OA
ATOM      2  O   UNL     1      -4.366   1.600  23.099  0.00  0.00    -0.252 OA
ATOM      4  N   UNL     1      -4.111   2.950  24.961  0.00  0.00    -0.284 N 
ATOM      5  N   UNL     1      -0.955   3.243  25.367  0.00  0.00    -0.311 N 
ATOM      6  N   UNL     1      -4.549   0.644  25.204  0.00  0.00    -0.269 N 
ATOM      7  C   UNL     1      -2.880   4.039  26.853  0.00  0.00    +0.027 C 
ATOM      8  C   UNL     1      -2.651   4.930  24.576  0.00  0.00    +0.054 C 
ATOM      9  C   UNL     1      -2.798   5.325  26.042  0.00  0.00    +0.018 C 
ATOM     10  C   UNL     1      -1.554   3.282  26.708  0.00  0.00    +0.130 C 
ATOM     11  C   UNL     1      -4.084   3.181  26.414  0.00  0.00    +0.114 C 
ATOM     12  C   UNL     1      -3.900   4.146  24.136  0.00  0.00    +0.119 C 
ATOM     13  C   UNL     1      -1.410   4.086  24.351  0.00  0.00    +0.027 A 
ATOM     14  C   UNL     1      -0.770   4.122  23.171  0.00  0.00    +0.022 A 
ATOM     15  C   UNL     1       0.161   2.402  25.197  0.00  0.00    +0.259 A 
ATOM     16  C   UNL     1      -4.339   1.708  24.327  0.00  0.00    +0.306 C 
ATOM     17  C   UNL     1       0.832   2.435  23.851  0.00  0.00    +0.047 A 
ATOM     18  C   UNL     1       0.363   3.279  22.919  0.00  0.00    +0.015 A 
ATOM     32  H   UNL     1      -4.987   0.842  26.098  0.00  0.00    +0.156 HD
ENDROOT
BRANCH  17  19
ATOM     19  C   UNL     1       1.975   1.556  23.545  0.00  0.00    -0.012 A 
ATOM     21  C   UNL     1       1.814   0.171  23.562  0.00  0.00    +0.012 A 
ATOM     22  C   UNL     1       3.219   2.110  23.242  0.00  0.00    +0.012 A 
ATOM     23  C   UNL     1       2.896  -0.660  23.274  0.00  0.00    +0.046 A 
ATOM     24  C   UNL     1       4.301   1.279  22.954  0.00  0.00    +0.046 A 
ATOM     27  C   UNL     1       4.140  -0.106  22.970  0.00  0.00    +0.120 A 
BRANCH  27   3
ATOM      3  O   UNL     1       5.197  -0.917  22.690  0.00  0.00    -0.495 OA
ATOM     31  C   UNL     1       6.463  -0.545  23.232  0.00  0.00    +0.277 C 
ENDBRANCH  27   3
ENDBRANCH  17  19
BRANCH   6  20
ATOM     20  C   UNL     1      -4.230  -0.719  24.989  0.00  0.00    +0.035 A 
ATOM     25  C   UNL     1      -3.493  -1.421  25.943  0.00  0.00    +0.023 A 
ATOM     26  C   UNL     1      -4.651  -1.359  23.824  0.00  0.00    +0.023 A 
ATOM     28  C   UNL     1      -3.179  -2.764  25.732  0.00  0.00    +0.002 A 
ATOM     29  C   UNL     1      -4.337  -2.702  23.613  0.00  0.00    +0.002 A 
ATOM     30  C   UNL     1      -3.600  -3.404  24.567  0.00  0.00    +0.000 A 
ENDBRANCH   6  20
TORSDOF 3
ENDMDL
MODEL 2
REMARK VINA RESULT:      11.7      1.860      5.127
REMARK  Name = 40586262
REMARK  4 active torsions:
REMARK  status: ('A' for Active; 'I' for Inactive)
REMARK    1  A    between atoms: O_3  and  C_27
REMARK    2  A    between atoms: O_3  and  C_31
REMARK    3  A    between atoms: N_6  and  C_20
REMARK    4  A    between atoms: C_17  and  C_19
REMARK                            x       y       z     vdW  Elec       q    Type
REMARK                         _______ _______ _______ _____ _____    ______ ____
ROOT
ATOM      1  O   UNL     1       0.041  -0.167  22.042  0.00  0.00    -0.267 OA
ATOM      2  O   UNL     1      -2.625   1.534  26.911  0.00  0.00    -0.252 OA
ATOM      4  N   UNL     1      -3.756   0.329  25.291  0.00  0.00    -0.284 N 
ATOM      5  N   UNL     1      -1.482  -1.087  23.550  0.00  0.00    -0.311 N 
ATOM      6  N   UNL     1      -3.383   2.644  25.021  0.00  0.00    -0.269 N 
ATOM      7  C   UNL     1      -4.012  -0.995  23.179  0.00  0.00    +0.027 C 
ATOM      8  C   UNL     1      -3.115  -2.075  25.194  0.00  0.00    +0.054 C 
ATOM      9  C   UNL     1      -4.045  -2.276  24.002  0.00  0.00    +0.018 C 
ATOM     10  C   UNL     1      -2.592  -0.799  22.632  0.00  0.00    +0.130 C 
ATOM     11  C   UNL     1      -4.479   0.214  24.014  0.00  0.00    +0.114 C 
ATOM     12  C   UNL     1      -3.645  -0.917  26.059  0.00  0.00    +0.119 C 
ATOM     13  C   UNL     1      -1.697  -1.774  24.747  0.00  0.00    +0.027 A 
ATOM     14  C   UNL     1      -0.654  -2.134  25.512  0.00  0.00    +0.022 A 
ATOM     15  C   UNL     1      -0.190  -0.738  23.110  0.00  0.00    +0.259 A 
ATOM     16  C   UNL     1      -3.201   1.516  25.821  0.00  0.00    +0.306 C 
ATOM     17  C   UNL     1       0.954  -1.119  24.008  0.00  0.00    +0.047 A 
ATOM     18  C   UNL     1       0.689  -1.794  25.136  0.00  0.00    +0.015 A 
ATOM     32  H   UNL     1      -4.217   2.690  24.445  0.00  0.00    +0.156 HD
ENDROOT
BRANCH  17  19
ATOM     19  C   UNL     1       2.342  -0.755  23.672  0.00  0.00    -0.012 A 
ATOM     21  C   UNL     1       3.386  -1.630  23.974  0.00  0.00    +0.012 A 
ATOM     22  C   UNL     1       2.613   0.466  23.054  0.00  0.00    +0.012 A 
ATOM     23  C   UNL     1       4.699  -1.285  23.658  0.00  0.00    +0.046 A 
ATOM     24  C   UNL     1       3.926   0.811  22.737  0.00  0.00    +0.046 A 
ATOM     27  C   UNL     1       4.970  -0.064  23.039  0.00  0.00    +0.120 A 
BRANCH  27   3
ATOM      3  O   UNL     1       6.252   0.274  22.731  0.00  0.00    -0.495 OA
ATOM     31  C   UNL     1       7.281  -0.608  23.177  0.00  0.00    +0.277 C 
ENDBRANCH  27   3
ENDBRANCH  17  19
BRANCH   6  20
ATOM     20  C   UNL     1      -2.529   3.770  24.921  0.00  0.00    +0.035 A 
ATOM     25  C   UNL     1      -1.197   3.602  24.543  0.00  0.00    +0.023 A 
ATOM     26  C   UNL     1      -3.019   5.044  25.202  0.00  0.00    +0.023 A 
ATOM     28  C   UNL     1      -0.355   4.711  24.444  0.00  0.00    +0.002 A 
ATOM     29  C   UNL     1      -2.178   6.153  25.103  0.00  0.00    +0.002 A 
ATOM     30  C   UNL     1      -0.845   5.985  24.725  0.00  0.00    +0.000 A 
ENDBRANCH   6  20
TORSDOF 3
ENDMDL
