MODEL 1
REMARK VINA RESULT:      -4.7      0.000      0.000
REMARK  Name = 75367816
REMARK  5 active torsions:
REMARK  status: ('A' for Active; 'I' for Inactive)
REMARK    1  A    between atoms: O_2  and  C_10
REMARK    2  A    between atoms: O_2  and  C_19
REMARK    3  A    between atoms: N_8  and  C_21
REMARK    4  A    between atoms: N_8  and  C_22
REMARK    5  A    between atoms: C_19  and  C_20
REMARK                            x       y       z     vdW  Elec       q    Type
REMARK                         _______ _______ _______ _____ _____    ______ ____
ROOT
ATOM      1  O   UNL     1      -3.176  -2.941  24.543  0.00  0.00    -0.376 OA
ATOM      3  O   UNL     1      -0.515   4.227  25.410  0.00  0.00    -0.377 OA
ATOM      4  O   UNL     1      -0.324  -0.235  23.244  0.00  0.00    -0.252 OA
ATOM      6  N   UNL     1      -1.385  -0.710  25.243  0.00  0.00    -0.281 N 
ATOM      7  N   UNL     1      -0.664   1.503  24.714  0.00  0.00    -0.281 N 
ATOM      9  C   UNL     1      -2.653  -0.410  25.925  0.00  0.00    +0.143 C 
ATOM     10  C   UNL     1      -3.886  -0.642  25.044  0.00  0.00    +0.162 C 
ATOM     11  C   UNL     1      -0.985  -2.119  25.259  0.00  0.00    +0.137 C 
ATOM     12  C   UNL     1      -3.802  -1.775  24.024  0.00  0.00    +0.193 C 
ATOM     13  C   UNL     1      -0.755   0.160  24.335  0.00  0.00    +0.305 C 
ATOM     14  C   UNL     1      -1.774  -2.978  24.278  0.00  0.00    +0.179 C 
ATOM     15  C   UNL     1      -0.543   1.914  26.117  0.00  0.00    +0.137 C 
ATOM     16  C   UNL     1      -0.130   2.479  23.769  0.00  0.00    +0.137 C 
ATOM     17  C   UNL     1      -1.138   3.300  26.307  0.00  0.00    +0.179 C 
ATOM     18  C   UNL     1      -0.729   3.852  24.045  0.00  0.00    +0.179 C 
ENDROOT
BRANCH  10   2
ATOM      2  O   UNL     1      -4.213   0.564  24.351  0.00  0.00    -0.364 OA
BRANCH   2  19
ATOM     19  C   UNL     1      -5.477   1.062  24.757  0.00  0.00    +0.256 C 
BRANCH  19  20
ATOM      5  O   UNL     1      -5.846   2.584  26.534  0.00  0.00    -0.273 OA
ATOM      8  N   UNL     1      -4.518   3.357  24.794  0.00  0.00    -0.306 N 
ATOM     20  C   UNL     1      -5.302   2.401  25.442  0.00  0.00    +0.241 C 
ATOM     21  C   UNL     1      -4.312   4.658  25.419  0.00  0.00    +0.131 C 
ATOM     22  C   UNL     1      -3.844   3.171  23.511  0.00  0.00    +0.131 C 
ENDBRANCH  19  20
ENDBRANCH   2  19
ENDBRANCH  10   2
TORSDOF 3
ENDMDL
MODEL 2
REMARK VINA RESULT:      -3.8      1.647      3.809
REMARK  Name = 75367816
REMARK  5 active torsions:
REMARK  status: ('A' for Active; 'I' for Inactive)
REMARK    1  A    between atoms: O_2  and  C_10
REMARK    2  A    between atoms: O_2  and  C_19
REMARK    3  A    between atoms: N_8  and  C_21
REMARK    4  A    between atoms: N_8  and  C_22
REMARK    5  A    between atoms: C_19  and  C_20
REMARK                            x       y       z     vdW  Elec       q    Type
REMARK                         _______ _______ _______ _____ _____    ______ ____
ROOT
ATOM      1  O   UNL     1      -1.377  -2.547  24.847  0.00  0.00    -0.376 OA
ATOM      3  O   UNL     1      -4.659   4.405  24.517  0.00  0.00    -0.377 OA
ATOM      4  O   UNL     1      -4.729  -0.359  25.906  0.00  0.00    -0.252 OA
ATOM      6  N   UNL     1      -3.253  -0.394  24.127  0.00  0.00    -0.281 N 
ATOM      7  N   UNL     1      -4.322   1.626  24.815  0.00  0.00    -0.281 N 
ATOM      9  C   UNL     1      -1.922   0.127  23.779  0.00  0.00    +0.143 C 
ATOM     10  C   UNL     1      -0.863  -0.143  24.854  0.00  0.00    +0.162 C 
ATOM     11  C   UNL     1      -3.470  -1.809  23.818  0.00  0.00    +0.137 C 
ATOM     12  C   UNL     1      -1.007  -1.436  25.654  0.00  0.00    +0.193 C 
ATOM     13  C   UNL     1      -4.146   0.251  25.001  0.00  0.00    +0.305 C 
ATOM     14  C   UNL     1      -2.789  -2.750  24.803  0.00  0.00    +0.179 C 
ATOM     15  C   UNL     1      -4.219   2.257  23.495  0.00  0.00    +0.137 C 
ATOM     16  C   UNL     1      -5.142   2.377  25.761  0.00  0.00    +0.137 C 
ATOM     17  C   UNL     1      -3.768   3.702  23.642  0.00  0.00    +0.179 C 
ATOM     18  C   UNL     1      -4.669   3.824  25.824  0.00  0.00    +0.179 C 
ENDROOT
BRANCH  10   2
ATOM      2  O   UNL     1      -0.823   0.952  25.771  0.00  0.00    -0.364 OA
BRANCH   2  19
ATOM     19  C   UNL     1      -0.175   2.076  25.200  0.00  0.00    +0.256 C 
BRANCH  19  20
ATOM      5  O   UNL     1      -1.578   3.338  26.632  0.00  0.00    -0.273 OA
ATOM      8  N   UNL     1      -0.769   4.452  24.763  0.00  0.00    -0.306 N 
ATOM     20  C   UNL     1      -0.907   3.342  25.596  0.00  0.00    +0.241 C 
ATOM     21  C   UNL     1      -1.446   5.696  25.108  0.00  0.00    +0.131 C 
ATOM     22  C   UNL     1       0.030   4.499  23.540  0.00  0.00    +0.131 C 
ENDBRANCH  19  20
ENDBRANCH   2  19
ENDBRANCH  10   2
TORSDOF 3
ENDMDL
MODEL 3
REMARK VINA RESULT:      -3.4      1.783      4.045
REMARK  Name = 75367816
REMARK  5 active torsions:
REMARK  status: ('A' for Active; 'I' for Inactive)
REMARK    1  A    between atoms: O_2  and  C_10
REMARK    2  A    between atoms: O_2  and  C_19
REMARK    3  A    between atoms: N_8  and  C_21
REMARK    4  A    between atoms: N_8  and  C_22
REMARK    5  A    between atoms: C_19  and  C_20
REMARK                            x       y       z     vdW  Elec       q    Type
REMARK                         _______ _______ _______ _____ _____    ______ ____
ROOT
ATOM      1  O   UNL     1       0.656  -0.879  24.106  0.00  0.00    -0.376 OA
ATOM      3  O   UNL     1      -4.456   4.588  25.894  0.00  0.00    -0.377 OA
ATOM      4  O   UNL     1      -1.978   1.903  22.534  0.00  0.00    -0.252 OA
ATOM      6  N   UNL     1      -0.588   1.776  24.378  0.00  0.00    -0.281 N 
ATOM      7  N   UNL     1      -2.623   3.023  24.439  0.00  0.00    -0.281 N 
ATOM      9  C   UNL     1      -0.595   1.211  25.736  0.00  0.00    +0.143 C 
ATOM     10  C   UNL     1      -1.033  -0.258  25.781  0.00  0.00    +0.162 C 
ATOM     11  C   UNL     1       0.624   1.514  23.598  0.00  0.00    +0.137 C 
ATOM     12  C   UNL     1      -0.662  -1.125  24.580  0.00  0.00    +0.193 C 
ATOM     13  C   UNL     1      -1.741   2.221  23.706  0.00  0.00    +0.305 C 
ATOM     14  C   UNL     1       0.694   0.090  23.060  0.00  0.00    +0.179 C 
ATOM     15  C   UNL     1      -2.163   3.927  25.499  0.00  0.00    +0.137 C 
ATOM     16  C   UNL     1      -3.893   3.421  23.840  0.00  0.00    +0.137 C 
ATOM     17  C   UNL     1      -3.262   4.119  26.532  0.00  0.00    +0.179 C 
ATOM     18  C   UNL     1      -4.934   3.644  24.930  0.00  0.00    +0.179 C 
ENDROOT
BRANCH  10   2
ATOM      2  O   UNL     1      -2.447  -0.329  25.968  0.00  0.00    -0.364 OA
BRANCH   2  19
ATOM     19  C   UNL     1      -2.843  -1.620  26.403  0.00  0.00    +0.256 C 
BRANCH  19  20
ATOM      5  O   UNL     1      -3.226  -3.607  25.171  0.00  0.00    -0.273 OA
ATOM      8  N   UNL     1      -4.184  -1.676  24.308  0.00  0.00    -0.306 N 
ATOM     20  C   UNL     1      -3.430  -2.391  25.239  0.00  0.00    +0.241 C 
ATOM     21  C   UNL     1      -4.778  -2.376  23.176  0.00  0.00    +0.131 C 
ATOM     22  C   UNL     1      -4.462  -0.242  24.366  0.00  0.00    +0.131 C 
ENDBRANCH  19  20
ENDBRANCH   2  19
ENDBRANCH  10   2
TORSDOF 3
ENDMDL
MODEL 4
REMARK VINA RESULT:      -3.2      1.969      5.972
REMARK  Name = 75367816
REMARK  5 active torsions:
REMARK  status: ('A' for Active; 'I' for Inactive)
REMARK    1  A    between atoms: O_2  and  C_10
REMARK    2  A    between atoms: O_2  and  C_19
REMARK    3  A    between atoms: N_8  and  C_21
REMARK    4  A    between atoms: N_8  and  C_22
REMARK    5  A    between atoms: C_19  and  C_20
REMARK                            x       y       z     vdW  Elec       q    Type
REMARK                         _______ _______ _______ _____ _____    ______ ____
ROOT
ATOM      1  O   UNL     1      -1.524   4.898  24.909  0.00  0.00    -0.376 OA
ATOM      3  O   UNL     1      -3.594  -2.506  25.268  0.00  0.00    -0.377 OA
ATOM      4  O   UNL     1      -3.346   1.812  22.833  0.00  0.00    -0.252 OA
ATOM      6  N   UNL     1      -3.218   2.492  25.039  0.00  0.00    -0.281 N 
ATOM      7  N   UNL     1      -3.449   0.187  24.460  0.00  0.00    -0.281 N 
ATOM      9  C   UNL     1      -2.302   2.376  26.185  0.00  0.00    +0.143 C 
ATOM     10  C   UNL     1      -0.849   2.724  25.838  0.00  0.00    +0.162 C 
ATOM     11  C   UNL     1      -3.727   3.840  24.780  0.00  0.00    +0.137 C 
ATOM     12  C   UNL     1      -0.632   3.798  24.775  0.00  0.00    +0.193 C 
ATOM     13  C   UNL     1      -3.347   1.516  24.034  0.00  0.00    +0.305 C 
ATOM     14  C   UNL     1      -2.702   4.751  24.116  0.00  0.00    +0.179 C 
ATOM     15  C   UNL     1      -4.077  -0.181  25.734  0.00  0.00    +0.137 C 
ATOM     16  C   UNL     1      -3.466  -0.883  23.467  0.00  0.00    +0.137 C 
ATOM     17  C   UNL     1      -3.473  -1.475  26.256  0.00  0.00    +0.179 C 
ATOM     18  C   UNL     1      -2.894  -2.160  24.069  0.00  0.00    +0.179 C 
ENDROOT
BRANCH  10   2
ATOM      2  O   UNL     1      -0.158   1.542  25.431  0.00  0.00    -0.364 OA
BRANCH   2  19
ATOM     19  C   UNL     1       0.766   1.820  24.392  0.00  0.00    +0.256 C 
BRANCH  19  20
ATOM      5  O   UNL     1      -0.403   0.205  23.112  0.00  0.00    -0.273 OA
ATOM      8  N   UNL     1       1.868   0.400  22.672  0.00  0.00    -0.306 N 
ATOM     20  C   UNL     1       0.689   0.734  23.338  0.00  0.00    +0.241 C 
ATOM     21  C   UNL     1       1.843  -0.631  21.643  0.00  0.00    +0.131 C 
ATOM     22  C   UNL     1       3.174   1.017  22.901  0.00  0.00    +0.131 C 
ENDBRANCH  19  20
ENDBRANCH   2  19
ENDBRANCH  10   2
TORSDOF 3
ENDMDL
MODEL 5
REMARK VINA RESULT:      -3.1     15.135     17.909
REMARK  Name = 75367816
REMARK  5 active torsions:
REMARK  status: ('A' for Active; 'I' for Inactive)
REMARK    1  A    between atoms: O_2  and  C_10
REMARK    2  A    between atoms: O_2  and  C_19
REMARK    3  A    between atoms: N_8  and  C_21
REMARK    4  A    between atoms: N_8  and  C_22
REMARK    5  A    between atoms: C_19  and  C_20
REMARK                            x       y       z     vdW  Elec       q    Type
REMARK                         _______ _______ _______ _____ _____    ______ ____
ROOT
ATOM      1  O   UNL     1      10.789   8.388  17.379  0.00  0.00    -0.376 OA
ATOM      3  O   UNL     1      17.014   7.107  21.718  0.00  0.00    -0.377 OA
ATOM      4  O   UNL     1      14.856   9.093  17.714  0.00  0.00    -0.252 OA
ATOM      6  N   UNL     1      13.413   7.362  18.234  0.00  0.00    -0.281 N 
ATOM      7  N   UNL     1      15.385   7.766  19.518  0.00  0.00    -0.281 N 
ATOM      9  C   UNL     1      12.485   6.976  19.308  0.00  0.00    +0.143 C 
ATOM     10  C   UNL     1      11.519   8.098  19.708  0.00  0.00    +0.162 C 
ATOM     11  C   UNL     1      12.885   7.233  16.874  0.00  0.00    +0.137 C 
ATOM     12  C   UNL     1      11.075   9.053  18.603  0.00  0.00    +0.193 C 
ATOM     13  C   UNL     1      14.575   8.130  18.437  0.00  0.00    +0.305 C 
ATOM     14  C   UNL     1      11.913   8.344  16.500  0.00  0.00    +0.179 C 
ATOM     15  C   UNL     1      15.499   6.378  19.979  0.00  0.00    +0.137 C 
ATOM     16  C   UNL     1      16.541   8.591  19.856  0.00  0.00    +0.137 C 
ATOM     17  C   UNL     1      15.826   6.348  21.464  0.00  0.00    +0.179 C 
ATOM     18  C   UNL     1      16.843   8.478  21.345  0.00  0.00    +0.179 C 
ENDROOT
BRANCH  10   2
ATOM      2  O   UNL     1      12.094   8.868  20.766  0.00  0.00    -0.364 OA
BRANCH   2  19
ATOM     19  C   UNL     1      12.041   8.167  21.997  0.00  0.00    +0.256 C 
BRANCH  19  20
ATOM      5  O   UNL     1       9.885   8.833  22.719  0.00  0.00    -0.273 OA
ATOM      8  N   UNL     1      10.152   6.572  22.270  0.00  0.00    -0.306 N 
ATOM     20  C   UNL     1      10.597   7.890  22.364  0.00  0.00    +0.241 C 
ATOM     21  C   UNL     1       8.768   6.256  22.603  0.00  0.00    +0.131 C 
ATOM     22  C   UNL     1      10.960   5.433  21.837  0.00  0.00    +0.131 C 
ENDBRANCH  19  20
ENDBRANCH   2  19
ENDBRANCH  10   2
TORSDOF 3
ENDMDL
MODEL 6
REMARK VINA RESULT:      -2.9      1.429      4.826
REMARK  Name = 75367816
REMARK  5 active torsions:
REMARK  status: ('A' for Active; 'I' for Inactive)
REMARK    1  A    between atoms: O_2  and  C_10
REMARK    2  A    between atoms: O_2  and  C_19
REMARK    3  A    between atoms: N_8  and  C_21
REMARK    4  A    between atoms: N_8  and  C_22
REMARK    5  A    between atoms: C_19  and  C_20
REMARK                            x       y       z     vdW  Elec       q    Type
REMARK                         _______ _______ _______ _____ _____    ______ ____
ROOT
ATOM      1  O   UNL     1      -6.484   2.530  25.334  0.00  0.00    -0.376 OA
ATOM      3  O   UNL     1       1.127   1.858  24.419  0.00  0.00    -0.377 OA
ATOM      4  O   UNL     1      -2.816   4.132  26.396  0.00  0.00    -0.252 OA
ATOM      6  N   UNL     1      -3.722   3.139  24.515  0.00  0.00    -0.281 N 
ATOM      7  N   UNL     1      -1.401   2.933  25.034  0.00  0.00    -0.281 N 
ATOM      9  C   UNL     1      -3.986   1.791  23.990  0.00  0.00    +0.143 C 
ATOM     10  C   UNL     1      -4.696   0.877  24.995  0.00  0.00    +0.162 C 
ATOM     11  C   UNL     1      -4.837   4.083  24.406  0.00  0.00    +0.137 C 
ATOM     12  C   UNL     1      -5.675   1.541  25.960  0.00  0.00    +0.193 C 
ATOM     13  C   UNL     1      -2.654   3.453  25.375  0.00  0.00    +0.305 C 
ATOM     14  C   UNL     1      -5.930   3.841  25.439  0.00  0.00    +0.179 C 
ATOM     15  C   UNL     1      -0.998   2.710  23.641  0.00  0.00    +0.137 C 
ATOM     16  C   UNL     1      -0.276   3.121  25.945  0.00  0.00    +0.137 C 
ATOM     17  C   UNL     1       0.011   1.576  23.566  0.00  0.00    +0.179 C 
ATOM     18  C   UNL     1       0.719   1.979  25.785  0.00  0.00    +0.179 C 
ENDROOT
BRANCH  10   2
ATOM      2  O   UNL     1      -3.724   0.162  25.761  0.00  0.00    -0.364 OA
BRANCH   2  19
ATOM     19  C   UNL     1      -4.058  -1.213  25.858  0.00  0.00    +0.256 C 
BRANCH  19  20
ATOM      5  O   UNL     1      -3.970  -2.636  23.966  0.00  0.00    -0.273 OA
ATOM      8  N   UNL     1      -1.923  -1.932  24.803  0.00  0.00    -0.306 N 
ATOM     20  C   UNL     1      -3.316  -1.993  24.792  0.00  0.00    +0.241 C 
ATOM     21  C   UNL     1      -1.164  -2.658  23.792  0.00  0.00    +0.131 C 
ATOM     22  C   UNL     1      -1.115  -1.169  25.754  0.00  0.00    +0.131 C 
ENDBRANCH  19  20
ENDBRANCH   2  19
ENDBRANCH  10   2
TORSDOF 3
ENDMDL
MODEL 7
REMARK VINA RESULT:      -2.7      1.980      5.653
REMARK  Name = 75367816
REMARK  5 active torsions:
REMARK  status: ('A' for Active; 'I' for Inactive)
REMARK    1  A    between atoms: O_2  and  C_10
REMARK    2  A    between atoms: O_2  and  C_19
REMARK    3  A    between atoms: N_8  and  C_21
REMARK    4  A    between atoms: N_8  and  C_22
REMARK    5  A    between atoms: C_19  and  C_20
REMARK                            x       y       z     vdW  Elec       q    Type
REMARK                         _______ _______ _______ _____ _____    ______ ____
ROOT
ATOM      1  O   UNL     1      -3.989   4.160  24.221  0.00  0.00    -0.376 OA
ATOM      3  O   UNL     1      -1.213  -2.948  25.216  0.00  0.00    -0.377 OA
ATOM      4  O   UNL     1      -4.981   0.139  24.264  0.00  0.00    -0.252 OA
ATOM      6  N   UNL     1      -3.509   1.508  25.408  0.00  0.00    -0.281 N 
ATOM      7  N   UNL     1      -3.011  -0.792  25.005  0.00  0.00    -0.281 N 
ATOM      9  C   UNL     1      -2.172   2.093  25.230  0.00  0.00    +0.143 C 
ATOM     10  C   UNL     1      -1.985   2.780  23.872  0.00  0.00    +0.162 C 
ATOM     11  C   UNL     1      -4.543   2.438  25.869  0.00  0.00    +0.137 C 
ATOM     12  C   UNL     1      -3.214   3.450  23.262  0.00  0.00    +0.193 C 
ATOM     13  C   UNL     1      -3.906   0.273  24.862  0.00  0.00    +0.305 C 
ATOM     14  C   UNL     1      -5.043   3.369  24.772  0.00  0.00    +0.179 C 
ATOM     15  C   UNL     1      -2.113  -0.911  26.160  0.00  0.00    +0.137 C 
ATOM     16  C   UNL     1      -3.307  -2.067  24.360  0.00  0.00    +0.137 C 
ATOM     17  C   UNL     1      -0.858  -1.674  25.766  0.00  0.00    +0.179 C 
ATOM     18  C   UNL     1      -2.011  -2.800  24.038  0.00  0.00    +0.179 C 
ENDROOT
BRANCH  10   2
ATOM      2  O   UNL     1      -1.471   1.839  22.928  0.00  0.00    -0.364 OA
BRANCH   2  19
ATOM     19  C   UNL     1      -0.719   0.824  23.573  0.00  0.00    +0.256 C 
BRANCH  19  20
ATOM      5  O   UNL     1       1.072   2.148  24.379  0.00  0.00    -0.273 OA
ATOM      8  N   UNL     1       1.633   0.522  22.821  0.00  0.00    -0.306 N 
ATOM     20  C   UNL     1       0.740   1.228  23.627  0.00  0.00    +0.241 C 
ATOM     21  C   UNL     1       3.049   0.867  22.846  0.00  0.00    +0.131 C 
ATOM     22  C   UNL     1       1.280  -0.584  21.932  0.00  0.00    +0.131 C 
ENDBRANCH  19  20
ENDBRANCH   2  19
ENDBRANCH  10   2
TORSDOF 3
ENDMDL
MODEL 8
REMARK VINA RESULT:      -2.7     18.111     20.219
REMARK  Name = 75367816
REMARK  5 active torsions:
REMARK  status: ('A' for Active; 'I' for Inactive)
REMARK    1  A    between atoms: O_2  and  C_10
REMARK    2  A    between atoms: O_2  and  C_19
REMARK    3  A    between atoms: N_8  and  C_21
REMARK    4  A    between atoms: N_8  and  C_22
REMARK    5  A    between atoms: C_19  and  C_20
REMARK                            x       y       z     vdW  Elec       q    Type
REMARK                         _______ _______ _______ _____ _____    ______ ____
ROOT
ATOM      1  O   UNL     1      10.218  -8.590  32.685  0.00  0.00    -0.376 OA
ATOM      3  O   UNL     1      17.405  -9.279  30.023  0.00  0.00    -0.377 OA
ATOM      4  O   UNL     1      12.604 -10.531  29.911  0.00  0.00    -0.252 OA
ATOM      6  N   UNL     1      12.853  -9.756  32.076  0.00  0.00    -0.281 N 
ATOM      7  N   UNL     1      14.696  -9.824  30.560  0.00  0.00    -0.281 N 
ATOM      9  C   UNL     1      13.146  -8.496  32.777  0.00  0.00    +0.143 C 
ATOM     10  C   UNL     1      12.287  -7.320  32.297  0.00  0.00    +0.162 C 
ATOM     11  C   UNL     1      11.721 -10.519  32.608  0.00  0.00    +0.137 C 
ATOM     12  C   UNL     1      10.866  -7.644  31.843  0.00  0.00    +0.193 C 
ATOM     13  C   UNL     1      13.340 -10.075  30.795  0.00  0.00    +0.305 C 
ATOM     14  C   UNL     1      10.369  -9.932  32.224  0.00  0.00    +0.179 C 
ATOM     15  C   UNL     1      15.705  -9.914  31.622  0.00  0.00    +0.137 C 
ATOM     16  C   UNL     1      15.238 -10.021  29.219  0.00  0.00    +0.137 C 
ATOM     17  C   UNL     1      16.866  -8.982  31.317  0.00  0.00    +0.179 C 
ATOM     18  C   UNL     1      16.426  -9.093  28.998  0.00  0.00    +0.179 C 
ENDROOT
BRANCH  10   2
ATOM      2  O   UNL     1      12.956  -6.642  31.233  0.00  0.00    -0.364 OA
BRANCH   2  19
ATOM     19  C   UNL     1      14.321  -6.419  31.545  0.00  0.00    +0.256 C 
BRANCH  19  20
ATOM      5  O   UNL     1      13.926  -4.161  32.142  0.00  0.00    -0.273 OA
ATOM      8  N   UNL     1      15.689  -4.532  30.678  0.00  0.00    -0.306 N 
ATOM     20  C   UNL     1      14.624  -4.936  31.481  0.00  0.00    +0.241 C 
ATOM     21  C   UNL     1      16.026  -3.116  30.592  0.00  0.00    +0.131 C 
ATOM     22  C   UNL     1      16.547  -5.421  29.897  0.00  0.00    +0.131 C 
ENDBRANCH  19  20
ENDBRANCH   2  19
ENDBRANCH  10   2
TORSDOF 3
ENDMDL
MODEL 9
REMARK VINA RESULT:      -2.2      1.644      5.306
REMARK  Name = 75367816
REMARK  5 active torsions:
REMARK  status: ('A' for Active; 'I' for Inactive)
REMARK    1  A    between atoms: O_2  and  C_10
REMARK    2  A    between atoms: O_2  and  C_19
REMARK    3  A    between atoms: N_8  and  C_21
REMARK    4  A    between atoms: N_8  and  C_22
REMARK    5  A    between atoms: C_19  and  C_20
REMARK                            x       y       z     vdW  Elec       q    Type
REMARK                         _______ _______ _______ _____ _____    ______ ____
ROOT
ATOM      1  O   UNL     1       0.956   2.621  24.419  0.00  0.00    -0.376 OA
ATOM      3  O   UNL     1      -6.552   2.246  26.064  0.00  0.00    -0.377 OA
ATOM      4  O   UNL     1      -2.854   2.913  22.822  0.00  0.00    -0.252 OA
ATOM      6  N   UNL     1      -1.841   3.447  24.831  0.00  0.00    -0.281 N 
ATOM      7  N   UNL     1      -4.139   2.811  24.729  0.00  0.00    -0.281 N 
ATOM      9  C   UNL     1      -1.449   2.789  26.086  0.00  0.00    +0.143 C 
ATOM     10  C   UNL     1      -0.670   1.485  25.870  0.00  0.00    +0.162 C 
ATOM     11  C   UNL     1      -0.814   4.299  24.225  0.00  0.00    +0.137 C 
ATOM     12  C   UNL     1       0.233   1.416  24.642  0.00  0.00    +0.193 C 
ATOM     13  C   UNL     1      -2.942   3.057  24.048  0.00  0.00    +0.305 C 
ATOM     14  C   UNL     1       0.284   3.509  23.525  0.00  0.00    +0.179 C 
ATOM     15  C   UNL     1      -4.504   3.527  25.956  0.00  0.00    +0.137 C 
ATOM     16  C   UNL     1      -5.287   2.289  23.992  0.00  0.00    +0.137 C 
ATOM     17  C   UNL     1      -5.405   2.658  26.818  0.00  0.00    +0.179 C 
ATOM     18  C   UNL     1      -6.172   1.470  24.923  0.00  0.00    +0.179 C 
ENDROOT
BRANCH  10   2
ATOM      2  O   UNL     1      -1.582   0.386  25.820  0.00  0.00    -0.364 OA
BRANCH   2  19
ATOM     19  C   UNL     1      -1.579  -0.225  24.541  0.00  0.00    +0.256 C 
BRANCH  19  20
ATOM      5  O   UNL     1      -1.005  -2.461  25.073  0.00  0.00    -0.273 OA
ATOM      8  N   UNL     1      -3.187  -2.114  24.361  0.00  0.00    -0.306 N 
ATOM     20  C   UNL     1      -1.894  -1.700  24.680  0.00  0.00    +0.241 C 
ATOM     21  C   UNL     1      -3.542  -3.522  24.489  0.00  0.00    +0.131 C 
ATOM     22  C   UNL     1      -4.270  -1.241  23.911  0.00  0.00    +0.131 C 
ENDBRANCH  19  20
ENDBRANCH   2  19
ENDBRANCH  10   2
TORSDOF 3
ENDMDL
MODEL 10
REMARK VINA RESULT:      -2.1      1.627      4.769
REMARK  Name = 75367816
REMARK  5 active torsions:
REMARK  status: ('A' for Active; 'I' for Inactive)
REMARK    1  A    between atoms: O_2  and  C_10
REMARK    2  A    between atoms: O_2  and  C_19
REMARK    3  A    between atoms: N_8  and  C_21
REMARK    4  A    between atoms: N_8  and  C_22
REMARK    5  A    between atoms: C_19  and  C_20
REMARK                            x       y       z     vdW  Elec       q    Type
REMARK                         _______ _______ _______ _____ _____    ______ ____
ROOT
ATOM      1  O   UNL     1      -4.473   4.185  25.445  0.00  0.00    -0.376 OA
ATOM      3  O   UNL     1       0.817  -0.899  23.125  0.00  0.00    -0.377 OA
ATOM      4  O   UNL     1      -1.239   1.906  26.667  0.00  0.00    -0.252 OA
ATOM      6  N   UNL     1      -1.861   3.024  24.740  0.00  0.00    -0.281 N 
ATOM      7  N   UNL     1      -0.518   1.052  24.655  0.00  0.00    -0.281 N 
ATOM      9  C   UNL     1      -2.706   2.808  23.556  0.00  0.00    +0.143 C 
ATOM     10  C   UNL     1      -4.115   2.309  23.898  0.00  0.00    +0.162 C 
ATOM     11  C   UNL     1      -2.031   4.319  25.402  0.00  0.00    +0.137 C 
ATOM     12  C   UNL     1      -4.724   2.805  25.207  0.00  0.00    +0.193 C 
ATOM     13  C   UNL     1      -1.200   1.993  25.433  0.00  0.00    +0.305 C 
ATOM     14  C   UNL     1      -3.304   4.405  26.234  0.00  0.00    +0.179 C 
ATOM     15  C   UNL     1       0.099   1.398  23.369  0.00  0.00    +0.137 C 
ATOM     16  C   UNL     1       0.088  -0.108  25.302  0.00  0.00    +0.137 C 
ATOM     17  C   UNL     1       0.138   0.176  22.465  0.00  0.00    +0.179 C 
ATOM     18  C   UNL     1       0.141  -1.278  24.328  0.00  0.00    +0.179 C 
ENDROOT
BRANCH  10   2
ATOM      2  O   UNL     1      -4.126   0.880  23.909  0.00  0.00    -0.364 OA
BRANCH   2  19
ATOM     19  C   UNL     1      -4.497   0.381  25.183  0.00  0.00    +0.256 C 
BRANCH  19  20
ATOM      5  O   UNL     1      -2.957  -0.832  26.513  0.00  0.00    -0.273 OA
ATOM      8  N   UNL     1      -3.783  -1.941  24.648  0.00  0.00    -0.306 N 
ATOM     20  C   UNL     1      -3.674  -0.848  25.508  0.00  0.00    +0.241 C 
ATOM     21  C   UNL     1      -3.018  -3.151  24.925  0.00  0.00    +0.131 C 
ATOM     22  C   UNL     1      -4.633  -2.004  23.461  0.00  0.00    +0.131 C 
ENDBRANCH  19  20
ENDBRANCH   2  19
ENDBRANCH  10   2
TORSDOF 3
ENDMDL
