MODEL 1
REMARK VINA RESULT:       0.4      0.000      0.000
REMARK  Name = 7049366
REMARK  8 active torsions:
REMARK  status: ('A' for Active; 'I' for Inactive)
REMARK    1  A    between atoms: O_2  and  C_11
REMARK    2  A    between atoms: O_3  and  C_13
REMARK    3  A    between atoms: N_7  and  C_12
REMARK    4  A    between atoms: N_8  and  C_19
REMARK    5  A    between atoms: N_9  and  C_22
REMARK    6  A    between atoms: C_15  and  C_17
REMARK    7  A    between atoms: C_19  and  C_20
REMARK    8  A    between atoms: C_19  and  C_21
REMARK                            x       y       z     vdW  Elec       q    Type
REMARK                         _______ _______ _______ _____ _____    ______ ____
ROOT
ATOM     11  C   UNL     1      -2.574  -2.317  24.731  0.00  0.00    +0.167 C 
ATOM     12  C   UNL     1      -1.655  -1.484  23.816  0.00  0.00    +0.129 C 
ATOM     13  C   UNL     1      -4.054  -2.009  24.471  0.00  0.00    +0.149 C 
ATOM     14  C   UNL     1      -4.367  -0.510  24.623  0.00  0.00    +0.074 C 
ATOM     15  C   UNL     1      -3.286   0.383  24.086  0.00  0.00    +0.015 C 
ATOM     16  C   UNL     1      -2.069  -0.041  23.713  0.00  0.00    +0.006 C 
ENDROOT
BRANCH  12   7
ATOM      5  O   UNL     1       0.610  -0.344  22.484  0.00  0.00    -0.252 OA
ATOM      7  N   UNL     1      -0.280  -1.544  24.248  0.00  0.00    -0.290 N 
ATOM      9  N   UNL     1       1.987  -1.177  24.193  0.00  0.00    -0.268 N 
ATOM     18  C   UNL     1       0.773  -0.957  23.536  0.00  0.00    +0.304 C 
ATOM     28  H   UNL     1      -0.055  -2.082  25.081  0.00  0.00    +0.151 HD
ATOM     32  H   UNL     1       1.951  -1.708  25.060  0.00  0.00    +0.156 HD
BRANCH   9  22
ATOM      1 BR   UNL     1       2.106   1.815  23.178  0.00  0.00    -0.048 Br
ATOM     22  C   UNL     1       3.277  -0.749  23.800  0.00  0.00    +0.049 A 
ATOM     23  C   UNL     1       3.506   0.542  23.327  0.00  0.00    +0.039 A 
ATOM     24  C   UNL     1       4.333  -1.656  23.895  0.00  0.00    +0.024 A 
ATOM     25  C   UNL     1       4.792   0.928  22.948  0.00  0.00    +0.017 A 
ATOM     26  C   UNL     1       5.619  -1.270  23.516  0.00  0.00    +0.002 A 
ATOM     27  C   UNL     1       5.848   0.022  23.042  0.00  0.00    +0.001 A 
ENDBRANCH   9  22
ENDBRANCH  12   7
BRANCH  15  17
ATOM      4  O   UNL     1      -3.556   2.351  22.832  0.00  0.00    -0.271 OA
ATOM      8  N   UNL     1      -3.868   2.432  25.141  0.00  0.00    -0.301 N 
ATOM     17  C   UNL     1      -3.580   1.811  23.938  0.00  0.00    +0.240 C 
ATOM     31  H   UNL     1      -3.855   1.885  25.999  0.00  0.00    +0.150 HD
BRANCH   8  19
ATOM     19  C   UNL     1      -4.187   3.837  25.249  0.00  0.00    +0.156 C 
ATOM     20  C   UNL     1      -3.219   4.547  26.181  0.00  0.00    +0.038 C 
BRANCH  19  21
ATOM      6  O   UNL     1      -6.271   5.003  25.690  0.00  0.00    -0.274 OA
ATOM     10  N   UNL     1      -6.124   2.775  26.230  0.00  0.00    -0.328 N 
ATOM     21  C   UNL     1      -5.618   3.963  25.747  0.00  0.00    +0.231 C 
ATOM     33  H   UNL     1      -7.074   2.719  26.582  0.00  0.00    +0.145 HD
ATOM     34  H   UNL     1      -5.579   1.919  26.252  0.00  0.00    +0.145 HD
ENDBRANCH  19  21
ENDBRANCH   8  19
ENDBRANCH  15  17
BRANCH  11   2
ATOM      2  O   UNL     1      -2.278  -2.031  26.098  0.00  0.00    -0.387 OA
ATOM     29  H   UNL     1      -1.628  -2.688  26.401  0.00  0.00    +0.210 HD
ENDBRANCH  11   2
BRANCH  13   3
ATOM      3  O   UNL     1      -4.428  -2.457  23.170  0.00  0.00    -0.389 OA
ATOM     30  H   UNL     1      -5.041  -1.800  22.797  0.00  0.00    +0.210 HD
ENDBRANCH  13   3
TORSDOF 7
ENDMDL
MODEL 2
REMARK VINA RESULT:       0.5      1.365      1.804
REMARK  Name = 7049366
REMARK  8 active torsions:
REMARK  status: ('A' for Active; 'I' for Inactive)
REMARK    1  A    between atoms: O_2  and  C_11
REMARK    2  A    between atoms: O_3  and  C_13
REMARK    3  A    between atoms: N_7  and  C_12
REMARK    4  A    between atoms: N_8  and  C_19
REMARK    5  A    between atoms: N_9  and  C_22
REMARK    6  A    between atoms: C_15  and  C_17
REMARK    7  A    between atoms: C_19  and  C_20
REMARK    8  A    between atoms: C_19  and  C_21
REMARK                            x       y       z     vdW  Elec       q    Type
REMARK                         _______ _______ _______ _____ _____    ______ ____
ROOT
ATOM     11  C   UNL     1      -2.637  -2.538  24.514  0.00  0.00    +0.167 C 
ATOM     12  C   UNL     1      -1.798  -1.412  23.878  0.00  0.00    +0.129 C 
ATOM     13  C   UNL     1      -4.140  -2.293  24.328  0.00  0.00    +0.149 C 
ATOM     14  C   UNL     1      -4.576  -0.926  24.882  0.00  0.00    +0.074 C 
ATOM     15  C   UNL     1      -3.578   0.167  24.628  0.00  0.00    +0.015 C 
ATOM     16  C   UNL     1      -2.332  -0.036  24.170  0.00  0.00    +0.006 C 
ENDROOT
BRANCH  12   7
ATOM      5  O   UNL     1       0.460  -0.305  22.507  0.00  0.00    -0.252 OA
ATOM      7  N   UNL     1      -0.420  -1.475  24.297  0.00  0.00    -0.290 N 
ATOM      9  N   UNL     1       1.848  -1.123  24.214  0.00  0.00    -0.268 N 
ATOM     18  C   UNL     1       0.629  -0.905  23.566  0.00  0.00    +0.304 C 
ATOM     28  H   UNL     1      -0.189  -2.002  25.135  0.00  0.00    +0.151 HD
ATOM     32  H   UNL     1       1.818  -1.641  25.088  0.00  0.00    +0.156 HD
BRANCH   9  22
ATOM      1 BR   UNL     1       1.982   1.863  23.184  0.00  0.00    -0.048 Br
ATOM     22  C   UNL     1       3.137  -0.709  23.802  0.00  0.00    +0.049 A 
ATOM     23  C   UNL     1       3.372   0.578  23.319  0.00  0.00    +0.039 A 
ATOM     24  C   UNL     1       4.186  -1.625  23.887  0.00  0.00    +0.024 A 
ATOM     25  C   UNL     1       4.656   0.950  22.922  0.00  0.00    +0.017 A 
ATOM     26  C   UNL     1       5.470  -1.253  23.488  0.00  0.00    +0.002 A 
ATOM     27  C   UNL     1       5.705   0.035  23.006  0.00  0.00    +0.001 A 
ENDBRANCH   9  22
ENDBRANCH  12   7
BRANCH  15  17
ATOM      4  O   UNL     1      -5.178   1.840  25.031  0.00  0.00    -0.271 OA
ATOM      8  N   UNL     1      -2.928   2.436  24.901  0.00  0.00    -0.301 N 
ATOM     17  C   UNL     1      -3.992   1.551  24.874  0.00  0.00    +0.240 C 
ATOM     31  H   UNL     1      -1.984   2.085  24.754  0.00  0.00    +0.150 HD
BRANCH   8  19
ATOM     19  C   UNL     1      -3.086   3.855  25.125  0.00  0.00    +0.156 C 
ATOM     20  C   UNL     1      -3.870   4.503  23.995  0.00  0.00    +0.038 C 
BRANCH  19  21
ATOM      6  O   UNL     1      -1.485   5.681  25.175  0.00  0.00    -0.274 OA
ATOM     10  N   UNL     1      -0.721   3.541  25.517  0.00  0.00    -0.328 N 
ATOM     21  C   UNL     1      -1.703   4.473  25.255  0.00  0.00    +0.231 C 
ATOM     33  H   UNL     1       0.245   3.823  25.639  0.00  0.00    +0.145 HD
ATOM     34  H   UNL     1      -0.920   2.549  25.600  0.00  0.00    +0.145 HD
ENDBRANCH  19  21
ENDBRANCH   8  19
ENDBRANCH  15  17
BRANCH  11   2
ATOM      2  O   UNL     1      -2.354  -2.616  25.912  0.00  0.00    -0.387 OA
ATOM     29  H   UNL     1      -1.557  -3.163  26.020  0.00  0.00    +0.210 HD
ENDBRANCH  11   2
BRANCH  13   3
ATOM      3  O   UNL     1      -4.486  -2.395  22.948  0.00  0.00    -0.389 OA
ATOM     30  H   UNL     1      -5.166  -1.723  22.765  0.00  0.00    +0.210 HD
ENDBRANCH  13   3
TORSDOF 7
ENDMDL
MODEL 3
REMARK VINA RESULT:       1.0      1.285      1.604
REMARK  Name = 7049366
REMARK  8 active torsions:
REMARK  status: ('A' for Active; 'I' for Inactive)
REMARK    1  A    between atoms: O_2  and  C_11
REMARK    2  A    between atoms: O_3  and  C_13
REMARK    3  A    between atoms: N_7  and  C_12
REMARK    4  A    between atoms: N_8  and  C_19
REMARK    5  A    between atoms: N_9  and  C_22
REMARK    6  A    between atoms: C_15  and  C_17
REMARK    7  A    between atoms: C_19  and  C_20
REMARK    8  A    between atoms: C_19  and  C_21
REMARK                            x       y       z     vdW  Elec       q    Type
REMARK                         _______ _______ _______ _____ _____    ______ ____
ROOT
ATOM     11  C   UNL     1      -1.920  -2.148  24.914  0.00  0.00    +0.167 C 
ATOM     12  C   UNL     1      -1.638  -1.531  23.530  0.00  0.00    +0.129 C 
ATOM     13  C   UNL     1      -3.325  -1.791  25.413  0.00  0.00    +0.149 C 
ATOM     14  C   UNL     1      -3.556  -0.270  25.450  0.00  0.00    +0.074 C 
ATOM     15  C   UNL     1      -2.941   0.456  24.288  0.00  0.00    +0.015 C 
ATOM     16  C   UNL     1      -2.087  -0.100  23.415  0.00  0.00    +0.006 C 
ENDROOT
BRANCH  12   7
ATOM      5  O   UNL     1       0.361   0.459  24.026  0.00  0.00    -0.252 OA
ATOM      7  N   UNL     1      -0.239  -1.610  23.187  0.00  0.00    -0.290 N 
ATOM      9  N   UNL     1       1.953  -0.944  23.023  0.00  0.00    -0.268 N 
ATOM     18  C   UNL     1       0.676  -0.588  23.467  0.00  0.00    +0.304 C 
ATOM     28  H   UNL     1       0.091  -2.422  22.673  0.00  0.00    +0.151 HD
ATOM     32  H   UNL     1       2.047  -1.853  22.577  0.00  0.00    +0.156 HD
BRANCH   9  22
ATOM      1 BR   UNL     1       4.418  -2.557  24.172  0.00  0.00    -0.048 Br
ATOM     22  C   UNL     1       3.146  -0.190  23.116  0.00  0.00    +0.049 A 
ATOM     23  C   UNL     1       4.327  -0.748  23.603  0.00  0.00    +0.039 A 
ATOM     24  C   UNL     1       3.121   1.143  22.707  0.00  0.00    +0.024 A 
ATOM     25  C   UNL     1       5.485   0.027  23.680  0.00  0.00    +0.017 A 
ATOM     26  C   UNL     1       4.278   1.919  22.785  0.00  0.00    +0.002 A 
ATOM     27  C   UNL     1       5.460   1.359  23.272  0.00  0.00    +0.001 A 
ENDBRANCH   9  22
ENDBRANCH  12   7
BRANCH  15  17
ATOM      4  O   UNL     1      -3.225   2.374  22.962  0.00  0.00    -0.271 OA
ATOM      8  N   UNL     1      -3.740   2.485  25.233  0.00  0.00    -0.301 N 
ATOM     17  C   UNL     1      -3.310   1.858  24.076  0.00  0.00    +0.240 C 
ATOM     31  H   UNL     1      -3.767   1.959  26.103  0.00  0.00    +0.150 HD
BRANCH   8  19
ATOM     19  C   UNL     1      -4.155   3.869  25.274  0.00  0.00    +0.156 C 
ATOM     20  C   UNL     1      -3.248   4.685  26.179  0.00  0.00    +0.038 C 
BRANCH  19  21
ATOM      6  O   UNL     1      -6.304   4.921  25.687  0.00  0.00    -0.274 OA
ATOM     10  N   UNL     1      -6.043   2.706  26.238  0.00  0.00    -0.328 N 
ATOM     21  C   UNL     1      -5.596   3.919  25.756  0.00  0.00    +0.231 C 
ATOM     33  H   UNL     1      -6.992   2.600  26.580  0.00  0.00    +0.145 HD
ATOM     34  H   UNL     1      -5.453   1.881  26.269  0.00  0.00    +0.145 HD
ENDBRANCH  19  21
ENDBRANCH   8  19
ENDBRANCH  15  17
BRANCH  11   2
ATOM      2  O   UNL     1      -0.961  -1.668  25.858  0.00  0.00    -0.387 OA
ATOM     29  H   UNL     1      -0.086  -1.982  25.572  0.00  0.00    +0.210 HD
ENDBRANCH  11   2
BRANCH  13   3
ATOM      3  O   UNL     1      -4.311  -2.415  24.594  0.00  0.00    -0.389 OA
ATOM     30  H   UNL     1      -5.048  -2.681  25.170  0.00  0.00    +0.210 HD
ENDBRANCH  13   3
TORSDOF 7
ENDMDL
MODEL 4
REMARK VINA RESULT:       1.3      2.144      4.763
REMARK  Name = 7049366
REMARK  8 active torsions:
REMARK  status: ('A' for Active; 'I' for Inactive)
REMARK    1  A    between atoms: O_2  and  C_11
REMARK    2  A    between atoms: O_3  and  C_13
REMARK    3  A    between atoms: N_7  and  C_12
REMARK    4  A    between atoms: N_8  and  C_19
REMARK    5  A    between atoms: N_9  and  C_22
REMARK    6  A    between atoms: C_15  and  C_17
REMARK    7  A    between atoms: C_19  and  C_20
REMARK    8  A    between atoms: C_19  and  C_21
REMARK                            x       y       z     vdW  Elec       q    Type
REMARK                         _______ _______ _______ _____ _____    ______ ____
ROOT
ATOM     11  C   UNL     1      -2.317   4.475  24.898  0.00  0.00    +0.167 C 
ATOM     12  C   UNL     1      -1.488   3.237  25.294  0.00  0.00    +0.129 C 
ATOM     13  C   UNL     1      -3.706   4.452  25.546  0.00  0.00    +0.149 C 
ATOM     14  C   UNL     1      -4.479   3.165  25.211  0.00  0.00    +0.074 C 
ATOM     15  C   UNL     1      -3.614   1.937  25.194  0.00  0.00    +0.015 C 
ATOM     16  C   UNL     1      -2.272   1.955  25.240  0.00  0.00    +0.006 C 
ENDROOT
BRANCH  12   7
ATOM      5  O   UNL     1       0.251   0.966  25.160  0.00  0.00    -0.252 OA
ATOM      7  N   UNL     1      -0.312   3.100  24.471  0.00  0.00    -0.290 N 
ATOM      9  N   UNL     1       1.552   2.104  23.572  0.00  0.00    -0.268 N 
ATOM     18  C   UNL     1       0.487   1.949  24.464  0.00  0.00    +0.304 C 
ATOM     28  H   UNL     1      -0.017   3.892  23.907  0.00  0.00    +0.151 HD
ATOM     32  H   UNL     1       1.607   2.985  23.069  0.00  0.00    +0.156 HD
BRANCH   9  22
ATOM      1 BR   UNL     1       0.522  -0.611  22.319  0.00  0.00    -0.048 Br
ATOM     22  C   UNL     1       2.578   1.175  23.277  0.00  0.00    +0.049 A 
ATOM     23  C   UNL     1       2.298  -0.072  22.721  0.00  0.00    +0.039 A 
ATOM     24  C   UNL     1       3.897   1.534  23.556  0.00  0.00    +0.024 A 
ATOM     25  C   UNL     1       3.336  -0.962  22.443  0.00  0.00    +0.017 A 
ATOM     26  C   UNL     1       4.935   0.644  23.280  0.00  0.00    +0.002 A 
ATOM     27  C   UNL     1       4.654  -0.604  22.723  0.00  0.00    +0.001 A 
ENDBRANCH   9  22
ENDBRANCH  12   7
BRANCH  15  17
ATOM      4  O   UNL     1      -5.466   0.530  24.866  0.00  0.00    -0.271 OA
ATOM      8  N   UNL     1      -3.417  -0.418  25.446  0.00  0.00    -0.301 N 
ATOM     17  C   UNL     1      -4.272   0.628  25.146  0.00  0.00    +0.240 C 
ATOM     31  H   UNL     1      -2.445  -0.218  25.668  0.00  0.00    +0.150 HD
BRANCH   8  19
ATOM     19  C   UNL     1      -3.837  -1.801  25.465  0.00  0.00    +0.156 C 
ATOM     20  C   UNL     1      -3.122  -2.574  26.561  0.00  0.00    +0.038 C 
BRANCH  19  21
ATOM      6  O   UNL     1      -4.408  -2.548  23.226  0.00  0.00    -0.274 OA
ATOM     10  N   UNL     1      -2.225  -2.728  23.920  0.00  0.00    -0.328 N 
ATOM     21  C   UNL     1      -3.554  -2.403  24.098  0.00  0.00    +0.231 C 
ATOM     33  H   UNL     1      -1.900  -3.127  23.046  0.00  0.00    +0.145 HD
ATOM     34  H   UNL     1      -1.527  -2.583  24.642  0.00  0.00    +0.145 HD
ENDBRANCH  19  21
ENDBRANCH   8  19
ENDBRANCH  15  17
BRANCH  11   2
ATOM      2  O   UNL     1      -2.472   4.514  23.478  0.00  0.00    -0.387 OA
ATOM     29  H   UNL     1      -2.722   3.621  23.186  0.00  0.00    +0.210 HD
ENDBRANCH  11   2
BRANCH  13   3
ATOM      3  O   UNL     1      -3.592   4.601  26.959  0.00  0.00    -0.389 OA
ATOM     30  H   UNL     1      -3.506   3.710  27.343  0.00  0.00    +0.210 HD
ENDBRANCH  13   3
TORSDOF 7
ENDMDL
