MODEL 1
REMARK VINA RESULT:      -5.7      0.000      0.000
REMARK  Name = 26744622
REMARK  4 active torsions:
REMARK  status: ('A' for Active; 'I' for Inactive)
REMARK    1  A    between atoms: O_3  and  C_10
REMARK    2  A    between atoms: C_8  and  C_12
REMARK    3  A    between atoms: C_13  and  C_14
REMARK    4  A    between atoms: C_14  and  C_15
REMARK                            x       y       z     vdW  Elec       q    Type
REMARK                         _______ _______ _______ _____ _____    ______ ____
ROOT
ATOM      4  O   UNL     1      -0.492  -0.792  25.355  0.00  0.00    -0.336 OA
ATOM      6  N   UNL     1      -1.406  -0.021  23.461  0.00  0.00    -0.194 NA
ATOM      7  N   UNL     1      -1.877  -0.801  25.559  0.00  0.00    -0.061 NA
ATOM     12  C   UNL     1      -0.300  -0.320  24.096  0.00  0.00    +0.245 A 
ATOM     13  C   UNL     1      -2.347  -0.334  24.399  0.00  0.00    +0.176 A 
ENDROOT
BRANCH  12   8
ATOM      5  N   UNL     1       1.313  -0.543  22.199  0.00  0.00    -0.303 NA
ATOM      8  C   UNL     1       1.132  -0.214  23.626  0.00  0.00    +0.146 C 
ATOM      9  C   UNL     1       1.743   1.182  23.737  0.00  0.00    +0.061 C 
ATOM     10  C   UNL     1       2.963   1.090  22.829  0.00  0.00    +0.130 C 
ATOM     11  C   UNL     1       2.652  -0.039  21.851  0.00  0.00    +0.113 C 
ATOM     21  H   UNL     1       0.627  -0.014  21.657  0.00  0.00    +0.123 HD
BRANCH  10   3
ATOM      3  O   UNL     1       4.111   0.739  23.593  0.00  0.00    -0.390 OA
ATOM     22  H   UNL     1       4.247   1.441  24.251  0.00  0.00    +0.210 HD
ENDBRANCH  10   3
ENDBRANCH  12   8
BRANCH  13  14
ATOM     14  C   UNL     1      -3.783  -0.168  24.151  0.00  0.00    +0.116 C 
BRANCH  14  15
ATOM      1 CL   UNL     1      -2.800   2.358  22.653  0.00  0.00    -0.083 Cl
ATOM      2  F   UNL     1      -5.954   4.799  25.760  0.00  0.00    -0.205 F 
ATOM     15  C   UNL     1      -4.351   1.187  24.563  0.00  0.00    -0.021 A 
ATOM     16  C   UNL     1      -3.955   2.368  23.935  0.00  0.00    +0.047 A 
ATOM     17  C   UNL     1      -5.289   1.226  25.594  0.00  0.00    +0.008 A 
ATOM     18  C   UNL     1      -4.496   3.588  24.340  0.00  0.00    +0.058 A 
ATOM     19  C   UNL     1      -5.830   2.446  26.000  0.00  0.00    +0.039 A 
ATOM     20  C   UNL     1      -5.435   3.628  25.371  0.00  0.00    +0.125 A 
ENDBRANCH  14  15
ENDBRANCH  13  14
TORSDOF 4
ENDMDL
MODEL 2
REMARK VINA RESULT:      -5.3      1.832      2.293
REMARK  Name = 26744622
REMARK  4 active torsions:
REMARK  status: ('A' for Active; 'I' for Inactive)
REMARK    1  A    between atoms: O_3  and  C_10
REMARK    2  A    between atoms: C_8  and  C_12
REMARK    3  A    between atoms: C_13  and  C_14
REMARK    4  A    between atoms: C_14  and  C_15
REMARK                            x       y       z     vdW  Elec       q    Type
REMARK                         _______ _______ _______ _____ _____    ______ ____
ROOT
ATOM      4  O   UNL     1       0.304   2.488  24.670  0.00  0.00    -0.336 OA
ATOM      6  N   UNL     1      -0.550   1.193  23.056  0.00  0.00    -0.194 NA
ATOM      7  N   UNL     1      -1.020   2.906  24.496  0.00  0.00    -0.061 NA
ATOM     12  C   UNL     1       0.500   1.478  23.784  0.00  0.00    +0.245 A 
ATOM     13  C   UNL     1      -1.458   2.095  23.529  0.00  0.00    +0.176 A 
ENDROOT
BRANCH  12   8
ATOM      5  N   UNL     1       1.895  -0.511  23.192  0.00  0.00    -0.303 NA
ATOM      8  C   UNL     1       1.872   0.845  23.774  0.00  0.00    +0.146 C 
ATOM      9  C   UNL     1       2.918   1.592  22.949  0.00  0.00    +0.061 C 
ATOM     10  C   UNL     1       4.013   0.548  22.766  0.00  0.00    +0.130 C 
ATOM     11  C   UNL     1       3.316  -0.799  22.935  0.00  0.00    +0.113 C 
ATOM     21  H   UNL     1       1.412  -0.483  22.292  0.00  0.00    +0.123 HD
BRANCH  10   3
ATOM      3  O   UNL     1       4.996   0.693  23.784  0.00  0.00    -0.390 OA
ATOM     22  H   UNL     1       5.422  -0.173  23.902  0.00  0.00    +0.210 HD
ENDBRANCH  10   3
ENDBRANCH  12   8
BRANCH  13  14
ATOM     14  C   UNL     1      -2.828   2.171  23.011  0.00  0.00    +0.116 C 
BRANCH  14  15
ATOM      1 CL   UNL     1      -3.742  -0.656  23.885  0.00  0.00    -0.083 Cl
ATOM      2  F   UNL     1      -6.881   1.867  26.942  0.00  0.00    -0.205 F 
ATOM     15  C   UNL     1      -3.920   2.057  24.069  0.00  0.00    -0.021 A 
ATOM     16  C   UNL     1      -4.384   0.818  24.512  0.00  0.00    +0.047 A 
ATOM     17  C   UNL     1      -4.456   3.232  24.597  0.00  0.00    +0.008 A 
ATOM     18  C   UNL     1      -5.384   0.754  25.482  0.00  0.00    +0.058 A 
ATOM     19  C   UNL     1      -5.457   3.168  25.567  0.00  0.00    +0.039 A 
ATOM     20  C   UNL     1      -5.921   1.929  26.011  0.00  0.00    +0.125 A 
ENDBRANCH  14  15
ENDBRANCH  13  14
TORSDOF 4
ENDMDL
MODEL 3
REMARK VINA RESULT:      -5.1      1.625      1.858
REMARK  Name = 26744622
REMARK  4 active torsions:
REMARK  status: ('A' for Active; 'I' for Inactive)
REMARK    1  A    between atoms: O_3  and  C_10
REMARK    2  A    between atoms: C_8  and  C_12
REMARK    3  A    between atoms: C_13  and  C_14
REMARK    4  A    between atoms: C_14  and  C_15
REMARK                            x       y       z     vdW  Elec       q    Type
REMARK                         _______ _______ _______ _____ _____    ______ ____
ROOT
ATOM      4  O   UNL     1      -0.403  -1.511  24.239  0.00  0.00    -0.336 OA
ATOM      6  N   UNL     1      -0.953   0.545  23.543  0.00  0.00    -0.194 NA
ATOM      7  N   UNL     1      -1.762  -1.350  24.534  0.00  0.00    -0.061 NA
ATOM     12  C   UNL     1      -0.004  -0.350  23.658  0.00  0.00    +0.245 A 
ATOM     13  C   UNL     1      -2.013  -0.114  24.093  0.00  0.00    +0.176 A 
ENDROOT
BRANCH  12   8
ATOM      5  N   UNL     1       1.647  -0.363  21.781  0.00  0.00    -0.303 NA
ATOM      8  C   UNL     1       1.446  -0.268  23.239  0.00  0.00    +0.146 C 
ATOM      9  C   UNL     1       2.145   1.041  23.599  0.00  0.00    +0.061 C 
ATOM     10  C   UNL     1       3.382   1.018  22.711  0.00  0.00    +0.130 C 
ATOM     11  C   UNL     1       3.026   0.096  21.549  0.00  0.00    +0.113 C 
ATOM     21  H   UNL     1       1.014   0.297  21.325  0.00  0.00    +0.123 HD
BRANCH  10   3
ATOM      3  O   UNL     1       4.481   0.463  23.424  0.00  0.00    -0.390 OA
ATOM     22  H   UNL     1       4.130  -0.235  24.001  0.00  0.00    +0.210 HD
ENDBRANCH  10   3
ENDBRANCH  12   8
BRANCH  13  14
ATOM     14  C   UNL     1      -3.345   0.493  24.195  0.00  0.00    +0.116 C 
BRANCH  14  15
ATOM      1 CL   UNL     1      -6.097   1.730  24.893  0.00  0.00    -0.083 Cl
ATOM      2  F   UNL     1      -3.337   5.551  26.723  0.00  0.00    -0.205 F 
ATOM     15  C   UNL     1      -3.375   1.856  24.877  0.00  0.00    -0.021 A 
ATOM     16  C   UNL     1      -4.576   2.477  25.221  0.00  0.00    +0.047 A 
ATOM     17  C   UNL     1      -2.161   2.484  25.158  0.00  0.00    +0.008 A 
ATOM     18  C   UNL     1      -4.564   3.725  25.844  0.00  0.00    +0.058 A 
ATOM     19  C   UNL     1      -2.148   3.732  25.781  0.00  0.00    +0.039 A 
ATOM     20  C   UNL     1      -3.350   4.352  26.125  0.00  0.00    +0.125 A 
ENDBRANCH  14  15
ENDBRANCH  13  14
TORSDOF 4
ENDMDL
MODEL 4
REMARK VINA RESULT:      -4.7      1.793      2.166
REMARK  Name = 26744622
REMARK  4 active torsions:
REMARK  status: ('A' for Active; 'I' for Inactive)
REMARK    1  A    between atoms: O_3  and  C_10
REMARK    2  A    between atoms: C_8  and  C_12
REMARK    3  A    between atoms: C_13  and  C_14
REMARK    4  A    between atoms: C_14  and  C_15
REMARK                            x       y       z     vdW  Elec       q    Type
REMARK                         _______ _______ _______ _____ _____    ______ ____
ROOT
ATOM      4  O   UNL     1       0.393   2.499  24.471  0.00  0.00    -0.336 OA
ATOM      6  N   UNL     1      -0.456   1.004  23.036  0.00  0.00    -0.194 NA
ATOM      7  N   UNL     1      -0.942   2.869  24.267  0.00  0.00    -0.061 NA
ATOM     12  C   UNL     1       0.597   1.393  23.710  0.00  0.00    +0.245 A 
ATOM     13  C   UNL     1      -1.376   1.940  23.410  0.00  0.00    +0.176 A 
ENDROOT
BRANCH  12   8
ATOM      5  N   UNL     1       2.060  -0.557  23.154  0.00  0.00    -0.303 NA
ATOM      8  C   UNL     1       1.981   0.787  23.756  0.00  0.00    +0.146 C 
ATOM      9  C   UNL     1       3.050   1.569  22.995  0.00  0.00    +0.061 C 
ATOM     10  C   UNL     1       4.173   0.551  22.849  0.00  0.00    +0.130 C 
ATOM     11  C   UNL     1       3.497  -0.812  22.963  0.00  0.00    +0.113 C 
ATOM     21  H   UNL     1       1.620  -0.524  22.233  0.00  0.00    +0.123 HD
BRANCH  10   3
ATOM      3  O   UNL     1       5.103   0.698  23.915  0.00  0.00    -0.390 OA
ATOM     22  H   UNL     1       4.604   0.977  24.700  0.00  0.00    +0.210 HD
ENDBRANCH  10   3
ENDBRANCH  12   8
BRANCH  13  14
ATOM     14  C   UNL     1      -2.753   1.929  22.906  0.00  0.00    +0.116 C 
BRANCH  14  15
ATOM      1 CL   UNL     1      -3.911   4.630  23.885  0.00  0.00    -0.083 Cl
ATOM      2  F   UNL     1      -6.738   1.731  26.913  0.00  0.00    -0.205 F 
ATOM     15  C   UNL     1      -3.829   1.908  23.986  0.00  0.00    -0.021 A 
ATOM     16  C   UNL     1      -4.397   3.084  24.478  0.00  0.00    +0.047 A 
ATOM     17  C   UNL     1      -4.245   0.673  24.483  0.00  0.00    +0.008 A 
ATOM     18  C   UNL     1      -5.379   3.024  25.466  0.00  0.00    +0.058 A 
ATOM     19  C   UNL     1      -5.227   0.613  25.472  0.00  0.00    +0.039 A 
ATOM     20  C   UNL     1      -5.795   1.789  25.963  0.00  0.00    +0.125 A 
ENDBRANCH  14  15
ENDBRANCH  13  14
TORSDOF 4
ENDMDL
MODEL 5
REMARK VINA RESULT:      -3.8      2.538      2.954
REMARK  Name = 26744622
REMARK  4 active torsions:
REMARK  status: ('A' for Active; 'I' for Inactive)
REMARK    1  A    between atoms: O_3  and  C_10
REMARK    2  A    between atoms: C_8  and  C_12
REMARK    3  A    between atoms: C_13  and  C_14
REMARK    4  A    between atoms: C_14  and  C_15
REMARK                            x       y       z     vdW  Elec       q    Type
REMARK                         _______ _______ _______ _____ _____    ______ ____
ROOT
ATOM      4  O   UNL     1       0.773   2.080  25.576  0.00  0.00    -0.336 OA
ATOM      6  N   UNL     1      -0.971   2.601  24.272  0.00  0.00    -0.194 NA
ATOM      7  N   UNL     1      -0.156   2.720  26.405  0.00  0.00    -0.061 NA
ATOM     12  C   UNL     1       0.216   2.051  24.338  0.00  0.00    +0.245 A 
ATOM     13  C   UNL     1      -1.157   2.997  25.565  0.00  0.00    +0.176 A 
ENDROOT
BRANCH  12   8
ATOM      5  N   UNL     1       2.487   1.444  23.486  0.00  0.00    -0.303 NA
ATOM      8  C   UNL     1       1.032   1.400  23.245  0.00  0.00    +0.146 C 
ATOM      9  C   UNL     1       0.761  -0.089  23.042  0.00  0.00    +0.061 C 
ATOM     10  C   UNL     1       1.971  -0.546  22.237  0.00  0.00    +0.130 C 
ATOM     11  C   UNL     1       3.065   0.472  22.544  0.00  0.00    +0.113 C 
ATOM     21  H   UNL     1       2.666   1.109  24.435  0.00  0.00    +0.123 HD
BRANCH  10   3
ATOM      3  O   UNL     1       1.673  -0.501  20.847  0.00  0.00    -0.390 OA
ATOM     22  H   UNL     1       2.307   0.108  20.433  0.00  0.00    +0.210 HD
ENDBRANCH  10   3
ENDBRANCH  12   8
BRANCH  13  14
ATOM     14  C   UNL     1      -2.376   3.681  26.006  0.00  0.00    +0.116 C 
BRANCH  14  15
ATOM      1 CL   UNL     1      -4.988   5.346  26.033  0.00  0.00    -0.083 Cl
ATOM      2  F   UNL     1      -7.137   1.042  24.477  0.00  0.00    -0.205 F 
ATOM     15  C   UNL     1      -3.677   2.997  25.598  0.00  0.00    -0.021 A 
ATOM     16  C   UNL     1      -4.892   3.681  25.587  0.00  0.00    +0.047 A 
ATOM     17  C   UNL     1      -3.630   1.652  25.229  0.00  0.00    +0.008 A 
ATOM     18  C   UNL     1      -6.061   3.021  25.209  0.00  0.00    +0.058 A 
ATOM     19  C   UNL     1      -4.799   0.991  24.851  0.00  0.00    +0.039 A 
ATOM     20  C   UNL     1      -6.015   1.676  24.840  0.00  0.00    +0.125 A 
ENDBRANCH  14  15
ENDBRANCH  13  14
TORSDOF 4
ENDMDL
MODEL 6
REMARK VINA RESULT:      -3.8     15.002     15.890
REMARK  Name = 26744622
REMARK  4 active torsions:
REMARK  status: ('A' for Active; 'I' for Inactive)
REMARK    1  A    between atoms: O_3  and  C_10
REMARK    2  A    between atoms: C_8  and  C_12
REMARK    3  A    between atoms: C_13  and  C_14
REMARK    4  A    between atoms: C_14  and  C_15
REMARK                            x       y       z     vdW  Elec       q    Type
REMARK                         _______ _______ _______ _____ _____    ______ ____
ROOT
ATOM      4  O   UNL     1      -4.362 -10.086  13.781  0.00  0.00    -0.336 OA
ATOM      6  N   UNL     1      -6.558 -10.128  13.346  0.00  0.00    -0.194 NA
ATOM      7  N   UNL     1      -4.989 -10.446  14.980  0.00  0.00    -0.061 NA
ATOM     12  C   UNL     1      -5.356  -9.917  12.871  0.00  0.00    +0.245 A 
ATOM     13  C   UNL     1      -6.282 -10.451  14.643  0.00  0.00    +0.176 A 
ENDROOT
BRANCH  12   8
ATOM      5  N   UNL     1      -3.493  -9.708  11.217  0.00  0.00    -0.303 NA
ATOM      8  C   UNL     1      -4.934  -9.522  11.475  0.00  0.00    +0.146 C 
ATOM      9  C   UNL     1      -5.591 -10.323  10.354  0.00  0.00    +0.061 C 
ATOM     10  C   UNL     1      -4.695 -10.030   9.158  0.00  0.00    +0.130 C 
ATOM     11  C   UNL     1      -3.348  -9.630   9.754  0.00  0.00    +0.113 C 
ATOM     21  H   UNL     1      -3.233 -10.652  11.509  0.00  0.00    +0.123 HD
BRANCH  10   3
ATOM      3  O   UNL     1      -5.218  -8.935   8.416  0.00  0.00    -0.390 OA
ATOM     22  H   UNL     1      -4.558  -8.698   7.744  0.00  0.00    +0.210 HD
ENDBRANCH  10   3
ENDBRANCH  12   8
BRANCH  13  14
ATOM     14  C   UNL     1      -7.336 -10.781  15.608  0.00  0.00    +0.116 C 
BRANCH  14  15
ATOM      1 CL   UNL     1      -9.647 -10.101  13.661  0.00  0.00    -0.083 Cl
ATOM      2  F   UNL     1     -10.718  -6.475  17.018  0.00  0.00    -0.205 F 
ATOM     15  C   UNL     1      -8.265  -9.625  15.961  0.00  0.00    -0.021 A 
ATOM     16  C   UNL     1      -9.327  -9.259  15.133  0.00  0.00    +0.047 A 
ATOM     17  C   UNL     1      -8.033  -8.927  17.147  0.00  0.00    +0.008 A 
ATOM     18  C   UNL     1     -10.155  -8.195  15.490  0.00  0.00    +0.058 A 
ATOM     19  C   UNL     1      -8.861  -7.862  17.503  0.00  0.00    +0.039 A 
ATOM     20  C   UNL     1      -9.923  -7.497  16.675  0.00  0.00    +0.125 A 
ENDBRANCH  14  15
ENDBRANCH  13  14
TORSDOF 4
ENDMDL
MODEL 7
REMARK VINA RESULT:      -3.7     15.087     16.138
REMARK  Name = 26744622
REMARK  4 active torsions:
REMARK  status: ('A' for Active; 'I' for Inactive)
REMARK    1  A    between atoms: O_3  and  C_10
REMARK    2  A    between atoms: C_8  and  C_12
REMARK    3  A    between atoms: C_13  and  C_14
REMARK    4  A    between atoms: C_14  and  C_15
REMARK                            x       y       z     vdW  Elec       q    Type
REMARK                         _______ _______ _______ _____ _____    ______ ____
ROOT
ATOM      4  O   UNL     1      -7.875  -9.873  13.154  0.00  0.00    -0.336 OA
ATOM      6  N   UNL     1      -5.714 -10.196  13.645  0.00  0.00    -0.194 NA
ATOM      7  N   UNL     1      -7.832 -10.225  14.509  0.00  0.00    -0.061 NA
ATOM     12  C   UNL     1      -6.588  -9.880  12.722  0.00  0.00    +0.245 A 
ATOM     13  C   UNL     1      -6.525 -10.398  14.725  0.00  0.00    +0.176 A 
ENDROOT
BRANCH  12   8
ATOM      5  N   UNL     1      -7.549  -8.958  10.606  0.00  0.00    -0.303 NA
ATOM      8  C   UNL     1      -6.361  -9.526  11.270  0.00  0.00    +0.146 C 
ATOM      9  C   UNL     1      -5.290  -8.465  11.028  0.00  0.00    +0.061 C 
ATOM     10  C   UNL     1      -5.578  -8.014   9.602  0.00  0.00    +0.130 C 
ATOM     11  C   UNL     1      -7.046  -8.354   9.362  0.00  0.00    +0.113 C 
ATOM     21  H   UNL     1      -7.919  -8.208  11.194  0.00  0.00    +0.123 HD
BRANCH  10   3
ATOM      3  O   UNL     1      -4.776  -8.752   8.687  0.00  0.00    -0.390 OA
ATOM     22  H   UNL     1      -3.880  -8.799   9.060  0.00  0.00    +0.210 HD
ENDBRANCH  10   3
ENDBRANCH  12   8
BRANCH  13  14
ATOM     14  C   UNL     1      -5.997 -10.781  16.038  0.00  0.00    +0.116 C 
BRANCH  14  15
ATOM      1 CL   UNL     1      -4.976 -10.781  18.963  0.00  0.00    -0.083 Cl
ATOM      2  F   UNL     1      -9.895 -10.776  20.135  0.00  0.00    -0.205 F 
ATOM     15  C   UNL     1      -7.024 -10.780  17.165  0.00  0.00    -0.021 A 
ATOM     16  C   UNL     1      -6.641 -10.781  18.506  0.00  0.00    +0.047 A 
ATOM     17  C   UNL     1      -8.378 -10.776  16.827  0.00  0.00    +0.008 A 
ATOM     18  C   UNL     1      -7.610 -10.780  19.510  0.00  0.00    +0.058 A 
ATOM     19  C   UNL     1      -9.348 -10.776  17.831  0.00  0.00    +0.039 A 
ATOM     20  C   UNL     1      -8.964 -10.777  19.172  0.00  0.00    +0.125 A 
ENDBRANCH  14  15
ENDBRANCH  13  14
TORSDOF 4
ENDMDL
MODEL 8
REMARK VINA RESULT:      -3.6      3.122      3.864
REMARK  Name = 26744622
REMARK  4 active torsions:
REMARK  status: ('A' for Active; 'I' for Inactive)
REMARK    1  A    between atoms: O_3  and  C_10
REMARK    2  A    between atoms: C_8  and  C_12
REMARK    3  A    between atoms: C_13  and  C_14
REMARK    4  A    between atoms: C_14  and  C_15
REMARK                            x       y       z     vdW  Elec       q    Type
REMARK                         _______ _______ _______ _____ _____    ______ ____
ROOT
ATOM      4  O   UNL     1       0.824   2.415  24.237  0.00  0.00    -0.336 OA
ATOM      6  N   UNL     1      -0.332   0.515  23.978  0.00  0.00    -0.194 NA
ATOM      7  N   UNL     1      -0.473   2.683  24.691  0.00  0.00    -0.061 NA
ATOM     12  C   UNL     1       0.821   1.118  23.834  0.00  0.00    +0.245 A 
ATOM     13  C   UNL     1      -1.095   1.515  24.508  0.00  0.00    +0.176 A 
ENDROOT
BRANCH  12   8
ATOM      5  N   UNL     1       2.041   0.119  21.894  0.00  0.00    -0.303 NA
ATOM      8  C   UNL     1       2.125   0.576  23.294  0.00  0.00    +0.146 C 
ATOM      9  C   UNL     1       3.274   1.581  23.261  0.00  0.00    +0.061 C 
ATOM     10  C   UNL     1       4.268   0.927  22.311  0.00  0.00    +0.130 C 
ATOM     11  C   UNL     1       3.437  -0.017  21.447  0.00  0.00    +0.113 C 
ATOM     21  H   UNL     1       1.604   0.858  21.340  0.00  0.00    +0.123 HD
BRANCH  10   3
ATOM      3  O   UNL     1       5.215   0.164  23.051  0.00  0.00    -0.390 OA
ATOM     22  H   UNL     1       5.908   0.775  23.352  0.00  0.00    +0.210 HD
ENDBRANCH  10   3
ENDBRANCH  12   8
BRANCH  13  14
ATOM     14  C   UNL     1      -2.507   1.322  24.854  0.00  0.00    +0.116 C 
BRANCH  14  15
ATOM      1 CL   UNL     1      -1.334  -0.839  26.738  0.00  0.00    -0.083 Cl
ATOM      2  F   UNL     1      -4.442  -3.956  24.252  0.00  0.00    -0.205 F 
ATOM     15  C   UNL     1      -3.009  -0.111  24.716  0.00  0.00    -0.021 A 
ATOM     16  C   UNL     1      -2.527  -1.138  25.527  0.00  0.00    +0.047 A 
ATOM     17  C   UNL     1      -3.976  -0.383  23.748  0.00  0.00    +0.008 A 
ATOM     18  C   UNL     1      -3.011  -2.437  25.371  0.00  0.00    +0.058 A 
ATOM     19  C   UNL     1      -4.460  -1.682  23.590  0.00  0.00    +0.039 A 
ATOM     20  C   UNL     1      -3.978  -2.709  24.403  0.00  0.00    +0.125 A 
ENDBRANCH  14  15
ENDBRANCH  13  14
TORSDOF 4
ENDMDL
MODEL 9
REMARK VINA RESULT:      -3.4      3.037      3.762
REMARK  Name = 26744622
REMARK  4 active torsions:
REMARK  status: ('A' for Active; 'I' for Inactive)
REMARK    1  A    between atoms: O_3  and  C_10
REMARK    2  A    between atoms: C_8  and  C_12
REMARK    3  A    between atoms: C_13  and  C_14
REMARK    4  A    between atoms: C_14  and  C_15
REMARK                            x       y       z     vdW  Elec       q    Type
REMARK                         _______ _______ _______ _____ _____    ______ ____
ROOT
ATOM      4  O   UNL     1       0.919   2.404  25.219  0.00  0.00    -0.336 OA
ATOM      6  N   UNL     1      -0.508   1.001  24.216  0.00  0.00    -0.194 NA
ATOM      7  N   UNL     1      -0.254   2.429  25.983  0.00  0.00    -0.061 NA
ATOM     12  C   UNL     1       0.685   1.540  24.198  0.00  0.00    +0.245 A 
ATOM     13  C   UNL     1      -1.047   1.577  25.329  0.00  0.00    +0.176 A 
ENDROOT
BRANCH  12   8
ATOM      5  N   UNL     1       3.150   1.306  23.847  0.00  0.00    -0.303 NA
ATOM      8  C   UNL     1       1.816   1.332  23.217  0.00  0.00    +0.146 C 
ATOM      9  C   UNL     1       1.769   0.009  22.455  0.00  0.00    +0.061 C 
ATOM     10  C   UNL     1       3.184  -0.115  21.906  0.00  0.00    +0.130 C 
ATOM     11  C   UNL     1       4.049   0.741  22.827  0.00  0.00    +0.113 C 
ATOM     21  H   UNL     1       3.121   0.657  24.636  0.00  0.00    +0.123 HD
BRANCH  10   3
ATOM      3  O   UNL     1       3.243   0.418  20.588  0.00  0.00    -0.390 OA
ATOM     22  H   UNL     1       3.328   1.383  20.669  0.00  0.00    +0.210 HD
ENDBRANCH  10   3
ENDBRANCH  12   8
BRANCH  13  14
ATOM     14  C   UNL     1      -2.411   1.280  25.781  0.00  0.00    +0.116 C 
BRANCH  14  15
ATOM      1 CL   UNL     1      -5.254   1.430  24.561  0.00  0.00    -0.083 Cl
ATOM      2  F   UNL     1      -4.557  -3.492  23.636  0.00  0.00    -0.205 F 
ATOM     15  C   UNL     1      -3.016   0.009  25.195  0.00  0.00    -0.021 A 
ATOM     16  C   UNL     1      -4.292  -0.001  24.630  0.00  0.00    +0.047 A 
ATOM     17  C   UNL     1      -2.261  -1.163  25.233  0.00  0.00    +0.008 A 
ATOM     18  C   UNL     1      -4.812  -1.183  24.103  0.00  0.00    +0.058 A 
ATOM     19  C   UNL     1      -2.782  -2.346  24.707  0.00  0.00    +0.039 A 
ATOM     20  C   UNL     1      -4.057  -2.356  24.141  0.00  0.00    +0.125 A 
ENDBRANCH  14  15
ENDBRANCH  13  14
TORSDOF 4
ENDMDL
MODEL 10
REMARK VINA RESULT:      -3.4      2.183      2.950
REMARK  Name = 26744622
REMARK  4 active torsions:
REMARK  status: ('A' for Active; 'I' for Inactive)
REMARK    1  A    between atoms: O_3  and  C_10
REMARK    2  A    between atoms: C_8  and  C_12
REMARK    3  A    between atoms: C_13  and  C_14
REMARK    4  A    between atoms: C_14  and  C_15
REMARK                            x       y       z     vdW  Elec       q    Type
REMARK                         _______ _______ _______ _____ _____    ______ ____
ROOT
ATOM      4  O   UNL     1       1.092  -0.190  21.933  0.00  0.00    -0.336 OA
ATOM      6  N   UNL     1       1.117  -0.531  24.146  0.00  0.00    -0.194 NA
ATOM      7  N   UNL     1      -0.240  -0.397  22.311  0.00  0.00    -0.061 NA
ATOM     12  C   UNL     1       1.826  -0.286  23.073  0.00  0.00    +0.245 A 
ATOM     13  C   UNL     1      -0.144  -0.590  23.629  0.00  0.00    +0.176 A 
ENDROOT
BRANCH  12   8
ATOM      5  N   UNL     1       3.798   1.212  23.417  0.00  0.00    -0.303 NA
ATOM      8  C   UNL     1       3.319  -0.097  22.933  0.00  0.00    +0.146 C 
ATOM      9  C   UNL     1       4.169  -1.088  23.724  0.00  0.00    +0.061 C 
ATOM     10  C   UNL     1       5.535  -0.417  23.749  0.00  0.00    +0.130 C 
ATOM     11  C   UNL     1       5.257   1.069  23.542  0.00  0.00    +0.113 C 
ATOM     21  H   UNL     1       3.415   1.370  24.351  0.00  0.00    +0.123 HD
BRANCH  10   3
ATOM      3  O   UNL     1       6.331  -0.895  22.671  0.00  0.00    -0.390 OA
ATOM     22  H   UNL     1       7.077  -0.281  22.567  0.00  0.00    +0.210 HD
ENDBRANCH  10   3
ENDBRANCH  12   8
BRANCH  13  14
ATOM     14  C   UNL     1      -1.321  -0.849  24.465  0.00  0.00    +0.116 C 
BRANCH  14  15
ATOM      1 CL   UNL     1      -4.350  -1.346  24.050  0.00  0.00    -0.083 Cl
ATOM      2  F   UNL     1      -4.768   3.598  25.020  0.00  0.00    -0.205 F 
ATOM     15  C   UNL     1      -2.276   0.331  24.608  0.00  0.00    -0.021 A 
ATOM     16  C   UNL     1      -3.652   0.185  24.435  0.00  0.00    +0.047 A 
ATOM     17  C   UNL     1      -1.742   1.581  24.922  0.00  0.00    +0.008 A 
ATOM     18  C   UNL     1      -4.494   1.288  24.574  0.00  0.00    +0.058 A 
ATOM     19  C   UNL     1      -2.583   2.685  25.060  0.00  0.00    +0.039 A 
ATOM     20  C   UNL     1      -3.960   2.538  24.887  0.00  0.00    +0.125 A 
ENDBRANCH  14  15
ENDBRANCH  13  14
TORSDOF 4
ENDMDL
