MODEL 1
REMARK VINA RESULT:      -5.5      0.000      0.000
REMARK  Name = 40777854
REMARK  7 active torsions:
REMARK  status: ('A' for Active; 'I' for Inactive)
REMARK    1  A    between atoms: O_2  and  C_9
REMARK    2  A    between atoms: O_3  and  C_10
REMARK    3  A    between atoms: N_7  and  C_13
REMARK    4  A    between atoms: C_8  and  C_12
REMARK    5  A    between atoms: C_11  and  C_13
REMARK    6  A    between atoms: C_12  and  C_14
REMARK    7  A    between atoms: C_21  and  C_24
REMARK                            x       y       z     vdW  Elec       q    Type
REMARK                         _______ _______ _______ _____ _____    ______ ____
ROOT
ATOM      1  O   UNL     1      -2.410   2.868  23.742  0.00  0.00    -0.366 OA
ATOM      8  C   UNL     1      -2.831   3.728  24.826  0.00  0.00    +0.159 C 
ATOM      9  C   UNL     1      -1.559   4.195  25.522  0.00  0.00    +0.175 C 
ATOM     10  C   UNL     1      -0.612   3.043  25.258  0.00  0.00    +0.176 C 
ATOM     11  C   UNL     1      -0.990   2.659  23.837  0.00  0.00    +0.167 C 
ENDROOT
BRANCH   9   2
ATOM      2  O   UNL     1      -1.100   5.375  24.862  0.00  0.00    -0.387 OA
ATOM     30  H   UNL     1      -0.445   5.797  25.444  0.00  0.00    +0.210 HD
ENDBRANCH   9   2
BRANCH  10   3
ATOM      3  O   UNL     1       0.749   3.400  25.366  0.00  0.00    -0.387 OA
ATOM     31  H   UNL     1       1.210   3.032  24.593  0.00  0.00    +0.210 HD
ENDBRANCH  10   3
BRANCH   8  12
ATOM     12  C   UNL     1      -3.746   2.918  25.734  0.00  0.00    +0.130 C 
BRANCH  12  14
ATOM      4  O   UNL     1      -5.176   1.670  24.314  0.00  0.00    -0.275 OA
ATOM      6  N   UNL     1      -3.371   0.547  25.279  0.00  0.00    -0.271 N 
ATOM     14  C   UNL     1      -4.176   1.651  25.033  0.00  0.00    +0.222 C 
ATOM     15  C   UNL     1      -2.172   0.527  26.142  0.00  0.00    +0.118 C 
ATOM     16  C   UNL     1      -1.599  -0.893  26.113  0.00  0.00    +0.056 C 
ATOM     17  C   UNL     1      -3.557  -0.746  24.747  0.00  0.00    +0.039 A 
ATOM     18  C   UNL     1      -2.554  -1.601  25.209  0.00  0.00    -0.024 A 
ATOM     19  C   UNL     1      -4.544  -1.214  23.892  0.00  0.00    +0.024 A 
ATOM     20  C   UNL     1      -2.511  -2.934  24.830  0.00  0.00    +0.005 A 
ATOM     22  C   UNL     1      -4.509  -2.557  23.504  0.00  0.00    +0.002 A 
ATOM     23  C   UNL     1      -3.500  -3.412  23.970  0.00  0.00    +0.000 A 
ENDBRANCH  12  14
ENDBRANCH   8  12
BRANCH  11  13
ATOM     13  C   UNL     1      -0.662   1.216  23.495  0.00  0.00    +0.138 C 
BRANCH  13   7
ATOM      5  O   UNL     1       1.001  -0.376  21.780  0.00  0.00    -0.270 OA
ATOM      7  N   UNL     1       0.736   0.950  23.665  0.00  0.00    -0.309 N 
ATOM     21  C   UNL     1       1.468   0.163  22.779  0.00  0.00    +0.244 C 
ATOM     32  H   UNL     1       1.198   1.410  24.442  0.00  0.00    +0.149 HD
BRANCH  21  24
ATOM     24  C   UNL     1       2.902  -0.039  23.110  0.00  0.00    +0.037 A 
ATOM     25  C   UNL     1       3.338  -1.272  23.599  0.00  0.00    +0.013 A 
ATOM     26  C   UNL     1       3.813   1.001  22.930  0.00  0.00    +0.013 A 
ATOM     27  C   UNL     1       4.684  -1.461  23.910  0.00  0.00    +0.001 A 
ATOM     28  C   UNL     1       5.159   0.811  23.241  0.00  0.00    +0.001 A 
ATOM     29  C   UNL     1       5.595  -0.420  23.730  0.00  0.00    +0.000 A 
ENDBRANCH  21  24
ENDBRANCH  13   7
ENDBRANCH  11  13
TORSDOF 7
ENDMDL
MODEL 2
REMARK VINA RESULT:      -4.3      1.754      5.886
REMARK  Name = 40777854
REMARK  7 active torsions:
REMARK  status: ('A' for Active; 'I' for Inactive)
REMARK    1  A    between atoms: O_2  and  C_9
REMARK    2  A    between atoms: O_3  and  C_10
REMARK    3  A    between atoms: N_7  and  C_13
REMARK    4  A    between atoms: C_8  and  C_12
REMARK    5  A    between atoms: C_11  and  C_13
REMARK    6  A    between atoms: C_12  and  C_14
REMARK    7  A    between atoms: C_21  and  C_24
REMARK                            x       y       z     vdW  Elec       q    Type
REMARK                         _______ _______ _______ _____ _____    ______ ____
ROOT
ATOM      1  O   UNL     1      -3.200   3.549  26.717  0.00  0.00    -0.366 OA
ATOM      8  C   UNL     1      -1.825   3.618  26.277  0.00  0.00    +0.159 C 
ATOM      9  C   UNL     1      -1.847   4.266  24.897  0.00  0.00    +0.175 C 
ATOM     10  C   UNL     1      -3.211   3.859  24.379  0.00  0.00    +0.176 C 
ATOM     11  C   UNL     1      -4.057   3.962  25.637  0.00  0.00    +0.167 C 
ENDROOT
BRANCH   9   2
ATOM      2  O   UNL     1      -1.785   5.682  25.072  0.00  0.00    -0.387 OA
ATOM     30  H   UNL     1      -1.906   6.088  24.197  0.00  0.00    +0.210 HD
ENDBRANCH   9   2
BRANCH  10   3
ATOM      3  O   UNL     1      -3.690   4.696  23.349  0.00  0.00    -0.387 OA
ATOM     31  H   UNL     1      -4.068   4.123  22.659  0.00  0.00    +0.210 HD
ENDBRANCH  10   3
BRANCH   8  12
ATOM     12  C   UNL     1      -1.270   2.200  26.262  0.00  0.00    +0.130 C 
BRANCH  12  14
ATOM      4  O   UNL     1       0.919   2.985  25.804  0.00  0.00    -0.275 OA
ATOM      6  N   UNL     1       0.134   1.189  24.537  0.00  0.00    -0.271 N 
ATOM     14  C   UNL     1       0.043   2.170  25.515  0.00  0.00    +0.222 C 
ATOM     15  C   UNL     1      -0.920   0.211  24.192  0.00  0.00    +0.118 C 
ATOM     16  C   UNL     1      -0.381  -0.679  23.067  0.00  0.00    +0.056 C 
ATOM     17  C   UNL     1       1.248   0.953  23.704  0.00  0.00    +0.039 A 
ATOM     18  C   UNL     1       0.983  -0.115  22.844  0.00  0.00    -0.024 A 
ATOM     19  C   UNL     1       2.467   1.613  23.655  0.00  0.00    +0.024 A 
ATOM     20  C   UNL     1       1.923  -0.548  21.921  0.00  0.00    +0.005 A 
ATOM     22  C   UNL     1       3.421   1.185  22.727  0.00  0.00    +0.002 A 
ATOM     23  C   UNL     1       3.152   0.111  21.866  0.00  0.00    +0.000 A 
ENDBRANCH  12  14
ENDBRANCH   8  12
BRANCH  11  13
ATOM     13  C   UNL     1      -5.296   3.085  25.603  0.00  0.00    +0.138 C 
BRANCH  13   7
ATOM      5  O   UNL     1      -4.059   1.629  23.460  0.00  0.00    -0.270 OA
ATOM      7  N   UNL     1      -4.946   1.695  25.603  0.00  0.00    -0.309 N 
ATOM     21  C   UNL     1      -4.345   1.068  24.514  0.00  0.00    +0.244 C 
ATOM     32  H   UNL     1      -5.105   1.183  26.464  0.00  0.00    +0.149 HD
BRANCH  21  24
ATOM     24  C   UNL     1      -4.069  -0.384  24.662  0.00  0.00    +0.037 A 
ATOM     25  C   UNL     1      -3.530  -0.874  25.852  0.00  0.00    +0.013 A 
ATOM     26  C   UNL     1      -4.348  -1.258  23.611  0.00  0.00    +0.013 A 
ATOM     27  C   UNL     1      -3.270  -2.237  25.991  0.00  0.00    +0.001 A 
ATOM     28  C   UNL     1      -4.087  -2.621  23.749  0.00  0.00    +0.001 A 
ATOM     29  C   UNL     1      -3.549  -3.111  24.939  0.00  0.00    +0.000 A 
ENDBRANCH  21  24
ENDBRANCH  13   7
ENDBRANCH  11  13
TORSDOF 7
ENDMDL
MODEL 3
REMARK VINA RESULT:      -3.6      1.866      4.845
REMARK  Name = 40777854
REMARK  7 active torsions:
REMARK  status: ('A' for Active; 'I' for Inactive)
REMARK    1  A    between atoms: O_2  and  C_9
REMARK    2  A    between atoms: O_3  and  C_10
REMARK    3  A    between atoms: N_7  and  C_13
REMARK    4  A    between atoms: C_8  and  C_12
REMARK    5  A    between atoms: C_11  and  C_13
REMARK    6  A    between atoms: C_12  and  C_14
REMARK    7  A    between atoms: C_21  and  C_24
REMARK                            x       y       z     vdW  Elec       q    Type
REMARK                         _______ _______ _______ _____ _____    ______ ____
ROOT
ATOM      1  O   UNL     1      -3.563  -0.842  25.944  0.00  0.00    -0.366 OA
ATOM      8  C   UNL     1      -4.485  -1.337  24.947  0.00  0.00    +0.159 C 
ATOM      9  C   UNL     1      -3.712  -2.354  24.114  0.00  0.00    +0.175 C 
ATOM     10  C   UNL     1      -2.292  -1.839  24.225  0.00  0.00    +0.176 C 
ATOM     11  C   UNL     1      -2.252  -1.368  25.670  0.00  0.00    +0.167 C 
ENDROOT
BRANCH   9   2
ATOM      2  O   UNL     1      -3.830  -3.627  24.749  0.00  0.00    -0.387 OA
ATOM     30  H   UNL     1      -4.301  -3.491  25.588  0.00  0.00    +0.210 HD
ENDBRANCH   9   2
BRANCH  10   3
ATOM      3  O   UNL     1      -1.318  -2.825  23.962  0.00  0.00    -0.387 OA
ATOM     31  H   UNL     1      -1.761  -3.560  23.504  0.00  0.00    +0.210 HD
ENDBRANCH  10   3
BRANCH   8  12
ATOM     12  C   UNL     1      -4.974  -0.146  24.133  0.00  0.00    +0.130 C 
BRANCH  12  14
ATOM      4  O   UNL     1      -5.216   1.513  25.808  0.00  0.00    -0.275 OA
ATOM      6  N   UNL     1      -3.505   1.803  24.246  0.00  0.00    -0.271 N 
ATOM     14  C   UNL     1      -4.582   1.141  24.820  0.00  0.00    +0.222 C 
ATOM     15  C   UNL     1      -2.746   1.353  23.060  0.00  0.00    +0.118 C 
ATOM     16  C   UNL     1      -1.646   2.384  22.791  0.00  0.00    +0.056 C 
ATOM     17  C   UNL     1      -2.948   3.018  24.695  0.00  0.00    +0.039 A 
ATOM     18  C   UNL     1      -1.875   3.382  23.878  0.00  0.00    -0.024 A 
ATOM     19  C   UNL     1      -3.321   3.816  25.767  0.00  0.00    +0.024 A 
ATOM     20  C   UNL     1      -1.154   4.543  24.109  0.00  0.00    +0.005 A 
ATOM     22  C   UNL     1      -2.600   4.990  26.007  0.00  0.00    +0.002 A 
ATOM     23  C   UNL     1      -1.523   5.351  25.185  0.00  0.00    +0.000 A 
ENDBRANCH  12  14
ENDBRANCH   8  12
BRANCH  11  13
ATOM     13  C   UNL     1      -1.207  -0.297  25.925  0.00  0.00    +0.138 C 
BRANCH  13   7
ATOM      5  O   UNL     1       0.508   1.878  25.170  0.00  0.00    -0.270 OA
ATOM      7  N   UNL     1      -0.184  -0.322  24.921  0.00  0.00    -0.309 N 
ATOM     21  C   UNL     1       0.604   0.785  24.619  0.00  0.00    +0.244 C 
ATOM     32  H   UNL     1      -0.014  -1.211  24.463  0.00  0.00    +0.149 HD
BRANCH  21  24
ATOM     24  C   UNL     1       1.603   0.605  23.534  0.00  0.00    +0.037 A 
ATOM     25  C   UNL     1       1.292  -0.182  22.424  0.00  0.00    +0.013 A 
ATOM     26  C   UNL     1       2.850   1.223  23.624  0.00  0.00    +0.013 A 
ATOM     27  C   UNL     1       2.229  -0.352  21.406  0.00  0.00    +0.001 A 
ATOM     28  C   UNL     1       3.788   1.053  22.605  0.00  0.00    +0.001 A 
ATOM     29  C   UNL     1       3.478   0.266  21.496  0.00  0.00    +0.000 A 
ENDBRANCH  21  24
ENDBRANCH  13   7
ENDBRANCH  11  13
TORSDOF 7
ENDMDL
MODEL 4
REMARK VINA RESULT:      -3.4     17.186     18.964
REMARK  Name = 40777854
REMARK  7 active torsions:
REMARK  status: ('A' for Active; 'I' for Inactive)
REMARK    1  A    between atoms: O_2  and  C_9
REMARK    2  A    between atoms: O_3  and  C_10
REMARK    3  A    between atoms: N_7  and  C_13
REMARK    4  A    between atoms: C_8  and  C_12
REMARK    5  A    between atoms: C_11  and  C_13
REMARK    6  A    between atoms: C_12  and  C_14
REMARK    7  A    between atoms: C_21  and  C_24
REMARK                            x       y       z     vdW  Elec       q    Type
REMARK                         _______ _______ _______ _____ _____    ______ ____
ROOT
ATOM      1  O   UNL     1      17.284  -9.247  26.450  0.00  0.00    -0.366 OA
ATOM      8  C   UNL     1      16.272 -10.195  26.859  0.00  0.00    +0.159 C 
ATOM      9  C   UNL     1      14.933  -9.604  26.432  0.00  0.00    +0.175 C 
ATOM     10  C   UNL     1      15.215  -8.116  26.479  0.00  0.00    +0.176 C 
ATOM     11  C   UNL     1      16.640  -8.061  25.953  0.00  0.00    +0.167 C 
ENDROOT
BRANCH   9   2
ATOM      2  O   UNL     1      14.674 -10.017  25.091  0.00  0.00    -0.387 OA
ATOM     30  H   UNL     1      15.425 -10.565  24.805  0.00  0.00    +0.210 HD
ENDBRANCH   9   2
BRANCH  10   3
ATOM      3  O   UNL     1      14.329  -7.353  25.689  0.00  0.00    -0.387 OA
ATOM     31  H   UNL     1      13.742  -6.869  26.294  0.00  0.00    +0.210 HD
ENDBRANCH  10   3
BRANCH   8  12
ATOM     12  C   UNL     1      16.389 -10.380  28.366  0.00  0.00    +0.130 C 
BRANCH  12  14
ATOM      4  O   UNL     1      16.438  -8.124  29.092  0.00  0.00    -0.275 OA
ATOM      6  N   UNL     1      14.571  -9.400  29.670  0.00  0.00    -0.271 N 
ATOM     14  C   UNL     1      15.807  -9.182  29.078  0.00  0.00    +0.222 C 
ATOM     15  C   UNL     1      13.816 -10.671  29.651  0.00  0.00    +0.118 C 
ATOM     16  C   UNL     1      12.509 -10.449  30.419  0.00  0.00    +0.056 C 
ATOM     17  C   UNL     1      13.821  -8.448  30.391  0.00  0.00    +0.039 A 
ATOM     18  C   UNL     1      12.627  -9.020  30.838  0.00  0.00    -0.024 A 
ATOM     19  C   UNL     1      14.119  -7.124  30.676  0.00  0.00    +0.024 A 
ATOM     20  C   UNL     1      11.709  -8.289  31.575  0.00  0.00    +0.005 A 
ATOM     22  C   UNL     1      13.198  -6.378  31.420  0.00  0.00    +0.002 A 
ATOM     23  C   UNL     1      12.001  -6.956  31.866  0.00  0.00    +0.000 A 
ENDBRANCH  12  14
ENDBRANCH   8  12
BRANCH  11  13
ATOM     13  C   UNL     1      17.405  -6.832  26.414  0.00  0.00    +0.138 C 
BRANCH  13   7
ATOM      5  O   UNL     1      17.402  -4.044  27.098  0.00  0.00    -0.270 OA
ATOM      7  N   UNL     1      17.205  -5.732  25.519  0.00  0.00    -0.309 N 
ATOM     21  C   UNL     1      17.220  -4.404  25.938  0.00  0.00    +0.244 C 
ATOM     32  H   UNL     1      17.102  -5.956  24.534  0.00  0.00    +0.149 HD
BRANCH  21  24
ATOM     24  C   UNL     1      16.969  -3.381  24.892  0.00  0.00    +0.037 A 
ATOM     25  C   UNL     1      16.297  -3.732  23.720  0.00  0.00    +0.013 A 
ATOM     26  C   UNL     1      17.405  -2.069  25.080  0.00  0.00    +0.013 A 
ATOM     27  C   UNL     1      16.063  -2.771  22.737  0.00  0.00    +0.001 A 
ATOM     28  C   UNL     1      17.171  -1.108  24.096  0.00  0.00    +0.001 A 
ATOM     29  C   UNL     1      16.499  -1.458  22.925  0.00  0.00    +0.000 A 
ENDBRANCH  21  24
ENDBRANCH  13   7
ENDBRANCH  11  13
TORSDOF 7
ENDMDL
MODEL 5
REMARK VINA RESULT:      -3.3     17.509     19.474
REMARK  Name = 40777854
REMARK  7 active torsions:
REMARK  status: ('A' for Active; 'I' for Inactive)
REMARK    1  A    between atoms: O_2  and  C_9
REMARK    2  A    between atoms: O_3  and  C_10
REMARK    3  A    between atoms: N_7  and  C_13
REMARK    4  A    between atoms: C_8  and  C_12
REMARK    5  A    between atoms: C_11  and  C_13
REMARK    6  A    between atoms: C_12  and  C_14
REMARK    7  A    between atoms: C_21  and  C_24
REMARK                            x       y       z     vdW  Elec       q    Type
REMARK                         _______ _______ _______ _____ _____    ______ ____
ROOT
ATOM      1  O   UNL     1      16.439  -9.979  28.118  0.00  0.00    -0.366 OA
ATOM      8  C   UNL     1      15.092 -10.504  28.116  0.00  0.00    +0.159 C 
ATOM      9  C   UNL     1      14.405  -9.918  26.887  0.00  0.00    +0.175 C 
ATOM     10  C   UNL     1      15.137  -8.604  26.713  0.00  0.00    +0.176 C 
ATOM     11  C   UNL     1      16.560  -8.999  27.072  0.00  0.00    +0.167 C 
ENDROOT
BRANCH   9   2
ATOM      2  O   UNL     1      14.665 -10.781  25.780  0.00  0.00    -0.387 OA
ATOM     30  H   UNL     1      13.880 -10.762  25.207  0.00  0.00    +0.210 HD
ENDBRANCH   9   2
BRANCH  10   3
ATOM      3  O   UNL     1      15.047  -8.082  25.405  0.00  0.00    -0.387 OA
ATOM     31  H   UNL     1      14.132  -7.777  25.275  0.00  0.00    +0.210 HD
ENDBRANCH  10   3
BRANCH   8  12
ATOM     12  C   UNL     1      14.429 -10.092  29.424  0.00  0.00    +0.130 C 
BRANCH  12  14
ATOM      4  O   UNL     1      16.464  -9.380  30.409  0.00  0.00    -0.275 OA
ATOM      6  N   UNL     1      14.668  -7.889  30.451  0.00  0.00    -0.271 N 
ATOM     14  C   UNL     1      15.297  -9.088  30.145  0.00  0.00    +0.222 C 
ATOM     15  C   UNL     1      13.267  -7.541  30.132  0.00  0.00    +0.118 C 
ATOM     16  C   UNL     1      13.009  -6.122  30.648  0.00  0.00    +0.056 C 
ATOM     17  C   UNL     1      15.256  -6.795  31.119  0.00  0.00    +0.039 A 
ATOM     18  C   UNL     1      14.327  -5.760  31.250  0.00  0.00    -0.024 A 
ATOM     19  C   UNL     1      16.544  -6.653  31.613  0.00  0.00    +0.024 A 
ATOM     20  C   UNL     1      14.659  -4.567  31.873  0.00  0.00    +0.005 A 
ATOM     22  C   UNL     1      16.889  -5.453  32.245  0.00  0.00    +0.002 A 
ATOM     23  C   UNL     1      15.953  -4.417  32.374  0.00  0.00    +0.000 A 
ENDBRANCH  12  14
ENDBRANCH   8  12
BRANCH  11  13
ATOM     13  C   UNL     1      17.404  -7.833  27.559  0.00  0.00    +0.138 C 
BRANCH  13   7
ATOM      5  O   UNL     1      16.973  -5.059  28.159  0.00  0.00    -0.270 OA
ATOM      7  N   UNL     1      17.378  -6.749  26.622  0.00  0.00    -0.309 N 
ATOM     21  C   UNL     1      17.161  -5.427  27.003  0.00  0.00    +0.244 C 
ATOM     32  H   UNL     1      17.580  -6.976  25.654  0.00  0.00    +0.149 HD
BRANCH  21  24
ATOM     24  C   UNL     1      17.137  -4.423  25.909  0.00  0.00    +0.037 A 
ATOM     25  C   UNL     1      16.949  -4.835  24.588  0.00  0.00    +0.013 A 
ATOM     26  C   UNL     1      17.302  -3.069  26.200  0.00  0.00    +0.013 A 
ATOM     27  C   UNL     1      16.927  -3.893  23.561  0.00  0.00    +0.001 A 
ATOM     28  C   UNL     1      17.281  -2.127  25.172  0.00  0.00    +0.001 A 
ATOM     29  C   UNL     1      17.092  -2.538  23.852  0.00  0.00    +0.000 A 
ENDBRANCH  21  24
ENDBRANCH  13   7
ENDBRANCH  11  13
TORSDOF 7
ENDMDL
MODEL 6
REMARK VINA RESULT:      -2.6      2.591      5.130
REMARK  Name = 40777854
REMARK  7 active torsions:
REMARK  status: ('A' for Active; 'I' for Inactive)
REMARK    1  A    between atoms: O_2  and  C_9
REMARK    2  A    between atoms: O_3  and  C_10
REMARK    3  A    between atoms: N_7  and  C_13
REMARK    4  A    between atoms: C_8  and  C_12
REMARK    5  A    between atoms: C_11  and  C_13
REMARK    6  A    between atoms: C_12  and  C_14
REMARK    7  A    between atoms: C_21  and  C_24
REMARK                            x       y       z     vdW  Elec       q    Type
REMARK                         _______ _______ _______ _____ _____    ______ ____
ROOT
ATOM      1  O   UNL     1       0.920   3.113  24.344  0.00  0.00    -0.366 OA
ATOM      8  C   UNL     1       0.295   3.902  25.381  0.00  0.00    +0.159 C 
ATOM      9  C   UNL     1      -0.178   2.917  26.444  0.00  0.00    +0.175 C 
ATOM     10  C   UNL     1      -0.433   1.669  25.626  0.00  0.00    +0.176 C 
ATOM     11  C   UNL     1       0.714   1.718  24.630  0.00  0.00    +0.167 C 
ENDROOT
BRANCH   9   2
ATOM      2  O   UNL     1       0.897   2.701  27.358  0.00  0.00    -0.387 OA
ATOM     30  H   UNL     1       1.332   3.558  27.503  0.00  0.00    +0.210 HD
ENDBRANCH   9   2
BRANCH  10   3
ATOM      3  O   UNL     1      -0.418   0.484  26.393  0.00  0.00    -0.387 OA
ATOM     31  H   UNL     1      -0.846   0.682  27.244  0.00  0.00    +0.210 HD
ENDBRANCH  10   3
BRANCH   8  12
ATOM     12  C   UNL     1      -0.843   4.689  24.746  0.00  0.00    +0.130 C 
BRANCH  12  14
ATOM      4  O   UNL     1      -2.421   4.797  26.512  0.00  0.00    -0.275 OA
ATOM      6  N   UNL     1      -2.951   3.456  24.676  0.00  0.00    -0.271 N 
ATOM     14  C   UNL     1      -2.152   4.324  25.408  0.00  0.00    +0.222 C 
ATOM     15  C   UNL     1      -2.625   2.890  23.351  0.00  0.00    +0.118 C 
ATOM     16  C   UNL     1      -3.794   1.996  22.924  0.00  0.00    +0.056 C 
ATOM     17  C   UNL     1      -4.213   2.965  25.071  0.00  0.00    +0.039 A 
ATOM     18  C   UNL     1      -4.726   2.120  24.084  0.00  0.00    -0.024 A 
ATOM     19  C   UNL     1      -4.931   3.212  26.232  0.00  0.00    +0.024 A 
ATOM     20  C   UNL     1      -5.960   1.505  24.232  0.00  0.00    +0.005 A 
ATOM     22  C   UNL     1      -6.177   2.597  26.389  0.00  0.00    +0.002 A 
ATOM     23  C   UNL     1      -6.689   1.749  25.397  0.00  0.00    +0.000 A 
ENDBRANCH  12  14
ENDBRANCH   8  12
BRANCH  11  13
ATOM     13  C   UNL     1       0.425   0.968  23.341  0.00  0.00    +0.138 C 
BRANCH  13   7
ATOM      5  O   UNL     1       0.151  -1.553  24.687  0.00  0.00    -0.270 OA
ATOM      7  N   UNL     1      -0.769   0.185  23.456  0.00  0.00    -0.309 N 
ATOM     21  C   UNL     1      -0.812  -1.033  24.130  0.00  0.00    +0.244 C 
ATOM     32  H   UNL     1      -1.617   0.582  23.064  0.00  0.00    +0.149 HD
BRANCH  21  24
ATOM     24  C   UNL     1      -2.121  -1.736  24.136  0.00  0.00    +0.037 A 
ATOM     25  C   UNL     1      -3.284  -1.047  23.788  0.00  0.00    +0.013 A 
ATOM     26  C   UNL     1      -2.187  -3.084  24.488  0.00  0.00    +0.013 A 
ATOM     27  C   UNL     1      -4.512  -1.707  23.794  0.00  0.00    +0.001 A 
ATOM     28  C   UNL     1      -3.416  -3.743  24.494  0.00  0.00    +0.001 A 
ATOM     29  C   UNL     1      -4.579  -3.056  24.147  0.00  0.00    +0.000 A 
ENDBRANCH  21  24
ENDBRANCH  13   7
ENDBRANCH  11  13
TORSDOF 7
ENDMDL
