MODEL 1
REMARK VINA RESULT:      -3.0      0.000      0.000
REMARK  Name = 25338403
REMARK  7 active torsions:
REMARK  status: ('A' for Active; 'I' for Inactive)
REMARK    1  A    between atoms: O_4  and  C_17
REMARK    2  A    between atoms: O_4  and  C_21
REMARK    3  A    between atoms: N_5  and  C_14
REMARK    4  A    between atoms: N_6  and  C_9
REMARK    5  A    between atoms: C_10  and  C_13
REMARK    6  A    between atoms: C_15  and  C_17
REMARK    7  A    between atoms: C_16  and  C_18
REMARK                            x       y       z     vdW  Elec       q    Type
REMARK                         _______ _______ _______ _____ _____    ______ ____
ROOT
ATOM      5  N   UNL     1      -2.540  -0.555  25.653  0.00  0.00    -0.293 NA
ATOM      9  C   UNL     1      -4.411   0.097  24.424  0.00  0.00    +0.089 C 
ATOM     10  C   UNL     1      -2.176  -0.877  24.259  0.00  0.00    +0.147 C 
ATOM     11  C   UNL     1      -3.337  -0.314  23.416  0.00  0.00    +0.052 C 
ATOM     12  C   UNL     1      -4.005  -0.610  25.708  0.00  0.00    +0.107 C 
ATOM     14  C   UNL     1      -1.925  -1.447  26.627  0.00  0.00    +0.105 C 
ENDROOT
BRANCH  10  13
ATOM      2  O   UNL     1      -0.840   0.895  23.237  0.00  0.00    -0.336 OA
ATOM      7  N   UNL     1       0.361  -0.844  23.979  0.00  0.00    -0.190 NA
ATOM      8  N   UNL     1       0.498   1.194  22.949  0.00  0.00    -0.056 NA
ATOM     13  C   UNL     1      -0.831  -0.321  23.843  0.00  0.00    +0.245 A 
ATOM     16  C   UNL     1       1.144   0.122  23.417  0.00  0.00    +0.202 A 
BRANCH  16  18
ATOM      1 CL   UNL     1       7.052  -0.447  23.097  0.00  0.00    -0.084 Cl
ATOM     18  C   UNL     1       2.570  -0.015  23.338  0.00  0.00    +0.023 A 
ATOM     19  C   UNL     1       3.179  -1.199  23.750  0.00  0.00    +0.013 A 
ATOM     20  C   UNL     1       3.346   1.036  22.850  0.00  0.00    +0.013 A 
ATOM     22  C   UNL     1       4.566  -1.334  23.676  0.00  0.00    +0.021 A 
ATOM     23  C   UNL     1       4.732   0.902  22.776  0.00  0.00    +0.021 A 
ATOM     24  C   UNL     1       5.342  -0.281  23.189  0.00  0.00    +0.041 A 
ENDBRANCH  16  18
ENDBRANCH  10  13
BRANCH   9   6
ATOM      3  O   UNL     1      -6.230   1.599  26.097  0.00  0.00    -0.272 OA
ATOM      6  N   UNL     1      -4.451   1.530  24.602  0.00  0.00    -0.308 N 
ATOM     15  C   UNL     1      -5.365   2.160  25.430  0.00  0.00    +0.251 C 
ATOM     30  H   UNL     1      -3.813   2.097  24.050  0.00  0.00    +0.149 HD
BRANCH  15  17
ATOM     17  C   UNL     1      -5.180   3.663  25.427  0.00  0.00    +0.324 C 
BRANCH  17   4
ATOM      4  O   UNL     1      -4.197   4.046  26.366  0.00  0.00    -0.483 OA
BRANCH   4  21
ATOM     21  C   UNL     1      -2.893   4.081  25.930  0.00  0.00    +0.121 A 
ATOM     25  C   UNL     1      -2.417   5.197  25.243  0.00  0.00    +0.045 A 
ATOM     26  C   UNL     1      -2.047   2.999  26.176  0.00  0.00    +0.045 A 
ATOM     27  C   UNL     1      -1.094   5.232  24.801  0.00  0.00    +0.004 A 
ATOM     28  C   UNL     1      -0.724   3.035  25.735  0.00  0.00    +0.004 A 
ATOM     29  C   UNL     1      -0.248   4.151  25.047  0.00  0.00    +0.000 A 
ENDBRANCH   4  21
ENDBRANCH  17   4
ENDBRANCH  15  17
ENDBRANCH   9   6
TORSDOF 6
ENDMDL
