MODEL 1
REMARK VINA RESULT:       2.9      0.000      0.000
REMARK  Name = 45784181
REMARK  3 active torsions:
REMARK  status: ('A' for Active; 'I' for Inactive)
REMARK    1  A    between atoms: N_4  and  C_7
REMARK    2  A    between atoms: C_8  and  C_16
REMARK    3  A    between atoms: C_17  and  C_20
REMARK                            x       y       z     vdW  Elec       q    Type
REMARK                         _______ _______ _______ _____ _____    ______ ____
ROOT
ATOM      4  N   UNL     1      -2.581  -0.888  24.340  0.00  0.00    -0.299 NA
ATOM      8  C   UNL     1      -0.382  -1.695  24.232  0.00  0.00    +0.090 C 
ATOM      9  C   UNL     1      -1.412  -0.858  23.459  0.00  0.00    +0.097 C 
ATOM     10  C   UNL     1      -2.045  -0.684  25.686  0.00  0.00    +0.085 C 
ATOM     11  C   UNL     1      -0.820  -1.589  25.703  0.00  0.00    +0.029 C 
ENDROOT
BRANCH   8  16
ATOM      1 CL   UNL     1       6.998  -0.210  23.238  0.00  0.00    -0.083 Cl
ATOM      2  O   UNL     1       1.196  -0.090  23.296  0.00  0.00    -0.439 OA
ATOM      6  N   UNL     1       2.156  -1.889  24.285  0.00  0.00    -0.213 NA
ATOM     16  C   UNL     1       1.043  -1.270  23.962  0.00  0.00    +0.201 A 
ATOM     18  C   UNL     1       3.135  -1.057  23.796  0.00  0.00    +0.111 A 
ATOM     19  C   UNL     1       2.551   0.045  23.190  0.00  0.00    +0.155 A 
ATOM     21  C   UNL     1       4.534  -1.155  23.821  0.00  0.00    +0.051 A 
ATOM     22  C   UNL     1       3.252   1.084  22.593  0.00  0.00    +0.050 A 
ATOM     23  C   UNL     1       5.276  -0.124  23.226  0.00  0.00    +0.043 A 
ATOM     24  C   UNL     1       4.646   0.972  22.626  0.00  0.00    +0.024 A 
ENDBRANCH   8  16
BRANCH   4   7
ATOM      3  O   UNL     1      -4.214   5.039  24.244  0.00  0.00    -0.276 OA
ATOM      5  N   UNL     1      -4.701   2.768  24.301  0.00  0.00    -0.302 N 
ATOM      7  C   UNL     1      -3.575   0.120  23.979  0.00  0.00    +0.060 C 
ATOM     12  C   UNL     1      -4.418   0.491  25.206  0.00  0.00    +0.038 C 
ATOM     13  C   UNL     1      -2.881   1.364  23.410  0.00  0.00    +0.038 C 
ATOM     14  C   UNL     1      -5.403   1.614  24.876  0.00  0.00    +0.109 C 
ATOM     15  C   UNL     1      -3.895   2.468  23.115  0.00  0.00    +0.109 C 
ATOM     17  C   UNL     1      -4.785   4.079  24.769  0.00  0.00    +0.212 C 
ATOM     20  C   UNL     1      -5.633   4.306  25.995  0.00  0.00    +0.109 C 
ENDBRANCH   4   7
TORSDOF 2
ENDMDL
MODEL 2
REMARK VINA RESULT:       4.5      3.570      8.147
REMARK  Name = 45784181
REMARK  3 active torsions:
REMARK  status: ('A' for Active; 'I' for Inactive)
REMARK    1  A    between atoms: N_4  and  C_7
REMARK    2  A    between atoms: C_8  and  C_16
REMARK    3  A    between atoms: C_17  and  C_20
REMARK                            x       y       z     vdW  Elec       q    Type
REMARK                         _______ _______ _______ _____ _____    ______ ____
ROOT
ATOM      4  N   UNL     1      -0.197  -1.729  24.512  0.00  0.00    -0.299 NA
ATOM      8  C   UNL     1      -2.060  -0.790  25.584  0.00  0.00    +0.090 C 
ATOM      9  C   UNL     1      -0.666  -0.446  25.039  0.00  0.00    +0.097 C 
ATOM     10  C   UNL     1      -1.351  -2.294  23.812  0.00  0.00    +0.085 C 
ATOM     11  C   UNL     1      -2.497  -2.026  24.779  0.00  0.00    +0.029 C 
ENDROOT
BRANCH   8  16
ATOM      1 CL   UNL     1      -6.254   5.533  25.321  0.00  0.00    -0.083 Cl
ATOM      2  O   UNL     1      -4.343   0.056  25.476  0.00  0.00    -0.439 OA
ATOM      6  N   UNL     1      -2.744   1.662  25.520  0.00  0.00    -0.213 NA
ATOM     16  C   UNL     1      -3.019   0.376  25.527  0.00  0.00    +0.201 A 
ATOM     18  C   UNL     1      -3.984   2.250  25.460  0.00  0.00    +0.111 A 
ATOM     19  C   UNL     1      -4.965   1.271  25.433  0.00  0.00    +0.155 A 
ATOM     21  C   UNL     1      -4.371   3.598  25.425  0.00  0.00    +0.051 A 
ATOM     22  C   UNL     1      -6.330   1.519  25.373  0.00  0.00    +0.050 A 
ATOM     23  C   UNL     1      -5.741   3.888  25.364  0.00  0.00    +0.043 A 
ATOM     24  C   UNL     1      -6.700   2.868  25.339  0.00  0.00    +0.024 A 
ENDBRANCH   8  16
BRANCH   4   7
ATOM      3  O   UNL     1       5.514   0.412  23.733  0.00  0.00    -0.276 OA
ATOM      5  N   UNL     1       3.427  -0.227  22.938  0.00  0.00    -0.302 N 
ATOM      7  C   UNL     1       0.965  -1.581  23.639  0.00  0.00    +0.060 C 
ATOM     12  C   UNL     1       0.961  -0.191  22.989  0.00  0.00    +0.038 C 
ATOM     13  C   UNL     1       2.256  -1.795  24.439  0.00  0.00    +0.038 C 
ATOM     14  C   UNL     1       2.218   0.023  22.144  0.00  0.00    +0.109 C 
ATOM     15  C   UNL     1       3.486  -1.550  23.566  0.00  0.00    +0.109 C 
ATOM     17  C   UNL     1       4.491   0.661  23.090  0.00  0.00    +0.212 C 
ATOM     20  C   UNL     1       4.353   2.002  22.415  0.00  0.00    +0.109 C 
ENDBRANCH   4   7
TORSDOF 2
ENDMDL
MODEL 3
REMARK VINA RESULT:       4.7      1.590      2.269
REMARK  Name = 45784181
REMARK  3 active torsions:
REMARK  status: ('A' for Active; 'I' for Inactive)
REMARK    1  A    between atoms: N_4  and  C_7
REMARK    2  A    between atoms: C_8  and  C_16
REMARK    3  A    between atoms: C_17  and  C_20
REMARK                            x       y       z     vdW  Elec       q    Type
REMARK                         _______ _______ _______ _____ _____    ______ ____
ROOT
ATOM      4  N   UNL     1      -1.819   0.608  23.900  0.00  0.00    -0.299 NA
ATOM      8  C   UNL     1       0.181   0.018  22.826  0.00  0.00    +0.090 C 
ATOM      9  C   UNL     1      -0.487   1.149  23.622  0.00  0.00    +0.097 C 
ATOM     10  C   UNL     1      -1.587  -0.784  24.286  0.00  0.00    +0.085 C 
ATOM     11  C   UNL     1      -0.566  -1.255  23.258  0.00  0.00    +0.029 C 
ENDROOT
BRANCH   8  16
ATOM      1 CL   UNL     1       7.726   0.510  23.524  0.00  0.00    -0.083 Cl
ATOM      2  O   UNL     1       2.183  -1.207  23.486  0.00  0.00    -0.439 OA
ATOM      6  N   UNL     1       2.564   0.916  22.788  0.00  0.00    -0.213 NA
ATOM     16  C   UNL     1       1.680  -0.029  23.017  0.00  0.00    +0.201 A 
ATOM     18  C   UNL     1       3.756   0.325  23.133  0.00  0.00    +0.111 A 
ATOM     19  C   UNL     1       3.526  -0.975  23.560  0.00  0.00    +0.155 A 
ATOM     21  C   UNL     1       5.071   0.810  23.114  0.00  0.00    +0.051 A 
ATOM     22  C   UNL     1       4.514  -1.855  23.981  0.00  0.00    +0.050 A 
ATOM     23  C   UNL     1       6.096  -0.051  23.533  0.00  0.00    +0.043 A 
ATOM     24  C   UNL     1       5.820  -1.357  23.957  0.00  0.00    +0.024 A 
ENDBRANCH   8  16
BRANCH   4   7
ATOM      3  O   UNL     1      -6.967   3.433  25.722  0.00  0.00    -0.276 OA
ATOM      5  N   UNL     1      -4.662   3.139  25.735  0.00  0.00    -0.302 N 
ATOM      7  C   UNL     1      -2.521   1.363  24.935  0.00  0.00    +0.060 C 
ATOM     12  C   UNL     1      -2.485   2.861  24.610  0.00  0.00    +0.038 C 
ATOM     13  C   UNL     1      -3.970   0.874  25.052  0.00  0.00    +0.038 C 
ATOM     14  C   UNL     1      -3.295   3.663  25.629  0.00  0.00    +0.109 C 
ATOM     15  C   UNL     1      -4.750   1.714  26.062  0.00  0.00    +0.109 C 
ATOM     17  C   UNL     1      -5.828   3.890  25.591  0.00  0.00    +0.212 C 
ATOM     20  C   UNL     1      -5.654   5.350  25.252  0.00  0.00    +0.109 C 
ENDBRANCH   4   7
TORSDOF 2
ENDMDL
