MODEL 1
REMARK VINA RESULT:      -3.8      0.000      0.000
REMARK  Name = 28961644
REMARK  9 active torsions:
REMARK  status: ('A' for Active; 'I' for Inactive)
REMARK    1  A    between atoms: S_1  and  N_10
REMARK    2  A    between atoms: S_1  and  C_22
REMARK    3  A    between atoms: O_4  and  C_13
REMARK    4  A    between atoms: O_5  and  C_20
REMARK    5  A    between atoms: N_8  and  C_11
REMARK    6  A    between atoms: N_9  and  C_21
REMARK    7  A    between atoms: N_10  and  C_17
REMARK    8  A    between atoms: C_12  and  C_17
REMARK    9  A    between atoms: C_14  and  C_20
REMARK                            x       y       z     vdW  Elec       q    Type
REMARK                         _______ _______ _______ _____ _____    ______ ____
ROOT
ATOM      3  O   UNL     1      -0.410   3.452  25.397  0.00  0.00    -0.366 OA
ATOM     11  C   UNL     1      -1.801   1.523  25.508  0.00  0.00    +0.118 C 
ATOM     12  C   UNL     1      -0.412   2.038  25.105  0.00  0.00    +0.154 C 
ATOM     13  C   UNL     1      -2.675   2.762  25.381  0.00  0.00    +0.165 C 
ATOM     14  C   UNL     1      -1.713   3.836  25.877  0.00  0.00    +0.174 C 
ENDROOT
BRANCH  11   8
ATOM      8  N   UNL     1      -2.285   0.343  24.794  0.00  0.00    -0.292 NA
ATOM      9  N   UNL     1      -3.709  -2.168  24.639  0.00  0.00    -0.303 NA
ATOM     15  C   UNL     1      -1.732  -0.884  25.379  0.00  0.00    +0.100 C 
ATOM     16  C   UNL     1      -3.752   0.297  24.798  0.00  0.00    +0.100 C 
ATOM     18  C   UNL     1      -2.241  -2.122  24.635  0.00  0.00    +0.099 C 
ATOM     19  C   UNL     1      -4.261  -0.942  24.052  0.00  0.00    +0.099 C 
ATOM     21  C   UNL     1      -4.194  -3.349  23.928  0.00  0.00    +0.105 C 
ENDBRANCH  11   8
BRANCH  13   4
ATOM      4  O   UNL     1      -3.037   3.008  24.028  0.00  0.00    -0.388 OA
ATOM     26  H   UNL     1      -2.221   3.006  23.500  0.00  0.00    +0.210 HD
ENDBRANCH  13   4
BRANCH  12  17
ATOM     17  C   UNL     1      -0.022   1.877  23.639  0.00  0.00    +0.139 C 
BRANCH  17  10
ATOM     10  N   UNL     1       1.312   1.371  23.515  0.00  0.00    -0.187 NA
ATOM     27  H   UNL     1       2.013   2.080  23.265  0.00  0.00    +0.148 HD
BRANCH  10   1
ATOM      1  S   UNL     1       1.613  -0.219  22.920  0.00  0.00    +0.065 S 
ATOM      6  O   UNL     1       1.454  -0.211  21.478  0.00  0.00    -0.153 OA
ATOM      7  O   UNL     1       0.910  -1.198  23.726  0.00  0.00    -0.153 OA
BRANCH   1  22
ATOM      2  S   UNL     1       4.308   0.927  22.794  0.00  0.00    -0.077 S 
ATOM     22  C   UNL     1       3.336  -0.398  23.277  0.00  0.00    +0.142 A 
ATOM     23  C   UNL     1       4.077  -1.394  23.873  0.00  0.00    +0.036 A 
ATOM     24  C   UNL     1       5.463  -1.066  23.935  0.00  0.00    +0.010 A 
ATOM     25  C   UNL     1       5.727   0.169  23.384  0.00  0.00    +0.047 A 
ENDBRANCH   1  22
ENDBRANCH  10   1
ENDBRANCH  17  10
ENDBRANCH  12  17
BRANCH  14  20
ATOM     20  C   UNL     1      -2.019   5.250  25.418  0.00  0.00    +0.190 C 
BRANCH  20   5
ATOM      5  O   UNL     1      -0.902   5.752  24.703  0.00  0.00    -0.392 OA
ATOM     28  H   UNL     1      -0.473   4.993  24.272  0.00  0.00    +0.210 HD
ENDBRANCH  20   5
ENDBRANCH  14  20
TORSDOF 8
ENDMDL
MODEL 2
REMARK VINA RESULT:      -2.4      2.020      4.579
REMARK  Name = 28961644
REMARK  9 active torsions:
REMARK  status: ('A' for Active; 'I' for Inactive)
REMARK    1  A    between atoms: S_1  and  N_10
REMARK    2  A    between atoms: S_1  and  C_22
REMARK    3  A    between atoms: O_4  and  C_13
REMARK    4  A    between atoms: O_5  and  C_20
REMARK    5  A    between atoms: N_8  and  C_11
REMARK    6  A    between atoms: N_9  and  C_21
REMARK    7  A    between atoms: N_10  and  C_17
REMARK    8  A    between atoms: C_12  and  C_17
REMARK    9  A    between atoms: C_14  and  C_20
REMARK                            x       y       z     vdW  Elec       q    Type
REMARK                         _______ _______ _______ _____ _____    ______ ____
ROOT
ATOM      3  O   UNL     1      -2.222  -1.930  23.646  0.00  0.00    -0.366 OA
ATOM     11  C   UNL     1      -2.807   0.360  23.940  0.00  0.00    +0.118 C 
ATOM     12  C   UNL     1      -1.642  -0.608  23.690  0.00  0.00    +0.154 C 
ATOM     13  C   UNL     1      -3.828  -0.512  24.655  0.00  0.00    +0.165 C 
ATOM     14  C   UNL     1      -3.633  -1.833  23.919  0.00  0.00    +0.174 C 
ENDROOT
BRANCH  11   8
ATOM      8  N   UNL     1      -2.474   1.612  24.616  0.00  0.00    -0.292 NA
ATOM      9  N   UNL     1      -2.345   4.495  24.778  0.00  0.00    -0.303 NA
ATOM     15  C   UNL     1      -1.486   2.374  23.844  0.00  0.00    +0.100 C 
ATOM     16  C   UNL     1      -3.679   2.417  24.844  0.00  0.00    +0.100 C 
ATOM     18  C   UNL     1      -1.138   3.689  24.550  0.00  0.00    +0.099 C 
ATOM     19  C   UNL     1      -3.331   3.732  25.551  0.00  0.00    +0.099 C 
ATOM     21  C   UNL     1      -2.012   5.748  25.452  0.00  0.00    +0.105 C 
ENDBRANCH  11   8
BRANCH  13   4
ATOM      4  O   UNL     1      -3.512  -0.662  26.033  0.00  0.00    -0.388 OA
ATOM     26  H   UNL     1      -3.268  -1.591  26.180  0.00  0.00    +0.210 HD
ENDBRANCH  13   4
BRANCH  12  17
ATOM     17  C   UNL     1      -0.537  -0.633  24.742  0.00  0.00    +0.139 C 
BRANCH  17  10
ATOM     10  N   UNL     1       0.723  -0.978  24.156  0.00  0.00    -0.187 NA
ATOM     27  H   UNL     1       1.361  -1.481  24.786  0.00  0.00    +0.148 HD
BRANCH  10   1
ATOM      1  S   UNL     1       1.479   0.046  22.992  0.00  0.00    +0.065 S 
ATOM      6  O   UNL     1       1.231   1.426  23.361  0.00  0.00    -0.153 OA
ATOM      7  O   UNL     1       1.180  -0.415  21.649  0.00  0.00    -0.153 OA
BRANCH   1  22
ATOM      2  S   UNL     1       4.264   0.938  22.799  0.00  0.00    -0.077 S 
ATOM     22  C   UNL     1       3.187  -0.300  23.288  0.00  0.00    +0.142 A 
ATOM     23  C   UNL     1       3.850  -1.373  23.841  0.00  0.00    +0.036 A 
ATOM     24  C   UNL     1       5.261  -1.178  23.864  0.00  0.00    +0.010 A 
ATOM     25  C   UNL     1       5.622   0.039  23.328  0.00  0.00    +0.047 A 
ENDBRANCH   1  22
ENDBRANCH  10   1
ENDBRANCH  17  10
ENDBRANCH  12  17
BRANCH  14  20
ATOM     20  C   UNL     1      -4.083  -3.073  24.672  0.00  0.00    +0.190 C 
BRANCH  20   5
ATOM      5  O   UNL     1      -3.170  -3.323  25.728  0.00  0.00    -0.392 OA
ATOM     28  H   UNL     1      -2.973  -2.467  26.146  0.00  0.00    +0.210 HD
ENDBRANCH  20   5
ENDBRANCH  14  20
TORSDOF 8
ENDMDL
MODEL 3
REMARK VINA RESULT:      -1.1      3.397      5.533
REMARK  Name = 28961644
REMARK  9 active torsions:
REMARK  status: ('A' for Active; 'I' for Inactive)
REMARK    1  A    between atoms: S_1  and  N_10
REMARK    2  A    between atoms: S_1  and  C_22
REMARK    3  A    between atoms: O_4  and  C_13
REMARK    4  A    between atoms: O_5  and  C_20
REMARK    5  A    between atoms: N_8  and  C_11
REMARK    6  A    between atoms: N_9  and  C_21
REMARK    7  A    between atoms: N_10  and  C_17
REMARK    8  A    between atoms: C_12  and  C_17
REMARK    9  A    between atoms: C_14  and  C_20
REMARK                            x       y       z     vdW  Elec       q    Type
REMARK                         _______ _______ _______ _____ _____    ______ ____
ROOT
ATOM      3  O   UNL     1      -3.276  -1.550  23.335  0.00  0.00    -0.366 OA
ATOM     11  C   UNL     1      -4.585  -0.071  24.664  0.00  0.00    +0.118 C 
ATOM     12  C   UNL     1      -3.799  -0.204  23.352  0.00  0.00    +0.154 C 
ATOM     13  C   UNL     1      -3.917  -1.096  25.568  0.00  0.00    +0.165 C 
ATOM     14  C   UNL     1      -3.630  -2.209  24.566  0.00  0.00    +0.174 C 
ENDROOT
BRANCH  11   8
ATOM      8  N   UNL     1      -4.690   1.276  25.220  0.00  0.00    -0.292 NA
ATOM      9  N   UNL     1      -5.826   3.932  25.340  0.00  0.00    -0.303 NA
ATOM     15  C   UNL     1      -4.373   2.287  24.204  0.00  0.00    +0.100 C 
ATOM     16  C   UNL     1      -6.029   1.508  25.775  0.00  0.00    +0.100 C 
ATOM     18  C   UNL     1      -4.487   3.700  24.785  0.00  0.00    +0.099 C 
ATOM     19  C   UNL     1      -6.141   2.922  26.357  0.00  0.00    +0.099 C 
ATOM     21  C   UNL     1      -5.933   5.279  25.894  0.00  0.00    +0.105 C 
ENDBRANCH  11   8
BRANCH  13   4
ATOM      4  O   UNL     1      -2.704  -0.597  26.115  0.00  0.00    -0.388 OA
ATOM     26  H   UNL     1      -2.245  -1.340  26.541  0.00  0.00    +0.210 HD
ENDBRANCH  13   4
BRANCH  12  17
ATOM     17  C   UNL     1      -2.619   0.743  23.163  0.00  0.00    +0.139 C 
BRANCH  17  10
ATOM     10  N   UNL     1      -1.392   0.015  23.035  0.00  0.00    -0.187 NA
ATOM     27  H   UNL     1      -1.506  -0.958  22.721  0.00  0.00    +0.148 HD
BRANCH  10   1
ATOM      1  S   UNL     1      -0.063   0.306  24.096  0.00  0.00    +0.065 S 
ATOM      6  O   UNL     1       1.132   0.500  23.297  0.00  0.00    -0.153 OA
ATOM      7  O   UNL     1      -0.068  -0.657  25.180  0.00  0.00    -0.153 OA
BRANCH   1  22
ATOM      2  S   UNL     1      -0.208   3.216  23.779  0.00  0.00    -0.077 S 
ATOM     22  C   UNL     1      -0.514   1.868  24.789  0.00  0.00    +0.142 A 
ATOM     23  C   UNL     1      -1.071   2.240  25.993  0.00  0.00    +0.036 A 
ATOM     24  C   UNL     1      -1.249   3.650  26.088  0.00  0.00    +0.010 A 
ATOM     25  C   UNL     1      -0.822   4.302  24.952  0.00  0.00    +0.047 A 
ENDBRANCH   1  22
ENDBRANCH  10   1
ENDBRANCH  17  10
ENDBRANCH  12  17
BRANCH  14  20
ATOM     20  C   UNL     1      -2.520  -3.169  24.957  0.00  0.00    +0.190 C 
BRANCH  20   5
ATOM      5  O   UNL     1      -1.351  -2.840  24.225  0.00  0.00    -0.392 OA
ATOM     28  H   UNL     1      -1.489  -3.145  23.312  0.00  0.00    +0.210 HD
ENDBRANCH  20   5
ENDBRANCH  14  20
TORSDOF 8
ENDMDL
MODEL 4
REMARK VINA RESULT:      -1.0      2.918      5.746
REMARK  Name = 28961644
REMARK  9 active torsions:
REMARK  status: ('A' for Active; 'I' for Inactive)
REMARK    1  A    between atoms: S_1  and  N_10
REMARK    2  A    between atoms: S_1  and  C_22
REMARK    3  A    between atoms: O_4  and  C_13
REMARK    4  A    between atoms: O_5  and  C_20
REMARK    5  A    between atoms: N_8  and  C_11
REMARK    6  A    between atoms: N_9  and  C_21
REMARK    7  A    between atoms: N_10  and  C_17
REMARK    8  A    between atoms: C_12  and  C_17
REMARK    9  A    between atoms: C_14  and  C_20
REMARK                            x       y       z     vdW  Elec       q    Type
REMARK                         _______ _______ _______ _____ _____    ______ ____
ROOT
ATOM      3  O   UNL     1       1.408   1.693  24.469  0.00  0.00    -0.366 OA
ATOM     11  C   UNL     1      -0.762   2.615  24.139  0.00  0.00    +0.118 C 
ATOM     12  C   UNL     1       0.348   2.378  25.172  0.00  0.00    +0.154 C 
ATOM     13  C   UNL     1      -0.534   1.499  23.130  0.00  0.00    +0.165 C 
ATOM     14  C   UNL     1       0.989   1.442  23.115  0.00  0.00    +0.174 C 
ENDROOT
BRANCH  11   8
ATOM      8  N   UNL     1      -2.123   2.712  24.663  0.00  0.00    -0.292 NA
ATOM      9  N   UNL     1      -4.679   4.029  24.959  0.00  0.00    -0.303 NA
ATOM     15  C   UNL     1      -2.273   3.904  25.505  0.00  0.00    +0.100 C 
ATOM     16  C   UNL     1      -3.102   2.730  23.570  0.00  0.00    +0.100 C 
ATOM     18  C   UNL     1      -3.700   4.011  26.053  0.00  0.00    +0.099 C 
ATOM     19  C   UNL     1      -4.530   2.835  24.119  0.00  0.00    +0.099 C 
ATOM     21  C   UNL     1      -6.040   4.129  25.482  0.00  0.00    +0.105 C 
ENDBRANCH  11   8
BRANCH  13   4
ATOM      4  O   UNL     1      -1.071   0.264  23.587  0.00  0.00    -0.388 OA
ATOM     26  H   UNL     1      -1.233   0.350  24.542  0.00  0.00    +0.210 HD
ENDBRANCH  13   4
BRANCH  12  17
ATOM     17  C   UNL     1      -0.016   1.525  26.383  0.00  0.00    +0.139 C 
BRANCH  17  10
ATOM     10  N   UNL     1      -1.238   0.811  26.160  0.00  0.00    -0.187 NA
ATOM     27  H   UNL     1      -2.079   1.291  26.505  0.00  0.00    +0.148 HD
BRANCH  10   1
ATOM      1  S   UNL     1      -1.289  -0.912  26.209  0.00  0.00    +0.065 S 
ATOM      6  O   UNL     1      -1.546  -1.328  27.575  0.00  0.00    -0.153 OA
ATOM      7  O   UNL     1      -0.168  -1.468  25.476  0.00  0.00    -0.153 OA
BRANCH   1  22
ATOM      2  S   UNL     1      -2.746  -2.749  24.450  0.00  0.00    -0.077 S 
ATOM     22  C   UNL     1      -2.743  -1.239  25.257  0.00  0.00    +0.142 A 
ATOM     23  C   UNL     1      -3.897  -0.524  25.023  0.00  0.00    +0.036 A 
ATOM     24  C   UNL     1      -4.797  -1.225  24.169  0.00  0.00    +0.010 A 
ATOM     25  C   UNL     1      -4.295  -2.449  23.784  0.00  0.00    +0.047 A 
ENDBRANCH   1  22
ENDBRANCH  10   1
ENDBRANCH  17  10
ENDBRANCH  12  17
BRANCH  14  20
ATOM     20  C   UNL     1       1.589   0.129  22.641  0.00  0.00    +0.190 C 
BRANCH  20   5
ATOM      5  O   UNL     1       2.998   0.188  22.793  0.00  0.00    -0.392 OA
ATOM     28  H   UNL     1       3.219  -0.304  23.603  0.00  0.00    +0.210 HD
ENDBRANCH  20   5
ENDBRANCH  14  20
TORSDOF 8
ENDMDL
MODEL 5
REMARK VINA RESULT:      -0.9      3.573      6.072
REMARK  Name = 28961644
REMARK  9 active torsions:
REMARK  status: ('A' for Active; 'I' for Inactive)
REMARK    1  A    between atoms: S_1  and  N_10
REMARK    2  A    between atoms: S_1  and  C_22
REMARK    3  A    between atoms: O_4  and  C_13
REMARK    4  A    between atoms: O_5  and  C_20
REMARK    5  A    between atoms: N_8  and  C_11
REMARK    6  A    between atoms: N_9  and  C_21
REMARK    7  A    between atoms: N_10  and  C_17
REMARK    8  A    between atoms: C_12  and  C_17
REMARK    9  A    between atoms: C_14  and  C_20
REMARK                            x       y       z     vdW  Elec       q    Type
REMARK                         _______ _______ _______ _____ _____    ______ ____
ROOT
ATOM      3  O   UNL     1      -1.852  -1.833  24.117  0.00  0.00    -0.366 OA
ATOM     11  C   UNL     1      -3.241   0.089  23.898  0.00  0.00    +0.118 C 
ATOM     12  C   UNL     1      -1.823  -0.394  24.232  0.00  0.00    +0.154 C 
ATOM     13  C   UNL     1      -4.103  -1.113  24.255  0.00  0.00    +0.165 C 
ATOM     14  C   UNL     1      -3.195  -2.253  23.807  0.00  0.00    +0.174 C 
ENDROOT
BRANCH  11   8
ATOM      8  N   UNL     1      -3.653   1.354  24.504  0.00  0.00    -0.292 NA
ATOM      9  N   UNL     1      -5.494   3.550  24.877  0.00  0.00    -0.303 NA
ATOM     15  C   UNL     1      -3.815   2.393  23.481  0.00  0.00    +0.100 C 
ATOM     16  C   UNL     1      -4.895   1.186  25.267  0.00  0.00    +0.100 C 
ATOM     18  C   UNL     1      -4.251   3.718  24.114  0.00  0.00    +0.099 C 
ATOM     19  C   UNL     1      -5.329   2.512  25.900  0.00  0.00    +0.099 C 
ATOM     21  C   UNL     1      -5.908   4.815  25.481  0.00  0.00    +0.105 C 
ENDBRANCH  11   8
BRANCH  13   4
ATOM      4  O   UNL     1      -4.340  -1.188  25.655  0.00  0.00    -0.388 OA
ATOM     26  H   UNL     1      -5.205  -1.611  25.785  0.00  0.00    +0.210 HD
ENDBRANCH  13   4
BRANCH  12  17
ATOM     17  C   UNL     1      -1.298  -0.062  25.626  0.00  0.00    +0.139 C 
BRANCH  17  10
ATOM     10  N   UNL     1      -1.316   1.351  25.859  0.00  0.00    -0.187 NA
ATOM     27  H   UNL     1      -2.225   1.799  25.683  0.00  0.00    +0.148 HD
BRANCH  10   1
ATOM      1  S   UNL     1       0.070   2.327  25.543  0.00  0.00    +0.065 S 
ATOM      6  O   UNL     1       0.677   1.881  24.304  0.00  0.00    -0.153 OA
ATOM      7  O   UNL     1       0.874   2.460  26.743  0.00  0.00    -0.153 OA
BRANCH   1  22
ATOM      2  S   UNL     1      -2.086   4.211  26.174  0.00  0.00    -0.077 S 
ATOM     22  C   UNL     1      -0.680   3.901  25.247  0.00  0.00    +0.142 A 
ATOM     23  C   UNL     1      -0.367   4.953  24.414  0.00  0.00    +0.036 A 
ATOM     24  C   UNL     1      -1.294   6.027  24.538  0.00  0.00    +0.010 A 
ATOM     25  C   UNL     1      -2.280   5.756  25.462  0.00  0.00    +0.047 A 
ENDBRANCH   1  22
ENDBRANCH  10   1
ENDBRANCH  17  10
ENDBRANCH  12  17
BRANCH  14  20
ATOM     20  C   UNL     1      -3.463  -3.596  24.462  0.00  0.00    +0.190 C 
BRANCH  20   5
ATOM      5  O   UNL     1      -3.161  -3.500  25.845  0.00  0.00    -0.392 OA
ATOM     28  H   UNL     1      -3.437  -2.615  26.137  0.00  0.00    +0.210 HD
ENDBRANCH  20   5
ENDBRANCH  14  20
TORSDOF 8
ENDMDL
MODEL 6
REMARK VINA RESULT:      -0.8      3.080      7.117
REMARK  Name = 28961644
REMARK  9 active torsions:
REMARK  status: ('A' for Active; 'I' for Inactive)
REMARK    1  A    between atoms: S_1  and  N_10
REMARK    2  A    between atoms: S_1  and  C_22
REMARK    3  A    between atoms: O_4  and  C_13
REMARK    4  A    between atoms: O_5  and  C_20
REMARK    5  A    between atoms: N_8  and  C_11
REMARK    6  A    between atoms: N_9  and  C_21
REMARK    7  A    between atoms: N_10  and  C_17
REMARK    8  A    between atoms: C_12  and  C_17
REMARK    9  A    between atoms: C_14  and  C_20
REMARK                            x       y       z     vdW  Elec       q    Type
REMARK                         _______ _______ _______ _____ _____    ______ ____
ROOT
ATOM      3  O   UNL     1      -3.452  -0.388  25.173  0.00  0.00    -0.366 OA
ATOM     11  C   UNL     1      -1.112  -0.061  24.881  0.00  0.00    +0.118 C 
ATOM     12  C   UNL     1      -2.495   0.569  24.669  0.00  0.00    +0.154 C 
ATOM     13  C   UNL     1      -1.412  -1.553  24.879  0.00  0.00    +0.165 C 
ATOM     14  C   UNL     1      -2.752  -1.570  25.606  0.00  0.00    +0.174 C 
ENDROOT
BRANCH  11   8
ATOM      8  N   UNL     1      -0.059   0.364  23.961  0.00  0.00    -0.292 NA
ATOM      9  N   UNL     1       2.700   0.865  23.259  0.00  0.00    -0.303 NA
ATOM     15  C   UNL     1       0.664   1.523  24.495  0.00  0.00    +0.100 C 
ATOM     16  C   UNL     1       0.869  -0.738  23.686  0.00  0.00    +0.100 C 
ATOM     18  C   UNL     1       1.770   1.968  23.533  0.00  0.00    +0.099 C 
ATOM     19  C   UNL     1       1.975  -0.292  22.722  0.00  0.00    +0.099 C 
ATOM     21  C   UNL     1       3.754   1.290  22.340  0.00  0.00    +0.105 C 
ENDBRANCH  11   8
BRANCH  13   4
ATOM      4  O   UNL     1      -1.559  -2.053  23.556  0.00  0.00    -0.388 OA
ATOM     26  H   UNL     1      -2.506  -2.038  23.340  0.00  0.00    +0.210 HD
ENDBRANCH  13   4
BRANCH  12  17
ATOM     17  C   UNL     1      -2.888   0.887  23.230  0.00  0.00    +0.139 C 
BRANCH  17  10
ATOM     10  N   UNL     1      -2.679   2.273  22.935  0.00  0.00    -0.187 NA
ATOM     27  H   UNL     1      -1.821   2.470  22.403  0.00  0.00    +0.148 HD
BRANCH  10   1
ATOM      1  S   UNL     1      -3.175   3.507  24.033  0.00  0.00    +0.065 S 
ATOM      6  O   UNL     1      -3.593   4.666  23.267  0.00  0.00    -0.153 OA
ATOM      7  O   UNL     1      -2.204   3.648  25.100  0.00  0.00    -0.153 OA
BRANCH   1  22
ATOM      2  S   UNL     1      -4.957   3.264  26.347  0.00  0.00    -0.077 S 
ATOM     22  C   UNL     1      -4.620   2.774  24.742  0.00  0.00    +0.142 A 
ATOM     23  C   UNL     1      -5.551   1.876  24.269  0.00  0.00    +0.036 A 
ATOM     24  C   UNL     1      -6.555   1.585  25.237  0.00  0.00    +0.010 A 
ATOM     25  C   UNL     1      -6.353   2.273  26.413  0.00  0.00    +0.047 A 
ENDBRANCH   1  22
ENDBRANCH  10   1
ENDBRANCH  17  10
ENDBRANCH  12  17
BRANCH  14  20
ATOM     20  C   UNL     1      -3.620  -2.789  25.346  0.00  0.00    +0.190 C 
BRANCH  20   5
ATOM      5  O   UNL     1      -4.139  -2.709  24.028  0.00  0.00    -0.392 OA
ATOM     28  H   UNL     1      -3.414  -2.934  23.421  0.00  0.00    +0.210 HD
ENDBRANCH  20   5
ENDBRANCH  14  20
TORSDOF 8
ENDMDL
MODEL 7
REMARK VINA RESULT:      -0.8      2.550      5.954
REMARK  Name = 28961644
REMARK  9 active torsions:
REMARK  status: ('A' for Active; 'I' for Inactive)
REMARK    1  A    between atoms: S_1  and  N_10
REMARK    2  A    between atoms: S_1  and  C_22
REMARK    3  A    between atoms: O_4  and  C_13
REMARK    4  A    between atoms: O_5  and  C_20
REMARK    5  A    between atoms: N_8  and  C_11
REMARK    6  A    between atoms: N_9  and  C_21
REMARK    7  A    between atoms: N_10  and  C_17
REMARK    8  A    between atoms: C_12  and  C_17
REMARK    9  A    between atoms: C_14  and  C_20
REMARK                            x       y       z     vdW  Elec       q    Type
REMARK                         _______ _______ _______ _____ _____    ______ ____
ROOT
ATOM      3  O   UNL     1       1.638   2.008  23.700  0.00  0.00    -0.366 OA
ATOM     11  C   UNL     1      -0.174   0.503  23.348  0.00  0.00    +0.118 C 
ATOM     12  C   UNL     1       0.247   1.809  24.036  0.00  0.00    +0.154 C 
ATOM     13  C   UNL     1       1.138  -0.257  23.226  0.00  0.00    +0.165 C 
ATOM     14  C   UNL     1       2.098   0.887  22.921  0.00  0.00    +0.174 C 
ENDROOT
BRANCH  11   8
ATOM      8  N   UNL     1      -1.267  -0.235  23.977  0.00  0.00    -0.292 NA
ATOM      9  N   UNL     1      -3.473  -2.103  23.932  0.00  0.00    -0.303 NA
ATOM     15  C   UNL     1      -2.554   0.122  23.371  0.00  0.00    +0.100 C 
ATOM     16  C   UNL     1      -1.039  -1.682  23.883  0.00  0.00    +0.100 C 
ATOM     18  C   UNL     1      -3.701  -0.655  24.026  0.00  0.00    +0.099 C 
ATOM     19  C   UNL     1      -2.186  -2.458  24.540  0.00  0.00    +0.099 C 
ATOM     21  C   UNL     1      -4.567  -2.842  24.558  0.00  0.00    +0.105 C 
ENDBRANCH  11   8
BRANCH  13   4
ATOM      4  O   UNL     1       1.491  -0.887  24.451  0.00  0.00    -0.388 OA
ATOM     26  H   UNL     1       2.329  -1.358  24.309  0.00  0.00    +0.210 HD
ENDBRANCH  13   4
BRANCH  12  17
ATOM     17  C   UNL     1       0.140   1.845  25.557  0.00  0.00    +0.139 C 
BRANCH  17  10
ATOM     10  N   UNL     1      -0.625   2.976  25.992  0.00  0.00    -0.187 NA
ATOM     27  H   UNL     1      -1.154   2.822  26.860  0.00  0.00    +0.148 HD
BRANCH  10   1
ATOM      1  S   UNL     1      -1.349   4.055  24.859  0.00  0.00    +0.065 S 
ATOM      6  O   UNL     1      -0.824   3.760  23.539  0.00  0.00    -0.153 OA
ATOM      7  O   UNL     1      -1.319   5.412  25.370  0.00  0.00    -0.153 OA
BRANCH   1  22
ATOM      2  S   UNL     1      -3.812   3.738  26.417  0.00  0.00    -0.077 S 
ATOM     22  C   UNL     1      -3.034   3.523  24.907  0.00  0.00    +0.142 A 
ATOM     23  C   UNL     1      -3.872   2.961  23.969  0.00  0.00    +0.036 A 
ATOM     24  C   UNL     1      -5.170   2.703  24.497  0.00  0.00    +0.010 A 
ATOM     25  C   UNL     1      -5.275   3.079  25.818  0.00  0.00    +0.047 A 
ENDBRANCH   1  22
ENDBRANCH  10   1
ENDBRANCH  17  10
ENDBRANCH  12  17
BRANCH  14  20
ATOM     20  C   UNL     1       3.557   0.619  23.246  0.00  0.00    +0.190 C 
BRANCH  20   5
ATOM      5  O   UNL     1       3.775  -0.783  23.250  0.00  0.00    -0.392 OA
ATOM     28  H   UNL     1       2.972  -1.196  23.611  0.00  0.00    +0.210 HD
ENDBRANCH  20   5
ENDBRANCH  14  20
TORSDOF 8
ENDMDL
MODEL 8
REMARK VINA RESULT:      -0.8      1.995      2.668
REMARK  Name = 28961644
REMARK  9 active torsions:
REMARK  status: ('A' for Active; 'I' for Inactive)
REMARK    1  A    between atoms: S_1  and  N_10
REMARK    2  A    between atoms: S_1  and  C_22
REMARK    3  A    between atoms: O_4  and  C_13
REMARK    4  A    between atoms: O_5  and  C_20
REMARK    5  A    between atoms: N_8  and  C_11
REMARK    6  A    between atoms: N_9  and  C_21
REMARK    7  A    between atoms: N_10  and  C_17
REMARK    8  A    between atoms: C_12  and  C_17
REMARK    9  A    between atoms: C_14  and  C_20
REMARK                            x       y       z     vdW  Elec       q    Type
REMARK                         _______ _______ _______ _____ _____    ______ ____
ROOT
ATOM      3  O   UNL     1      -3.089   3.964  25.227  0.00  0.00    -0.366 OA
ATOM     11  C   UNL     1      -3.353   1.617  25.522  0.00  0.00    +0.118 C 
ATOM     12  C   UNL     1      -2.397   2.712  25.030  0.00  0.00    +0.154 C 
ATOM     13  C   UNL     1      -4.723   2.256  25.348  0.00  0.00    +0.165 C 
ATOM     14  C   UNL     1      -4.410   3.697  25.733  0.00  0.00    +0.174 C 
ENDROOT
BRANCH  11   8
ATOM      8  N   UNL     1      -3.197   0.300  24.908  0.00  0.00    -0.292 NA
ATOM      9  N   UNL     1      -3.851  -2.502  24.623  0.00  0.00    -0.303 NA
ATOM     15  C   UNL     1      -2.759  -0.689  25.900  0.00  0.00    +0.100 C 
ATOM     16  C   UNL     1      -4.448  -0.130  24.272  0.00  0.00    +0.100 C 
ATOM     18  C   UNL     1      -2.599  -2.071  25.259  0.00  0.00    +0.099 C 
ATOM     19  C   UNL     1      -4.286  -1.513  23.631  0.00  0.00    +0.099 C 
ATOM     21  C   UNL     1      -3.697  -3.820  24.011  0.00  0.00    +0.105 C 
ENDBRANCH  11   8
BRANCH  13   4
ATOM      4  O   UNL     1      -5.162   2.187  23.998  0.00  0.00    -0.388 OA
ATOM     26  H   UNL     1      -5.669   2.995  23.812  0.00  0.00    +0.210 HD
ENDBRANCH  13   4
BRANCH  12  17
ATOM     17  C   UNL     1      -1.982   2.650  23.564  0.00  0.00    +0.139 C 
BRANCH  17  10
ATOM     10  N   UNL     1      -0.981   1.646  23.355  0.00  0.00    -0.187 NA
ATOM     27  H   UNL     1      -1.312   0.816  22.847  0.00  0.00    +0.148 HD
BRANCH  10   1
ATOM      1  S   UNL     1       0.259   1.363  24.519  0.00  0.00    +0.065 S 
ATOM      6  O   UNL     1      -0.100   0.194  25.301  0.00  0.00    -0.153 OA
ATOM      7  O   UNL     1       0.617   2.602  25.182  0.00  0.00    -0.153 OA
BRANCH   1  22
ATOM      2  S   UNL     1       1.270  -0.298  22.326  0.00  0.00    -0.077 S 
ATOM     22  C   UNL     1       1.616   0.923  23.475  0.00  0.00    +0.142 A 
ATOM     23  C   UNL     1       2.918   1.363  23.385  0.00  0.00    +0.036 A 
ATOM     24  C   UNL     1       3.642   0.689  22.360  0.00  0.00    +0.010 A 
ATOM     25  C   UNL     1       2.864  -0.241  21.705  0.00  0.00    +0.047 A 
ENDBRANCH   1  22
ENDBRANCH  10   1
ENDBRANCH  17  10
ENDBRANCH  12  17
BRANCH  14  20
ATOM     20  C   UNL     1      -5.373   4.740  25.193  0.00  0.00    +0.190 C 
BRANCH  20   5
ATOM      5  O   UNL     1      -6.575   4.686  25.944  0.00  0.00    -0.392 OA
ATOM     28  H   UNL     1      -6.926   5.592  25.989  0.00  0.00    +0.210 HD
ENDBRANCH  20   5
ENDBRANCH  14  20
TORSDOF 8
ENDMDL
MODEL 9
REMARK VINA RESULT:      -0.6      3.539      5.417
REMARK  Name = 28961644
REMARK  9 active torsions:
REMARK  status: ('A' for Active; 'I' for Inactive)
REMARK    1  A    between atoms: S_1  and  N_10
REMARK    2  A    between atoms: S_1  and  C_22
REMARK    3  A    between atoms: O_4  and  C_13
REMARK    4  A    between atoms: O_5  and  C_20
REMARK    5  A    between atoms: N_8  and  C_11
REMARK    6  A    between atoms: N_9  and  C_21
REMARK    7  A    between atoms: N_10  and  C_17
REMARK    8  A    between atoms: C_12  and  C_17
REMARK    9  A    between atoms: C_14  and  C_20
REMARK                            x       y       z     vdW  Elec       q    Type
REMARK                         _______ _______ _______ _____ _____    ______ ____
ROOT
ATOM      3  O   UNL     1      -2.275   4.155  23.734  0.00  0.00    -0.366 OA
ATOM     11  C   UNL     1      -0.468   2.767  24.423  0.00  0.00    +0.118 C 
ATOM     12  C   UNL     1      -1.607   2.917  23.406  0.00  0.00    +0.154 C 
ATOM     13  C   UNL     1      -0.969   3.565  25.618  0.00  0.00    +0.165 C 
ATOM     14  C   UNL     1      -1.667   4.721  24.911  0.00  0.00    +0.174 C 
ENDROOT
BRANCH  11   8
ATOM      8  N   UNL     1      -0.042   1.401  24.720  0.00  0.00    -0.292 NA
ATOM      9  N   UNL     1      -0.423  -1.464  24.755  0.00  0.00    -0.303 NA
ATOM     15  C   UNL     1      -0.956   0.766  25.676  0.00  0.00    +0.100 C 
ATOM     16  C   UNL     1       0.049   0.605  23.490  0.00  0.00    +0.100 C 
ATOM     18  C   UNL     1      -0.513  -0.668  25.985  0.00  0.00    +0.099 C 
ATOM     19  C   UNL     1       0.493  -0.829  23.801  0.00  0.00    +0.099 C 
ATOM     21  C   UNL     1       0.000  -2.831  25.051  0.00  0.00    +0.105 C 
ENDBRANCH  11   8
BRANCH  13   4
ATOM      4  O   UNL     1      -1.903   2.819  26.388  0.00  0.00    -0.388 OA
ATOM     26  H   UNL     1      -2.527   2.402  25.771  0.00  0.00    +0.210 HD
ENDBRANCH  13   4
BRANCH  12  17
ATOM     17  C   UNL     1      -2.666   1.819  23.399  0.00  0.00    +0.139 C 
BRANCH  17  10
ATOM     10  N   UNL     1      -3.950   2.341  23.761  0.00  0.00    -0.187 NA
ATOM     27  H   UNL     1      -4.008   3.368  23.755  0.00  0.00    +0.148 HD
BRANCH  10   1
ATOM      1  S   UNL     1      -4.946   1.544  24.921  0.00  0.00    +0.065 S 
ATOM      6  O   UNL     1      -6.328   1.651  24.494  0.00  0.00    -0.153 OA
ATOM      7  O   UNL     1      -4.564   1.937  26.264  0.00  0.00    -0.153 OA
BRANCH   1  22
ATOM      2  S   UNL     1      -3.861  -0.895  26.132  0.00  0.00    -0.077 S 
ATOM     22  C   UNL     1      -4.440  -0.137  24.710  0.00  0.00    +0.142 A 
ATOM     23  C   UNL     1      -4.412  -0.984  23.624  0.00  0.00    +0.036 A 
ATOM     24  C   UNL     1      -3.909  -2.273  23.964  0.00  0.00    +0.010 A 
ATOM     25  C   UNL     1      -3.572  -2.362  25.297  0.00  0.00    +0.047 A 
ENDBRANCH   1  22
ENDBRANCH  10   1
ENDBRANCH  17  10
ENDBRANCH  12  17
BRANCH  14  20
ATOM     20  C   UNL     1      -2.727   5.440  25.726  0.00  0.00    +0.190 C 
BRANCH  20   5
ATOM      5  O   UNL     1      -3.876   4.613  25.814  0.00  0.00    -0.392 OA
ATOM     28  H   UNL     1      -3.933   4.111  24.983  0.00  0.00    +0.210 HD
ENDBRANCH  20   5
ENDBRANCH  14  20
TORSDOF 8
ENDMDL
MODEL 10
REMARK VINA RESULT:      -0.3      3.398      6.919
REMARK  Name = 28961644
REMARK  9 active torsions:
REMARK  status: ('A' for Active; 'I' for Inactive)
REMARK    1  A    between atoms: S_1  and  N_10
REMARK    2  A    between atoms: S_1  and  C_22
REMARK    3  A    between atoms: O_4  and  C_13
REMARK    4  A    between atoms: O_5  and  C_20
REMARK    5  A    between atoms: N_8  and  C_11
REMARK    6  A    between atoms: N_9  and  C_21
REMARK    7  A    between atoms: N_10  and  C_17
REMARK    8  A    between atoms: C_12  and  C_17
REMARK    9  A    between atoms: C_14  and  C_20
REMARK                            x       y       z     vdW  Elec       q    Type
REMARK                         _______ _______ _______ _____ _____    ______ ____
ROOT
ATOM      3  O   UNL     1      -3.537  -1.039  25.549  0.00  0.00    -0.366 OA
ATOM     11  C   UNL     1      -1.238  -0.649  25.068  0.00  0.00    +0.118 C 
ATOM     12  C   UNL     1      -2.615   0.016  25.203  0.00  0.00    +0.154 C 
ATOM     13  C   UNL     1      -1.587  -2.086  24.708  0.00  0.00    +0.165 C 
ATOM     14  C   UNL     1      -2.832  -2.295  25.564  0.00  0.00    +0.174 C 
ENDROOT
BRANCH  11   8
ATOM      8  N   UNL     1      -0.289   0.006  24.171  0.00  0.00    -0.292 NA
ATOM      9  N   UNL     1       2.334   1.010  23.485  0.00  0.00    -0.303 NA
ATOM     15  C   UNL     1       0.238   1.234  24.775  0.00  0.00    +0.100 C 
ATOM     16  C   UNL     1       0.807  -0.904  23.819  0.00  0.00    +0.100 C 
ATOM     18  C   UNL     1       1.236   1.920  23.837  0.00  0.00    +0.099 C 
ATOM     19  C   UNL     1       1.805  -0.217  22.879  0.00  0.00    +0.099 C 
ATOM     21  C   UNL     1       3.285   1.664  22.590  0.00  0.00    +0.105 C 
ENDBRANCH  11   8
BRANCH  13   4
ATOM      4  O   UNL     1      -1.907  -2.214  23.329  0.00  0.00    -0.388 OA
ATOM     26  H   UNL     1      -1.926  -3.163  23.118  0.00  0.00    +0.210 HD
ENDBRANCH  13   4
BRANCH  12  17
ATOM     17  C   UNL     1      -3.164   0.708  23.960  0.00  0.00    +0.139 C 
BRANCH  17  10
ATOM     10  N   UNL     1      -4.589   0.841  24.033  0.00  0.00    -0.187 NA
ATOM     27  H   UNL     1      -5.079   0.653  23.148  0.00  0.00    +0.148 HD
BRANCH  10   1
ATOM      1  S   UNL     1      -5.326   2.014  25.059  0.00  0.00    +0.065 S 
ATOM      6  O   UNL     1      -5.622   1.391  26.335  0.00  0.00    -0.153 OA
ATOM      7  O   UNL     1      -6.362   2.730  24.339  0.00  0.00    -0.153 OA
BRANCH   1  22
ATOM      2  S   UNL     1      -3.469   3.954  23.885  0.00  0.00    -0.077 S 
ATOM     22  C   UNL     1      -3.990   3.146  25.302  0.00  0.00    +0.142 A 
ATOM     23  C   UNL     1      -3.264   3.525  26.410  0.00  0.00    +0.036 A 
ATOM     24  C   UNL     1      -2.267   4.491  26.092  0.00  0.00    +0.010 A 
ATOM     25  C   UNL     1      -2.269   4.815  24.753  0.00  0.00    +0.047 A 
ENDBRANCH   1  22
ENDBRANCH  10   1
ENDBRANCH  17  10
ENDBRANCH  12  17
BRANCH  14  20
ATOM     20  C   UNL     1      -3.765  -3.399  25.100  0.00  0.00    +0.190 C 
BRANCH  20   5
ATOM      5  O   UNL     1      -4.454  -2.959  23.941  0.00  0.00    -0.392 OA
ATOM     28  H   UNL     1      -3.975  -3.311  23.172  0.00  0.00    +0.210 HD
ENDBRANCH  20   5
ENDBRANCH  14  20
TORSDOF 8
ENDMDL
