MODEL 1
REMARK VINA RESULT:      -3.3      0.000      0.000
REMARK  Name = 44716236
REMARK  8 active torsions:
REMARK  status: ('A' for Active; 'I' for Inactive)
REMARK    1  A    between atoms: S_1  and  C_22
REMARK    2  A    between atoms: S_1  and  C_26
REMARK    3  A    between atoms: N_5  and  C_16
REMARK    4  A    between atoms: N_6  and  C_19
REMARK    5  A    between atoms: C_10  and  C_16
REMARK    6  A    between atoms: C_11  and  C_17
REMARK    7  A    between atoms: C_19  and  C_21
REMARK    8  A    between atoms: C_20  and  C_22
REMARK                            x       y       z     vdW  Elec       q    Type
REMARK                         _______ _______ _______ _____ _____    ______ ____
ROOT
ATOM      4  N   UNL     1      -3.365  -0.830  25.706  0.00  0.00    -0.297 NA
ATOM      9  C   UNL     1      -1.490  -2.224  24.561  0.00  0.00    +0.005 C 
ATOM     10  C   UNL     1      -3.856  -1.374  24.412  0.00  0.00    +0.078 C 
ATOM     11  C   UNL     1      -0.983  -0.822  24.951  0.00  0.00    +0.092 C 
ATOM     12  C   UNL     1      -2.717  -2.075  23.640  0.00  0.00    +0.025 C 
ATOM     13  C   UNL     1      -1.969  -2.900  25.858  0.00  0.00    +0.020 C 
ATOM     14  C   UNL     1      -2.161   0.010  25.489  0.00  0.00    +0.097 C 
ATOM     15  C   UNL     1      -2.979  -1.978  26.566  0.00  0.00    +0.085 C 
ENDROOT
BRANCH  11  17
ATOM      2  O   UNL     1      -0.876   0.722  23.134  0.00  0.00    -0.275 OA
ATOM      6  N   UNL     1       0.980  -0.604  23.595  0.00  0.00    -0.308 N 
ATOM     17  C   UNL     1      -0.308  -0.136  23.801  0.00  0.00    +0.218 C 
ATOM     32  H   UNL     1       1.357  -1.313  24.217  0.00  0.00    +0.149 HD
BRANCH   6  19
ATOM     19  C   UNL     1       1.836  -0.122  22.536  0.00  0.00    +0.178 C 
BRANCH  19  21
ATOM      3  O   UNL     1       3.769  -1.164  23.579  0.00  0.00    -0.466 OA
ATOM     21  C   UNL     1       3.275  -0.059  22.961  0.00  0.00    +0.122 A 
ATOM     23  C   UNL     1       4.244   0.911  22.857  0.00  0.00    +0.046 A 
ATOM     24  C   UNL     1       5.409   0.367  23.450  0.00  0.00    +0.041 A 
ATOM     25  C   UNL     1       5.068  -0.896  23.873  0.00  0.00    +0.195 A 
ENDBRANCH  19  21
ENDBRANCH   6  19
ENDBRANCH  11  17
BRANCH  10  16
ATOM     16  C   UNL     1      -4.550  -0.310  23.558  0.00  0.00    +0.164 C 
BRANCH  16   5
ATOM      5  N   UNL     1      -4.900   0.906  24.368  0.00  0.00    -0.250 N 
ATOM      7  N   UNL     1      -5.811   0.837  25.352  0.00  0.00    -0.065 NA
ATOM      8  N   UNL     1      -5.914   2.051  25.882  0.00  0.00    -0.134 NA
ATOM     18  C   UNL     1      -4.394   2.163  24.242  0.00  0.00    +0.134 A 
ATOM     20  C   UNL     1      -5.052   2.875  25.212  0.00  0.00    +0.093 A 
BRANCH  20  22
ATOM     22  C   UNL     1      -4.930   4.296  25.563  0.00  0.00    +0.133 C 
BRANCH  22   1
ATOM      1  S   UNL     1      -3.688   4.612  26.866  0.00  0.00    -0.119 S 
BRANCH   1  26
ATOM     26  C   UNL     1      -2.172   4.266  25.985  0.00  0.00    +0.008 A 
ATOM     27  C   UNL     1      -1.740   5.125  24.974  0.00  0.00    +0.015 A 
ATOM     28  C   UNL     1      -1.420   3.136  26.310  0.00  0.00    +0.015 A 
ATOM     29  C   UNL     1      -0.558   4.854  24.287  0.00  0.00    +0.001 A 
ATOM     30  C   UNL     1      -0.237   2.866  25.622  0.00  0.00    +0.001 A 
ATOM     31  C   UNL     1       0.194   3.724  24.611  0.00  0.00    +0.000 A 
ENDBRANCH   1  26
ENDBRANCH  22   1
ENDBRANCH  20  22
ENDBRANCH  16   5
ENDBRANCH  10  16
TORSDOF 8
ENDMDL
MODEL 2
REMARK VINA RESULT:      -2.9      2.652      6.981
REMARK  Name = 44716236
REMARK  8 active torsions:
REMARK  status: ('A' for Active; 'I' for Inactive)
REMARK    1  A    between atoms: S_1  and  C_22
REMARK    2  A    between atoms: S_1  and  C_26
REMARK    3  A    between atoms: N_5  and  C_16
REMARK    4  A    between atoms: N_6  and  C_19
REMARK    5  A    between atoms: C_10  and  C_16
REMARK    6  A    between atoms: C_11  and  C_17
REMARK    7  A    between atoms: C_19  and  C_21
REMARK    8  A    between atoms: C_20  and  C_22
REMARK                            x       y       z     vdW  Elec       q    Type
REMARK                         _______ _______ _______ _____ _____    ______ ____
ROOT
ATOM      4  N   UNL     1      -1.836   4.416  25.974  0.00  0.00    -0.297 NA
ATOM      9  C   UNL     1      -3.476   3.899  24.021  0.00  0.00    +0.005 C 
ATOM     10  C   UNL     1      -1.342   3.252  25.192  0.00  0.00    +0.078 C 
ATOM     11  C   UNL     1      -4.221   3.980  25.367  0.00  0.00    +0.092 C 
ATOM     12  C   UNL     1      -2.372   2.828  24.122  0.00  0.00    +0.025 C 
ATOM     13  C   UNL     1      -2.780   5.257  23.816  0.00  0.00    +0.020 C 
ATOM     14  C   UNL     1      -3.195   4.142  26.504  0.00  0.00    +0.097 C 
ATOM     15  C   UNL     1      -1.924   5.579  25.055  0.00  0.00    +0.085 C 
ENDROOT
BRANCH  11  17
ATOM      2  O   UNL     1      -5.891   2.726  26.525  0.00  0.00    -0.275 OA
ATOM      6  N   UNL     1      -4.884   1.796  24.644  0.00  0.00    -0.308 N 
ATOM     17  C   UNL     1      -5.100   2.785  25.589  0.00  0.00    +0.218 C 
ATOM     32  H   UNL     1      -4.209   1.954  23.901  0.00  0.00    +0.149 HD
BRANCH   6  19
ATOM     19  C   UNL     1      -5.587   0.534  24.647  0.00  0.00    +0.178 C 
BRANCH  19  21
ATOM      3  O   UNL     1      -4.038  -0.869  25.889  0.00  0.00    -0.466 OA
ATOM     21  C   UNL     1      -4.645  -0.635  24.696  0.00  0.00    +0.122 A 
ATOM     23  C   UNL     1      -4.246  -1.560  23.760  0.00  0.00    +0.046 A 
ATOM     24  C   UNL     1      -3.334  -2.417  24.420  0.00  0.00    +0.041 A 
ATOM     25  C   UNL     1      -3.241  -1.956  25.712  0.00  0.00    +0.195 A 
ENDBRANCH  19  21
ENDBRANCH   6  19
ENDBRANCH  11  17
BRANCH  10  16
ATOM     16  C   UNL     1      -0.935   2.079  26.087  0.00  0.00    +0.164 C 
BRANCH  16   5
ATOM      5  N   UNL     1      -0.517   0.886  25.274  0.00  0.00    -0.250 N 
ATOM      7  N   UNL     1      -0.692  -0.360  25.743  0.00  0.00    -0.065 NA
ATOM      8  N   UNL     1      -0.229  -1.198  24.822  0.00  0.00    -0.134 NA
ATOM     18  C   UNL     1       0.061   0.881  24.042  0.00  0.00    +0.134 A 
ATOM     20  C   UNL     1       0.236  -0.453  23.773  0.00  0.00    +0.093 A 
BRANCH  20  22
ATOM     22  C   UNL     1       0.817  -1.091  22.585  0.00  0.00    +0.133 C 
BRANCH  22   1
ATOM      1  S   UNL     1       1.982  -0.008  21.684  0.00  0.00    -0.119 S 
BRANCH   1  26
ATOM     26  C   UNL     1       3.446  -0.161  22.698  0.00  0.00    +0.008 A 
ATOM     27  C   UNL     1       4.311   0.924  22.844  0.00  0.00    +0.015 A 
ATOM     28  C   UNL     1       3.722  -1.365  23.346  0.00  0.00    +0.015 A 
ATOM     29  C   UNL     1       5.453   0.804  23.635  0.00  0.00    +0.001 A 
ATOM     30  C   UNL     1       4.865  -1.485  24.137  0.00  0.00    +0.001 A 
ATOM     31  C   UNL     1       5.730  -0.401  24.282  0.00  0.00    +0.000 A 
ENDBRANCH   1  26
ENDBRANCH  22   1
ENDBRANCH  20  22
ENDBRANCH  16   5
ENDBRANCH  10  16
TORSDOF 8
ENDMDL
MODEL 3
REMARK VINA RESULT:      -2.3      2.436      6.467
REMARK  Name = 44716236
REMARK  8 active torsions:
REMARK  status: ('A' for Active; 'I' for Inactive)
REMARK    1  A    between atoms: S_1  and  C_22
REMARK    2  A    between atoms: S_1  and  C_26
REMARK    3  A    between atoms: N_5  and  C_16
REMARK    4  A    between atoms: N_6  and  C_19
REMARK    5  A    between atoms: C_10  and  C_16
REMARK    6  A    between atoms: C_11  and  C_17
REMARK    7  A    between atoms: C_19  and  C_21
REMARK    8  A    between atoms: C_20  and  C_22
REMARK                            x       y       z     vdW  Elec       q    Type
REMARK                         _______ _______ _______ _____ _____    ______ ____
ROOT
ATOM      4  N   UNL     1      -3.755   3.797  26.217  0.00  0.00    -0.297 NA
ATOM      9  C   UNL     1      -3.919   3.524  23.634  0.00  0.00    +0.005 C 
ATOM     10  C   UNL     1      -2.415   3.985  25.601  0.00  0.00    +0.078 C 
ATOM     11  C   UNL     1      -4.547   2.320  24.362  0.00  0.00    +0.092 C 
ATOM     12  C   UNL     1      -2.454   3.678  24.089  0.00  0.00    +0.025 C 
ATOM     13  C   UNL     1      -4.679   4.776  24.108  0.00  0.00    +0.020 C 
ATOM     14  C   UNL     1      -4.297   2.458  25.875  0.00  0.00    +0.097 C 
ATOM     15  C   UNL     1      -4.666   4.822  25.648  0.00  0.00    +0.085 C 
ENDROOT
BRANCH  11  17
ATOM      2  O   UNL     1      -3.155   0.971  22.968  0.00  0.00    -0.275 OA
ATOM      6  N   UNL     1      -4.639  -0.072  24.427  0.00  0.00    -0.308 N 
ATOM     17  C   UNL     1      -4.021   1.018  23.836  0.00  0.00    +0.218 C 
ATOM     32  H   UNL     1      -5.339   0.082  25.147  0.00  0.00    +0.149 HD
BRANCH   6  19
ATOM     19  C   UNL     1      -4.329  -1.440  24.080  0.00  0.00    +0.178 C 
BRANCH  19  21
ATOM      3  O   UNL     1      -2.594  -1.299  25.778  0.00  0.00    -0.466 OA
ATOM     21  C   UNL     1      -2.987  -1.863  24.606  0.00  0.00    +0.122 A 
ATOM     23  C   UNL     1      -2.029  -2.733  24.142  0.00  0.00    +0.046 A 
ATOM     24  C   UNL     1      -0.978  -2.702  25.090  0.00  0.00    +0.041 A 
ATOM     25  C   UNL     1      -1.370  -1.815  26.066  0.00  0.00    +0.195 A 
ENDBRANCH  19  21
ENDBRANCH   6  19
ENDBRANCH  11  17
BRANCH  10  16
ATOM     16  C   UNL     1      -1.327   3.181  26.317  0.00  0.00    +0.164 C 
BRANCH  16   5
ATOM      5  N   UNL     1      -0.515   2.368  25.348  0.00  0.00    -0.250 N 
ATOM      7  N   UNL     1       0.534   2.909  24.708  0.00  0.00    -0.065 NA
ATOM      8  N   UNL     1       1.048   1.967  23.924  0.00  0.00    -0.134 NA
ATOM     18  C   UNL     1      -0.702   1.067  24.993  0.00  0.00    +0.134 A 
ATOM     20  C   UNL     1       0.301   0.833  24.087  0.00  0.00    +0.093 A 
BRANCH  20  22
ATOM     22  C   UNL     1       0.615  -0.398  23.350  0.00  0.00    +0.133 C 
BRANCH  22   1
ATOM      1  S   UNL     1       1.779  -0.132  21.966  0.00  0.00    -0.119 S 
BRANCH   1  26
ATOM     26  C   UNL     1       3.348  -0.218  22.816  0.00  0.00    +0.008 A 
ATOM     27  C   UNL     1       3.728  -1.395  23.462  0.00  0.00    +0.015 A 
ATOM     28  C   UNL     1       4.194   0.891  22.832  0.00  0.00    +0.015 A 
ATOM     29  C   UNL     1       4.953  -1.461  24.126  0.00  0.00    +0.001 A 
ATOM     30  C   UNL     1       5.419   0.824  23.496  0.00  0.00    +0.001 A 
ATOM     31  C   UNL     1       5.799  -0.352  24.143  0.00  0.00    +0.000 A 
ENDBRANCH   1  26
ENDBRANCH  22   1
ENDBRANCH  20  22
ENDBRANCH  16   5
ENDBRANCH  10  16
TORSDOF 8
ENDMDL
MODEL 4
REMARK VINA RESULT:      -1.2      2.484      6.169
REMARK  Name = 44716236
REMARK  8 active torsions:
REMARK  status: ('A' for Active; 'I' for Inactive)
REMARK    1  A    between atoms: S_1  and  C_22
REMARK    2  A    between atoms: S_1  and  C_26
REMARK    3  A    between atoms: N_5  and  C_16
REMARK    4  A    between atoms: N_6  and  C_19
REMARK    5  A    between atoms: C_10  and  C_16
REMARK    6  A    between atoms: C_11  and  C_17
REMARK    7  A    between atoms: C_19  and  C_21
REMARK    8  A    between atoms: C_20  and  C_22
REMARK                            x       y       z     vdW  Elec       q    Type
REMARK                         _______ _______ _______ _____ _____    ______ ____
ROOT
ATOM      4  N   UNL     1      -2.034  -2.020  24.638  0.00  0.00    -0.297 NA
ATOM      9  C   UNL     1      -4.401  -1.008  24.259  0.00  0.00    +0.005 C 
ATOM     10  C   UNL     1      -2.582  -1.515  25.925  0.00  0.00    +0.078 C 
ATOM     11  C   UNL     1      -3.375  -0.406  23.281  0.00  0.00    +0.092 C 
ATOM     12  C   UNL     1      -3.917  -0.772  25.703  0.00  0.00    +0.025 C 
ATOM     13  C   UNL     1      -4.404  -2.529  24.018  0.00  0.00    +0.020 C 
ATOM     14  C   UNL     1      -1.970  -0.925  23.639  0.00  0.00    +0.097 C 
ATOM     15  C   UNL     1      -2.962  -3.060  24.125  0.00  0.00    +0.085 C 
ENDROOT
BRANCH  11  17
ATOM      2  O   UNL     1      -2.543   1.770  22.754  0.00  0.00    -0.275 OA
ATOM      6  N   UNL     1      -4.531   1.582  23.950  0.00  0.00    -0.308 N 
ATOM     17  C   UNL     1      -3.421   1.094  23.281  0.00  0.00    +0.218 C 
ATOM     32  H   UNL     1      -5.204   0.929  24.342  0.00  0.00    +0.149 HD
BRANCH   6  19
ATOM     19  C   UNL     1      -4.798   2.993  24.113  0.00  0.00    +0.178 C 
BRANCH  19  21
ATOM      3  O   UNL     1      -2.821   4.379  24.396  0.00  0.00    -0.466 OA
ATOM     21  C   UNL     1      -3.793   3.656  25.011  0.00  0.00    +0.122 A 
ATOM     23  C   UNL     1      -3.634   3.694  26.376  0.00  0.00    +0.046 A 
ATOM     24  C   UNL     1      -2.490   4.492  26.616  0.00  0.00    +0.041 A 
ATOM     25  C   UNL     1      -2.032   4.884  25.380  0.00  0.00    +0.195 A 
ENDBRANCH  19  21
ENDBRANCH   6  19
ENDBRANCH  11  17
BRANCH  10  16
ATOM     16  C   UNL     1      -1.573  -0.655  26.690  0.00  0.00    +0.164 C 
BRANCH  16   5
ATOM      5  N   UNL     1      -0.838   0.281  25.772  0.00  0.00    -0.250 N 
ATOM      7  N   UNL     1      -0.959   1.611  25.907  0.00  0.00    -0.065 NA
ATOM      8  N   UNL     1      -0.208   2.174  24.967  0.00  0.00    -0.134 NA
ATOM     18  C   UNL     1      -0.007  -0.045  24.745  0.00  0.00    +0.134 A 
ATOM     20  C   UNL     1       0.381   1.172  24.246  0.00  0.00    +0.093 A 
BRANCH  20  22
ATOM     22  C   UNL     1       1.280   1.470  23.123  0.00  0.00    +0.133 C 
BRANCH  22   1
ATOM      1  S   UNL     1       1.867  -0.027  22.254  0.00  0.00    -0.119 S 
BRANCH   1  26
ATOM     26  C   UNL     1       3.482  -0.239  22.991  0.00  0.00    +0.008 A 
ATOM     27  C   UNL     1       4.396   0.815  22.982  0.00  0.00    +0.015 A 
ATOM     28  C   UNL     1       3.827  -1.458  23.574  0.00  0.00    +0.015 A 
ATOM     29  C   UNL     1       5.656   0.648  23.556  0.00  0.00    +0.001 A 
ATOM     30  C   UNL     1       5.088  -1.624  24.149  0.00  0.00    +0.001 A 
ATOM     31  C   UNL     1       6.002  -0.571  24.139  0.00  0.00    +0.000 A 
ENDBRANCH   1  26
ENDBRANCH  22   1
ENDBRANCH  20  22
ENDBRANCH  16   5
ENDBRANCH  10  16
TORSDOF 8
ENDMDL
MODEL 5
REMARK VINA RESULT:      -1.2      1.996      3.336
REMARK  Name = 44716236
REMARK  8 active torsions:
REMARK  status: ('A' for Active; 'I' for Inactive)
REMARK    1  A    between atoms: S_1  and  C_22
REMARK    2  A    between atoms: S_1  and  C_26
REMARK    3  A    between atoms: N_5  and  C_16
REMARK    4  A    between atoms: N_6  and  C_19
REMARK    5  A    between atoms: C_10  and  C_16
REMARK    6  A    between atoms: C_11  and  C_17
REMARK    7  A    between atoms: C_19  and  C_21
REMARK    8  A    between atoms: C_20  and  C_22
REMARK                            x       y       z     vdW  Elec       q    Type
REMARK                         _______ _______ _______ _____ _____    ______ ____
ROOT
ATOM      4  N   UNL     1      -1.168  -1.450  25.964  0.00  0.00    -0.297 NA
ATOM      9  C   UNL     1      -2.027  -0.951  23.559  0.00  0.00    +0.005 C 
ATOM     10  C   UNL     1      -1.626  -0.038  25.872  0.00  0.00    +0.078 C 
ATOM     11  C   UNL     1      -0.616  -1.569  23.529  0.00  0.00    +0.092 C 
ATOM     12  C   UNL     1      -1.997   0.329  24.418  0.00  0.00    +0.025 C 
ATOM     13  C   UNL     1      -2.940  -1.963  24.275  0.00  0.00    +0.020 C 
ATOM     14  C   UNL     1      -0.096  -1.709  24.972  0.00  0.00    +0.097 C 
ATOM     15  C   UNL     1      -2.322  -2.325  25.638  0.00  0.00    +0.085 C 
ENDROOT
BRANCH  11  17
ATOM      2  O   UNL     1       0.195  -0.681  21.466  0.00  0.00    -0.275 OA
ATOM      6  N   UNL     1       1.328  -0.173  23.435  0.00  0.00    -0.308 N 
ATOM     17  C   UNL     1       0.325  -0.763  22.684  0.00  0.00    +0.218 C 
ATOM     32  H   UNL     1       1.335  -0.299  24.443  0.00  0.00    +0.149 HD
BRANCH   6  19
ATOM     19  C   UNL     1       2.375   0.638  22.857  0.00  0.00    +0.178 C 
BRANCH  19  21
ATOM      3  O   UNL     1       3.837  -1.157  23.602  0.00  0.00    -0.466 OA
ATOM     21  C   UNL     1       3.742   0.151  23.246  0.00  0.00    +0.122 A 
ATOM     23  C   UNL     1       4.970   0.764  23.324  0.00  0.00    +0.046 A 
ATOM     24  C   UNL     1       5.879  -0.231  23.756  0.00  0.00    +0.041 A 
ATOM     25  C   UNL     1       5.141  -1.381  23.911  0.00  0.00    +0.195 A 
ENDBRANCH  19  21
ENDBRANCH   6  19
ENDBRANCH  11  17
BRANCH  10  16
ATOM     16  C   UNL     1      -0.613   0.944  26.465  0.00  0.00    +0.164 C 
BRANCH  16   5
ATOM      5  N   UNL     1      -0.710   2.296  25.815  0.00  0.00    -0.250 N 
ATOM      7  N   UNL     1       0.129   2.645  24.827  0.00  0.00    -0.065 NA
ATOM      8  N   UNL     1      -0.189   3.881  24.457  0.00  0.00    -0.134 NA
ATOM     18  C   UNL     1      -1.587   3.296  26.105  0.00  0.00    +0.134 A 
ATOM     20  C   UNL     1      -1.237   4.294  25.231  0.00  0.00    +0.093 A 
BRANCH  20  22
ATOM     22  C   UNL     1      -1.825   5.630  25.067  0.00  0.00    +0.133 C 
BRANCH  22   1
ATOM      1  S   UNL     1      -3.260   5.651  23.934  0.00  0.00    -0.119 S 
BRANCH   1  26
ATOM     26  C   UNL     1      -4.082   4.132  24.395  0.00  0.00    +0.008 A 
ATOM     27  C   UNL     1      -3.981   3.007  23.576  0.00  0.00    +0.015 A 
ATOM     28  C   UNL     1      -4.826   4.073  25.574  0.00  0.00    +0.015 A 
ATOM     29  C   UNL     1      -4.623   1.823  23.936  0.00  0.00    +0.001 A 
ATOM     30  C   UNL     1      -5.468   2.887  25.933  0.00  0.00    +0.001 A 
ATOM     31  C   UNL     1      -5.367   1.763  25.114  0.00  0.00    +0.000 A 
ENDBRANCH   1  26
ENDBRANCH  22   1
ENDBRANCH  20  22
ENDBRANCH  16   5
ENDBRANCH  10  16
TORSDOF 8
ENDMDL
MODEL 6
REMARK VINA RESULT:       0.2      1.512      2.621
REMARK  Name = 44716236
REMARK  8 active torsions:
REMARK  status: ('A' for Active; 'I' for Inactive)
REMARK    1  A    between atoms: S_1  and  C_22
REMARK    2  A    between atoms: S_1  and  C_26
REMARK    3  A    between atoms: N_5  and  C_16
REMARK    4  A    between atoms: N_6  and  C_19
REMARK    5  A    between atoms: C_10  and  C_16
REMARK    6  A    between atoms: C_11  and  C_17
REMARK    7  A    between atoms: C_19  and  C_21
REMARK    8  A    between atoms: C_20  and  C_22
REMARK                            x       y       z     vdW  Elec       q    Type
REMARK                         _______ _______ _______ _____ _____    ______ ____
ROOT
ATOM      4  N   UNL     1      -3.367  -1.570  25.777  0.00  0.00    -0.297 NA
ATOM      9  C   UNL     1      -1.619  -2.275  23.982  0.00  0.00    +0.005 C 
ATOM     10  C   UNL     1      -3.829  -1.152  24.427  0.00  0.00    +0.078 C 
ATOM     11  C   UNL     1      -0.956  -1.481  25.124  0.00  0.00    +0.092 C 
ATOM     12  C   UNL     1      -2.742  -1.419  23.363  0.00  0.00    +0.025 C 
ATOM     13  C   UNL     1      -2.282  -3.507  24.624  0.00  0.00    +0.020 C 
ATOM     14  C   UNL     1      -2.047  -0.965  26.080  0.00  0.00    +0.097 C 
ATOM     15  C   UNL     1      -3.207  -3.046  25.766  0.00  0.00    +0.085 C 
ENDROOT
BRANCH  11  17
ATOM      2  O   UNL     1      -0.028   0.718  25.186  0.00  0.00    -0.275 OA
ATOM      6  N   UNL     1       0.519  -0.687  23.413  0.00  0.00    -0.308 N 
ATOM     17  C   UNL     1      -0.109  -0.359  24.602  0.00  0.00    +0.218 C 
ATOM     32  H   UNL     1       0.390  -1.616  23.021  0.00  0.00    +0.149 HD
BRANCH   6  19
ATOM     19  C   UNL     1       1.374   0.227  22.691  0.00  0.00    +0.178 C 
BRANCH  19  21
ATOM      3  O   UNL     1       3.156  -1.190  23.543  0.00  0.00    -0.466 OA
ATOM     21  C   UNL     1       2.824   0.020  23.021  0.00  0.00    +0.122 A 
ATOM     23  C   UNL     1       3.937   0.819  22.904  0.00  0.00    +0.046 A 
ATOM     24  C   UNL     1       5.024   0.051  23.387  0.00  0.00    +0.041 A 
ATOM     25  C   UNL     1       4.497  -1.162  23.763  0.00  0.00    +0.195 A 
ENDBRANCH  19  21
ENDBRANCH   6  19
ENDBRANCH  11  17
BRANCH  10  16
ATOM     16  C   UNL     1      -4.306   0.303  24.398  0.00  0.00    +0.164 C 
BRANCH  16   5
ATOM      5  N   UNL     1      -3.238   1.223  23.879  0.00  0.00    -0.250 N 
ATOM      7  N   UNL     1      -3.041   1.371  22.559  0.00  0.00    -0.065 NA
ATOM      8  N   UNL     1      -2.041   2.231  22.402  0.00  0.00    -0.134 NA
ATOM     18  C   UNL     1      -2.372   1.984  24.603  0.00  0.00    +0.134 A 
ATOM     20  C   UNL     1      -1.620   2.616  23.645  0.00  0.00    +0.093 A 
BRANCH  20  22
ATOM     22  C   UNL     1      -0.517   3.571  23.814  0.00  0.00    +0.133 C 
BRANCH  22   1
ATOM      1  S   UNL     1      -0.964   5.014  24.842  0.00  0.00    -0.119 S 
BRANCH   1  26
ATOM     26  C   UNL     1      -2.668   4.642  25.233  0.00  0.00    +0.008 A 
ATOM     27  C   UNL     1      -3.009   4.191  26.508  0.00  0.00    +0.015 A 
ATOM     28  C   UNL     1      -3.656   4.803  24.262  0.00  0.00    +0.015 A 
ATOM     29  C   UNL     1      -4.339   3.901  26.812  0.00  0.00    +0.001 A 
ATOM     30  C   UNL     1      -4.987   4.513  24.566  0.00  0.00    +0.001 A 
ATOM     31  C   UNL     1      -5.328   4.061  25.841  0.00  0.00    +0.000 A 
ENDBRANCH   1  26
ENDBRANCH  22   1
ENDBRANCH  20  22
ENDBRANCH  16   5
ENDBRANCH  10  16
TORSDOF 8
ENDMDL
MODEL 7
REMARK VINA RESULT:       0.4      1.977      4.431
REMARK  Name = 44716236
REMARK  8 active torsions:
REMARK  status: ('A' for Active; 'I' for Inactive)
REMARK    1  A    between atoms: S_1  and  C_22
REMARK    2  A    between atoms: S_1  and  C_26
REMARK    3  A    between atoms: N_5  and  C_16
REMARK    4  A    between atoms: N_6  and  C_19
REMARK    5  A    between atoms: C_10  and  C_16
REMARK    6  A    between atoms: C_11  and  C_17
REMARK    7  A    between atoms: C_19  and  C_21
REMARK    8  A    between atoms: C_20  and  C_22
REMARK                            x       y       z     vdW  Elec       q    Type
REMARK                         _______ _______ _______ _____ _____    ______ ____
ROOT
ATOM      4  N   UNL     1      -1.790   4.595  24.156  0.00  0.00    -0.297 NA
ATOM      9  C   UNL     1      -0.645   2.840  25.699  0.00  0.00    +0.005 C 
ATOM     10  C   UNL     1      -2.801   3.632  24.666  0.00  0.00    +0.078 C 
ATOM     11  C   UNL     1       0.074   2.941  24.339  0.00  0.00    +0.092 C 
ATOM     12  C   UNL     1      -2.128   2.491  25.458  0.00  0.00    +0.025 C 
ATOM     13  C   UNL     1      -0.601   4.244  26.329  0.00  0.00    +0.020 C 
ATOM     14  C   UNL     1      -0.723   3.879  23.415  0.00  0.00    +0.097 C 
ATOM     15  C   UNL     1      -1.170   5.266  25.327  0.00  0.00    +0.085 C 
ENDROOT
BRANCH  11  17
ATOM      2  O   UNL     1      -0.678   0.867  23.427  0.00  0.00    -0.275 OA
ATOM      6  N   UNL     1       1.608   1.287  23.536  0.00  0.00    -0.308 N 
ATOM     17  C   UNL     1       0.269   1.592  23.714  0.00  0.00    +0.218 C 
ATOM     32  H   UNL     1       2.314   1.968  23.800  0.00  0.00    +0.149 HD
BRANCH   6  19
ATOM     19  C   UNL     1       2.066   0.038  22.972  0.00  0.00    +0.178 C 
BRANCH  19  21
ATOM      3  O   UNL     1       3.853  -1.429  23.725  0.00  0.00    -0.466 OA
ATOM     21  C   UNL     1       3.524  -0.201  23.245  0.00  0.00    +0.122 A 
ATOM     23  C   UNL     1       4.646   0.582  23.109  0.00  0.00    +0.046 A 
ATOM     24  C   UNL     1       5.735  -0.216  23.534  0.00  0.00    +0.041 A 
ATOM     25  C   UNL     1       5.201  -1.429  23.898  0.00  0.00    +0.195 A 
ENDBRANCH  19  21
ENDBRANCH   6  19
ENDBRANCH  11  17
BRANCH  10  16
ATOM     16  C   UNL     1      -3.707   3.094  23.555  0.00  0.00    +0.164 C 
BRANCH  16   5
ATOM      5  N   UNL     1      -4.424   1.845  23.984  0.00  0.00    -0.250 N 
ATOM      7  N   UNL     1      -5.561   1.916  24.694  0.00  0.00    -0.065 NA
ATOM      8  N   UNL     1      -5.959   0.671  24.930  0.00  0.00    -0.134 NA
ATOM     18  C   UNL     1      -4.063   0.555  23.744  0.00  0.00    +0.134 A 
ATOM     20  C   UNL     1      -5.051  -0.175  24.354  0.00  0.00    +0.093 A 
BRANCH  20  22
ATOM     22  C   UNL     1      -5.208  -1.633  24.439  0.00  0.00    +0.133 C 
BRANCH  22   1
ATOM      1  S   UNL     1      -3.860  -2.552  23.615  0.00  0.00    -0.119 S 
BRANCH   1  26
ATOM     26  C   UNL     1      -2.454  -2.053  24.600  0.00  0.00    +0.008 A 
ATOM     27  C   UNL     1      -2.635  -1.213  25.699  0.00  0.00    +0.015 A 
ATOM     28  C   UNL     1      -1.177  -2.506  24.270  0.00  0.00    +0.015 A 
ATOM     29  C   UNL     1      -1.538  -0.824  26.467  0.00  0.00    +0.001 A 
ATOM     30  C   UNL     1      -0.079  -2.117  25.039  0.00  0.00    +0.001 A 
ATOM     31  C   UNL     1      -0.260  -1.276  26.137  0.00  0.00    +0.000 A 
ENDBRANCH   1  26
ENDBRANCH  22   1
ENDBRANCH  20  22
ENDBRANCH  16   5
ENDBRANCH  10  16
TORSDOF 8
ENDMDL
MODEL 8
REMARK VINA RESULT:       0.5      2.673      6.202
REMARK  Name = 44716236
REMARK  8 active torsions:
REMARK  status: ('A' for Active; 'I' for Inactive)
REMARK    1  A    between atoms: S_1  and  C_22
REMARK    2  A    between atoms: S_1  and  C_26
REMARK    3  A    between atoms: N_5  and  C_16
REMARK    4  A    between atoms: N_6  and  C_19
REMARK    5  A    between atoms: C_10  and  C_16
REMARK    6  A    between atoms: C_11  and  C_17
REMARK    7  A    between atoms: C_19  and  C_21
REMARK    8  A    between atoms: C_20  and  C_22
REMARK                            x       y       z     vdW  Elec       q    Type
REMARK                         _______ _______ _______ _____ _____    ______ ____
ROOT
ATOM      4  N   UNL     1      -3.921   4.322  24.271  0.00  0.00    -0.297 NA
ATOM      9  C   UNL     1      -4.385   2.237  25.757  0.00  0.00    +0.005 C 
ATOM     10  C   UNL     1      -4.241   3.150  23.414  0.00  0.00    +0.078 C 
ATOM     11  C   UNL     1      -3.041   2.894  26.124  0.00  0.00    +0.092 C 
ATOM     12  C   UNL     1      -4.370   1.865  24.261  0.00  0.00    +0.025 C 
ATOM     13  C   UNL     1      -5.472   3.310  25.953  0.00  0.00    +0.020 C 
ATOM     14  C   UNL     1      -2.744   4.029  25.126  0.00  0.00    +0.097 C 
ATOM     15  C   UNL     1      -5.086   4.571  25.157  0.00  0.00    +0.085 C 
ENDROOT
BRANCH  11  17
ATOM      2  O   UNL     1      -0.757   2.230  26.330  0.00  0.00    -0.275 OA
ATOM      6  N   UNL     1      -2.377   0.599  25.968  0.00  0.00    -0.308 N 
ATOM     17  C   UNL     1      -1.925   1.893  26.162  0.00  0.00    +0.218 C 
ATOM     32  H   UNL     1      -3.372   0.431  25.849  0.00  0.00    +0.149 HD
BRANCH   6  19
ATOM     19  C   UNL     1      -1.500  -0.549  25.938  0.00  0.00    +0.178 C 
BRANCH  19  21
ATOM      3  O   UNL     1      -3.421  -1.903  25.315  0.00  0.00    -0.466 OA
ATOM     21  C   UNL     1      -2.090  -1.687  25.154  0.00  0.00    +0.122 A 
ATOM     23  C   UNL     1      -1.555  -2.595  24.271  0.00  0.00    +0.046 A 
ATOM     24  C   UNL     1      -2.628  -3.424  23.864  0.00  0.00    +0.041 A 
ATOM     25  C   UNL     1      -3.741  -2.963  24.527  0.00  0.00    +0.195 A 
ENDBRANCH  19  21
ENDBRANCH   6  19
ENDBRANCH  11  17
BRANCH  10  16
ATOM     16  C   UNL     1      -3.244   2.976  22.266  0.00  0.00    +0.164 C 
BRANCH  16   5
ATOM      5  N   UNL     1      -1.959   2.358  22.741  0.00  0.00    -0.250 N 
ATOM      7  N   UNL     1      -1.009   3.110  23.321  0.00  0.00    -0.065 NA
ATOM      8  N   UNL     1       0.001   2.304  23.628  0.00  0.00    -0.134 NA
ATOM     18  C   UNL     1      -1.585   1.052  22.662  0.00  0.00    +0.134 A 
ATOM     20  C   UNL     1      -0.336   1.039  23.231  0.00  0.00    +0.093 A 
BRANCH  20  22
ATOM     22  C   UNL     1       0.579  -0.091  23.431  0.00  0.00    +0.133 C 
BRANCH  22   1
ATOM      1  S   UNL     1       1.704  -0.366  22.017  0.00  0.00    -0.119 S 
BRANCH   1  26
ATOM     26  C   UNL     1       3.296  -0.297  22.827  0.00  0.00    +0.008 A 
ATOM     27  C   UNL     1       4.060   0.869  22.766  0.00  0.00    +0.015 A 
ATOM     28  C   UNL     1       3.773  -1.408  23.521  0.00  0.00    +0.015 A 
ATOM     29  C   UNL     1       5.302   0.922  23.398  0.00  0.00    +0.001 A 
ATOM     30  C   UNL     1       5.016  -1.354  24.153  0.00  0.00    +0.001 A 
ATOM     31  C   UNL     1       5.780  -0.189  24.091  0.00  0.00    +0.000 A 
ENDBRANCH   1  26
ENDBRANCH  22   1
ENDBRANCH  20  22
ENDBRANCH  16   5
ENDBRANCH  10  16
TORSDOF 8
ENDMDL
