MODEL 1
REMARK VINA RESULT:      -1.2      0.000      0.000
REMARK  Name = 75368641
REMARK  6 active torsions:
REMARK  status: ('A' for Active; 'I' for Inactive)
REMARK    1  A    between atoms: O_3  and  C_26
REMARK    2  A    between atoms: O_3  and  C_27
REMARK    3  A    between atoms: N_5  and  C_14
REMARK    4  A    between atoms: N_6  and  C_15
REMARK    5  A    between atoms: C_14  and  C_16
REMARK    6  A    between atoms: C_15  and  C_17
REMARK                            x       y       z     vdW  Elec       q    Type
REMARK                         _______ _______ _______ _____ _____    ______ ____
ROOT
ATOM      2  O   UNL     1      -3.223  -7.766  11.667  0.00  0.00    -0.252 OA
ATOM      4  N   UNL     1      -4.506  -8.646   9.907  0.00  0.00    -0.278 N 
ATOM      5  N   UNL     1      -6.781  -9.284   8.381  0.00  0.00    -0.295 NA
ATOM      6  N   UNL     1      -2.871  -9.920  10.773  0.00  0.00    -0.279 N 
ATOM      8  C   UNL     1      -4.479  -9.825   9.066  0.00  0.00    +0.109 C 
ATOM      9  C   UNL     1      -5.895 -10.364   8.861  0.00  0.00    +0.109 C 
ATOM     10  C   UNL     1      -3.532 -10.772   9.800  0.00  0.00    +0.133 C 
ATOM     11  C   UNL     1      -5.447  -7.586   9.613  0.00  0.00    +0.125 C 
ATOM     12  C   UNL     1      -6.837  -8.176   9.356  0.00  0.00    +0.104 C 
ATOM     13  C   UNL     1      -3.497  -8.662  10.880  0.00  0.00    +0.305 C 
ENDROOT
BRANCH   5  14
ATOM     14  C   UNL     1      -8.124  -9.804   8.124  0.00  0.00    +0.122 C 
BRANCH  14  16
ATOM      1  F   UNL     1      -9.760  -7.507   8.527  0.00  0.00    -0.204 F 
ATOM      7  N   UNL     1     -10.714  -9.319  11.518  0.00  0.00    -0.260 NA
ATOM     16  C   UNL     1      -9.029  -9.633   9.309  0.00  0.00    +0.005 A 
ATOM     20  C   UNL     1      -9.800  -8.483   9.442  0.00  0.00    +0.146 A 
ATOM     21  C   UNL     1      -9.099 -10.626  10.280  0.00  0.00    +0.027 A 
ATOM     24  C   UNL     1     -10.620  -8.377  10.554  0.00  0.00    +0.149 A 
ATOM     25  C   UNL     1      -9.950 -10.422  11.355  0.00  0.00    +0.111 A 
ENDBRANCH  14  16
ENDBRANCH   5  14
BRANCH   6  15
ATOM     15  C   UNL     1      -1.801 -10.406  11.616  0.00  0.00    +0.144 C 
BRANCH  15  17
ATOM     17  C   UNL     1      -2.220 -10.505  13.054  0.00  0.00    -0.030 A 
ATOM     18  C   UNL     1      -3.564 -10.687  13.379  0.00  0.00    +0.009 A 
ATOM     19  C   UNL     1      -1.264 -10.415  14.066  0.00  0.00    +0.009 A 
ATOM     22  C   UNL     1      -3.952 -10.780  14.715  0.00  0.00    +0.046 A 
ATOM     23  C   UNL     1      -1.652 -10.508  15.402  0.00  0.00    +0.046 A 
ATOM     26  C   UNL     1      -2.997 -10.690  15.727  0.00  0.00    +0.120 A 
BRANCH  26   3
ATOM      3  O   UNL     1      -3.375 -10.781  17.031  0.00  0.00    -0.495 OA
ATOM     27  C   UNL     1      -4.774 -10.726  17.307  0.00  0.00    +0.277 C 
ENDBRANCH  26   3
ENDBRANCH  15  17
ENDBRANCH   6  15
TORSDOF 5
ENDMDL
MODEL 2
REMARK VINA RESULT:       2.6     16.566     18.157
REMARK  Name = 75368641
REMARK  6 active torsions:
REMARK  status: ('A' for Active; 'I' for Inactive)
REMARK    1  A    between atoms: O_3  and  C_26
REMARK    2  A    between atoms: O_3  and  C_27
REMARK    3  A    between atoms: N_5  and  C_14
REMARK    4  A    between atoms: N_6  and  C_15
REMARK    5  A    between atoms: C_14  and  C_16
REMARK    6  A    between atoms: C_15  and  C_17
REMARK                            x       y       z     vdW  Elec       q    Type
REMARK                         _______ _______ _______ _____ _____    ______ ____
ROOT
ATOM      2  O   UNL     1      -0.017  -1.615  24.237  0.00  0.00    -0.252 OA
ATOM      4  N   UNL     1      -0.574   0.545  24.974  0.00  0.00    -0.278 N 
ATOM      5  N   UNL     1      -2.178   2.717  25.762  0.00  0.00    -0.295 NA
ATOM      6  N   UNL     1       0.996   0.336  23.381  0.00  0.00    -0.279 N 
ATOM      8  C   UNL     1      -0.082   1.892  24.769  0.00  0.00    +0.109 C 
ATOM      9  C   UNL     1      -1.249   2.868  24.624  0.00  0.00    +0.109 C 
ATOM     10  C   UNL     1       0.809   1.768  23.535  0.00  0.00    +0.133 C 
ATOM     11  C   UNL     1      -1.600   0.308  25.968  0.00  0.00    +0.125 C 
ATOM     12  C   UNL     1      -2.718   1.344  25.824  0.00  0.00    +0.104 C 
ATOM     13  C   UNL     1       0.119  -0.399  24.205  0.00  0.00    +0.305 C 
ENDROOT
BRANCH   5  14
ATOM     14  C   UNL     1      -3.266   3.689  25.663  0.00  0.00    +0.122 C 
BRANCH  14  16
ATOM      1  F   UNL     1      -4.217   2.697  23.167  0.00  0.00    -0.204 F 
ATOM      7  N   UNL     1      -7.087   1.783  25.183  0.00  0.00    -0.260 NA
ATOM     16  C   UNL     1      -4.601   3.023  25.493  0.00  0.00    +0.005 A 
ATOM     20  C   UNL     1      -5.001   2.562  24.243  0.00  0.00    +0.146 A 
ATOM     21  C   UNL     1      -5.443   2.864  26.588  0.00  0.00    +0.027 A 
ATOM     24  C   UNL     1      -6.241   1.954  24.142  0.00  0.00    +0.149 A 
ATOM     25  C   UNL     1      -6.664   2.242  26.382  0.00  0.00    +0.111 A 
ENDBRANCH  14  16
ENDBRANCH   5  14
BRANCH   6  15
ATOM     15  C   UNL     1       1.878  -0.219  22.379  0.00  0.00    +0.144 C 
BRANCH  15  17
ATOM     17  C   UNL     1       3.307  -0.244  22.839  0.00  0.00    -0.030 A 
ATOM     18  C   UNL     1       3.818  -1.380  23.467  0.00  0.00    +0.009 A 
ATOM     19  C   UNL     1       4.123   0.868  22.640  0.00  0.00    +0.009 A 
ATOM     22  C   UNL     1       5.146  -1.403  23.894  0.00  0.00    +0.046 A 
ATOM     23  C   UNL     1       5.451   0.846  23.066  0.00  0.00    +0.046 A 
ATOM     26  C   UNL     1       5.962  -0.291  23.694  0.00  0.00    +0.120 A 
BRANCH  26   3
ATOM      3  O   UNL     1       7.257  -0.313  24.110  0.00  0.00    -0.495 OA
ATOM     27  C   UNL     1       8.264  -0.332  23.099  0.00  0.00    +0.277 C 
ENDBRANCH  26   3
ENDBRANCH  15  17
ENDBRANCH   6  15
TORSDOF 5
ENDMDL
