MODEL 1
REMARK VINA RESULT:       3.5      0.000      0.000
REMARK  Name = 26745476
REMARK  8 active torsions:
REMARK  status: ('A' for Active; 'I' for Inactive)
REMARK    1  A    between atoms: S_2  and  N_7
REMARK    2  A    between atoms: S_2  and  C_19
REMARK    3  A    between atoms: O_5  and  C_16
REMARK    4  A    between atoms: O_5  and  C_28
REMARK    5  A    between atoms: N_8  and  C_17
REMARK    6  A    between atoms: C_11  and  C_16
REMARK    7  A    between atoms: C_17  and  C_20
REMARK    8  A    between atoms: C_27  and  C_32
REMARK                            x       y       z     vdW  Elec       q    Type
REMARK                         _______ _______ _______ _____ _____    ______ ____
ROOT
ATOM      7  N   UNL     1      -0.384   0.609  24.776  0.00  0.00    -0.157 NA
ATOM      8  N   UNL     1      -3.119  -1.770  23.851  0.00  0.00    -0.328 N 
ATOM      9  N   UNL     1      -1.652  -3.340  24.464  0.00  0.00    -0.240 NA
ATOM     11  C   UNL     1       0.727  -0.381  24.538  0.00  0.00    +0.194 C 
ATOM     12  C   UNL     1      -1.690   0.331  24.073  0.00  0.00    +0.165 C 
ATOM     13  C   UNL     1       0.315  -1.815  24.934  0.00  0.00    +0.089 C 
ATOM     14  C   UNL     1      -1.960  -1.118  24.149  0.00  0.00    +0.057 A 
ATOM     15  C   UNL     1      -1.075  -2.102  24.517  0.00  0.00    +0.066 A 
ATOM     18  C   UNL     1      -2.884  -3.106  24.057  0.00  0.00    +0.200 A 
ENDROOT
BRANCH   7   2
ATOM      2  S   UNL     1       0.065   2.260  24.860  0.00  0.00    +0.062 S 
ATOM      3  O   UNL     1       0.627   2.660  23.588  0.00  0.00    -0.153 OA
ATOM      4  O   UNL     1       0.779   2.489  26.097  0.00  0.00    -0.153 OA
BRANCH   2  19
ATOM     19  C   UNL     1      -1.529   3.005  25.006  0.00  0.00    +0.106 A 
ATOM     21  C   UNL     1      -2.399   3.009  23.917  0.00  0.00    +0.030 A 
ATOM     22  C   UNL     1      -1.916   3.592  26.211  0.00  0.00    +0.030 A 
ATOM     25  C   UNL     1      -3.659   3.599  24.033  0.00  0.00    +0.021 A 
ATOM     26  C   UNL     1      -3.175   4.180  26.327  0.00  0.00    +0.021 A 
ATOM     27  C   UNL     1      -4.046   4.184  25.238  0.00  0.00    +0.052 A 
BRANCH  27  32
ATOM     10  N   UNL     1      -6.383   5.280  25.452  0.00  0.00    -0.191 NA
ATOM     32  C   UNL     1      -5.336   4.788  25.357  0.00  0.00    +0.099 C 
ENDBRANCH  27  32
ENDBRANCH   2  19
ENDBRANCH   7   2
BRANCH  11  16
ATOM      6  O   UNL     1       0.384  -0.103  22.174  0.00  0.00    -0.249 OA
ATOM     16  C   UNL     1       1.153  -0.295  23.107  0.00  0.00    +0.326 C 
BRANCH  16   5
ATOM      5  O   UNL     1       2.503  -0.462  23.022  0.00  0.00    -0.467 OA
ATOM     28  C   UNL     1       3.248   0.712  22.683  0.00  0.00    +0.280 C 
ENDBRANCH  16   5
ENDBRANCH  11  16
BRANCH   8  17
ATOM     17  C   UNL     1      -4.357  -1.186  23.399  0.00  0.00    +0.158 C 
BRANCH  17  20
ATOM      1 CL   UNL     1      -6.729   2.720  27.317  0.00  0.00    -0.084 Cl
ATOM     20  C   UNL     1      -4.951  -0.207  24.381  0.00  0.00    -0.028 A 
ATOM     23  C   UNL     1      -6.027   0.597  24.001  0.00  0.00    +0.007 A 
ATOM     24  C   UNL     1      -4.425  -0.104  25.668  0.00  0.00    +0.007 A 
ATOM     29  C   UNL     1      -6.576   1.502  24.909  0.00  0.00    +0.020 A 
ATOM     30  C   UNL     1      -4.974   0.802  26.577  0.00  0.00    +0.020 A 
ATOM     31  C   UNL     1      -6.050   1.604  26.196  0.00  0.00    +0.041 A 
ENDBRANCH  17  20
ENDBRANCH   8  17
TORSDOF 7
ENDMDL
MODEL 2
REMARK VINA RESULT:       3.7      3.505      6.868
REMARK  Name = 26745476
REMARK  8 active torsions:
REMARK  status: ('A' for Active; 'I' for Inactive)
REMARK    1  A    between atoms: S_2  and  N_7
REMARK    2  A    between atoms: S_2  and  C_19
REMARK    3  A    between atoms: O_5  and  C_16
REMARK    4  A    between atoms: O_5  and  C_28
REMARK    5  A    between atoms: N_8  and  C_17
REMARK    6  A    between atoms: C_11  and  C_16
REMARK    7  A    between atoms: C_17  and  C_20
REMARK    8  A    between atoms: C_27  and  C_32
REMARK                            x       y       z     vdW  Elec       q    Type
REMARK                         _______ _______ _______ _____ _____    ______ ____
ROOT
ATOM      7  N   UNL     1      -4.311   2.909  25.352  0.00  0.00    -0.157 NA
ATOM      8  N   UNL     1      -0.623   3.483  25.602  0.00  0.00    -0.328 N 
ATOM      9  N   UNL     1      -1.140   5.585  25.051  0.00  0.00    -0.240 NA
ATOM     11  C   UNL     1      -4.547   4.043  24.388  0.00  0.00    +0.194 C 
ATOM     12  C   UNL     1      -2.906   2.362  25.409  0.00  0.00    +0.165 C 
ATOM     13  C   UNL     1      -3.623   5.246  24.676  0.00  0.00    +0.089 C 
ATOM     14  C   UNL     1      -1.963   3.496  25.354  0.00  0.00    +0.057 A 
ATOM     15  C   UNL     1      -2.255   4.794  25.014  0.00  0.00    +0.066 A 
ATOM     18  C   UNL     1      -0.173   4.764  25.408  0.00  0.00    +0.200 A 
ENDROOT
BRANCH   7   2
ATOM      2  S   UNL     1      -5.557   1.741  25.482  0.00  0.00    +0.062 S 
ATOM      3  O   UNL     1      -6.530   1.972  24.435  0.00  0.00    -0.153 OA
ATOM      4  O   UNL     1      -5.961   1.638  26.867  0.00  0.00    -0.153 OA
BRANCH   2  19
ATOM     19  C   UNL     1      -4.654   0.281  25.068  0.00  0.00    +0.106 A 
ATOM     21  C   UNL     1      -3.882  -0.360  26.036  0.00  0.00    +0.030 A 
ATOM     22  C   UNL     1      -4.713  -0.230  23.771  0.00  0.00    +0.030 A 
ATOM     25  C   UNL     1      -3.170  -1.514  25.708  0.00  0.00    +0.021 A 
ATOM     26  C   UNL     1      -4.001  -1.384  23.444  0.00  0.00    +0.021 A 
ATOM     27  C   UNL     1      -3.229  -2.025  24.412  0.00  0.00    +0.052 A 
BRANCH  27  32
ATOM     10  N   UNL     1      -1.906  -4.167  23.802  0.00  0.00    -0.191 NA
ATOM     32  C   UNL     1      -2.499  -3.207  24.076  0.00  0.00    +0.099 C 
ENDBRANCH  27  32
ENDBRANCH   2  19
ENDBRANCH   7   2
BRANCH  11  16
ATOM      6  O   UNL     1      -4.823   4.101  22.000  0.00  0.00    -0.249 OA
ATOM     16  C   UNL     1      -4.385   3.533  22.991  0.00  0.00    +0.326 C 
BRANCH  16   5
ATOM      5  O   UNL     1      -3.686   2.363  23.012  0.00  0.00    -0.467 OA
ATOM     28  C   UNL     1      -2.663   2.241  22.019  0.00  0.00    +0.280 C 
ENDBRANCH  16   5
ENDBRANCH  11  16
BRANCH   8  17
ATOM     17  C   UNL     1       0.183   2.350  25.987  0.00  0.00    +0.158 C 
BRANCH  17  20
ATOM      1 CL   UNL     1       1.474  -1.325  21.397  0.00  0.00    -0.084 Cl
ATOM     20  C   UNL     1       0.508   1.429  24.837  0.00  0.00    -0.028 A 
ATOM     23  C   UNL     1      -0.266   0.289  24.617  0.00  0.00    +0.007 A 
ATOM     24  C   UNL     1       1.580   1.717  23.994  0.00  0.00    +0.007 A 
ATOM     29  C   UNL     1       0.033  -0.563  23.554  0.00  0.00    +0.020 A 
ATOM     30  C   UNL     1       1.880   0.865  22.930  0.00  0.00    +0.020 A 
ATOM     31  C   UNL     1       1.106  -0.275  22.711  0.00  0.00    +0.041 A 
ENDBRANCH  17  20
ENDBRANCH   8  17
TORSDOF 7
ENDMDL
MODEL 3
REMARK VINA RESULT:       4.7      2.762      4.830
REMARK  Name = 26745476
REMARK  8 active torsions:
REMARK  status: ('A' for Active; 'I' for Inactive)
REMARK    1  A    between atoms: S_2  and  N_7
REMARK    2  A    between atoms: S_2  and  C_19
REMARK    3  A    between atoms: O_5  and  C_16
REMARK    4  A    between atoms: O_5  and  C_28
REMARK    5  A    between atoms: N_8  and  C_17
REMARK    6  A    between atoms: C_11  and  C_16
REMARK    7  A    between atoms: C_17  and  C_20
REMARK    8  A    between atoms: C_27  and  C_32
REMARK                            x       y       z     vdW  Elec       q    Type
REMARK                         _______ _______ _______ _____ _____    ______ ____
ROOT
ATOM      7  N   UNL     1      -2.398  -0.614  24.304  0.00  0.00    -0.157 NA
ATOM      8  N   UNL     1       0.649   1.498  24.800  0.00  0.00    -0.328 N 
ATOM      9  N   UNL     1       1.486   0.287  23.119  0.00  0.00    -0.240 NA
ATOM     11  C   UNL     1      -1.646  -1.777  23.708  0.00  0.00    +0.194 C 
ATOM     12  C   UNL     1      -1.593   0.335  25.156  0.00  0.00    +0.165 C 
ATOM     13  C   UNL     1      -0.460  -1.311  22.838  0.00  0.00    +0.089 C 
ATOM     14  C   UNL     1      -0.288   0.553  24.504  0.00  0.00    +0.057 A 
ATOM     15  C   UNL     1       0.251  -0.178  23.473  0.00  0.00    +0.066 A 
ATOM     18  C   UNL     1       1.698   1.297  23.939  0.00  0.00    +0.200 A 
ENDROOT
BRANCH   7   2
ATOM      2  S   UNL     1      -3.985  -0.933  24.862  0.00  0.00    +0.062 S 
ATOM      3  O   UNL     1      -3.912  -1.513  26.186  0.00  0.00    -0.153 OA
ATOM      4  O   UNL     1      -4.734  -1.578  23.805  0.00  0.00    -0.153 OA
BRANCH   2  19
ATOM     19  C   UNL     1      -4.590   0.717  25.028  0.00  0.00    +0.106 A 
ATOM     21  C   UNL     1      -4.129   1.719  24.174  0.00  0.00    +0.030 A 
ATOM     22  C   UNL     1      -5.530   1.019  26.014  0.00  0.00    +0.030 A 
ATOM     25  C   UNL     1      -4.607   3.023  24.306  0.00  0.00    +0.021 A 
ATOM     26  C   UNL     1      -6.009   2.323  26.145  0.00  0.00    +0.021 A 
ATOM     27  C   UNL     1      -5.548   3.324  25.292  0.00  0.00    +0.052 A 
BRANCH  27  32
ATOM     10  N   UNL     1      -6.436   5.744  25.537  0.00  0.00    -0.191 NA
ATOM     32  C   UNL     1      -6.038   4.660  25.427  0.00  0.00    +0.099 C 
ENDBRANCH  27  32
ENDBRANCH   2  19
ENDBRANCH   7   2
BRANCH  11  16
ATOM      6  O   UNL     1      -0.146  -2.581  25.406  0.00  0.00    -0.249 OA
ATOM     16  C   UNL     1      -1.210  -2.688  24.811  0.00  0.00    +0.326 C 
BRANCH  16   5
ATOM      5  O   UNL     1      -2.171  -3.628  25.033  0.00  0.00    -0.467 OA
ATOM     28  C   UNL     1      -2.997  -3.941  23.907  0.00  0.00    +0.280 C 
ENDBRANCH  16   5
ENDBRANCH  11  16
BRANCH   8  17
ATOM     17  C   UNL     1       0.572   2.512  25.823  0.00  0.00    +0.158 C 
BRANCH  17  20
ATOM      1 CL   UNL     1      -2.982   7.136  24.328  0.00  0.00    -0.084 Cl
ATOM     20  C   UNL     1      -0.319   3.671  25.449  0.00  0.00    -0.028 A 
ATOM     23  C   UNL     1       0.105   4.597  24.495  0.00  0.00    +0.007 A 
ATOM     24  C   UNL     1      -1.565   3.817  26.057  0.00  0.00    +0.007 A 
ATOM     29  C   UNL     1      -0.718   5.668  24.149  0.00  0.00    +0.020 A 
ATOM     30  C   UNL     1      -2.389   4.889  25.711  0.00  0.00    +0.020 A 
ATOM     31  C   UNL     1      -1.965   5.814  24.757  0.00  0.00    +0.041 A 
ENDBRANCH  17  20
ENDBRANCH   8  17
TORSDOF 7
ENDMDL
MODEL 4
REMARK VINA RESULT:       5.0      3.505      6.905
REMARK  Name = 26745476
REMARK  8 active torsions:
REMARK  status: ('A' for Active; 'I' for Inactive)
REMARK    1  A    between atoms: S_2  and  N_7
REMARK    2  A    between atoms: S_2  and  C_19
REMARK    3  A    between atoms: O_5  and  C_16
REMARK    4  A    between atoms: O_5  and  C_28
REMARK    5  A    between atoms: N_8  and  C_17
REMARK    6  A    between atoms: C_11  and  C_16
REMARK    7  A    between atoms: C_17  and  C_20
REMARK    8  A    between atoms: C_27  and  C_32
REMARK                            x       y       z     vdW  Elec       q    Type
REMARK                         _______ _______ _______ _____ _____    ______ ____
ROOT
ATOM      7  N   UNL     1      -4.323   2.635  25.788  0.00  0.00    -0.157 NA
ATOM      8  N   UNL     1      -0.998   3.468  24.293  0.00  0.00    -0.328 N 
ATOM      9  N   UNL     1      -1.089   5.246  25.642  0.00  0.00    -0.240 NA
ATOM     11  C   UNL     1      -4.663   4.062  26.137  0.00  0.00    +0.194 C 
ATOM     12  C   UNL     1      -3.295   2.439  24.702  0.00  0.00    +0.165 C 
ATOM     13  C   UNL     1      -3.415   4.861  26.569  0.00  0.00    +0.089 C 
ATOM     14  C   UNL     1      -2.219   3.430  24.895  0.00  0.00    +0.057 A 
ATOM     15  C   UNL     1      -2.253   4.533  25.714  0.00  0.00    +0.066 A 
ATOM     18  C   UNL     1      -0.353   4.579  24.775  0.00  0.00    +0.200 A 
ENDROOT
BRANCH   7   2
ATOM      2  S   UNL     1      -5.623   1.519  25.777  0.00  0.00    +0.062 S 
ATOM      3  O   UNL     1      -6.573   1.913  24.759  0.00  0.00    -0.153 OA
ATOM      4  O   UNL     1      -6.045   1.277  27.139  0.00  0.00    -0.153 OA
BRANCH   2  19
ATOM     19  C   UNL     1      -4.783   0.076  25.202  0.00  0.00    +0.106 A 
ATOM     21  C   UNL     1      -4.126  -0.756  26.108  0.00  0.00    +0.030 A 
ATOM     22  C   UNL     1      -4.779  -0.232  23.841  0.00  0.00    +0.030 A 
ATOM     25  C   UNL     1      -3.462  -1.896  25.652  0.00  0.00    +0.021 A 
ATOM     26  C   UNL     1      -4.116  -1.372  23.387  0.00  0.00    +0.021 A 
ATOM     27  C   UNL     1      -3.458  -2.204  24.292  0.00  0.00    +0.052 A 
BRANCH  27  32
ATOM     10  N   UNL     1      -2.226  -4.320  23.448  0.00  0.00    -0.191 NA
ATOM     32  C   UNL     1      -2.779  -3.372  23.826  0.00  0.00    +0.099 C 
ENDBRANCH  27  32
ENDBRANCH   2  19
ENDBRANCH   7   2
BRANCH  11  16
ATOM      6  O   UNL     1      -6.427   5.282  25.051  0.00  0.00    -0.249 OA
ATOM     16  C   UNL     1      -5.358   4.692  24.973  0.00  0.00    +0.326 C 
BRANCH  16   5
ATOM      5  O   UNL     1      -4.619   4.503  23.843  0.00  0.00    -0.467 OA
ATOM     28  C   UNL     1      -4.231   5.697  23.156  0.00  0.00    +0.280 C 
ENDBRANCH  16   5
ENDBRANCH  11  16
BRANCH   8  17
ATOM     17  C   UNL     1      -0.472   2.535  23.327  0.00  0.00    +0.158 C 
BRANCH  17  20
ATOM      1 CL   UNL     1       0.242  -3.025  25.521  0.00  0.00    -0.084 Cl
ATOM     20  C   UNL     1      -0.294   1.141  23.877  0.00  0.00    -0.028 A 
ATOM     23  C   UNL     1       0.326   0.160  23.103  0.00  0.00    +0.007 A 
ATOM     24  C   UNL     1      -0.748   0.834  25.159  0.00  0.00    +0.007 A 
ATOM     29  C   UNL     1       0.491  -1.128  23.610  0.00  0.00    +0.020 A 
ATOM     30  C   UNL     1      -0.583  -0.455  25.668  0.00  0.00    +0.020 A 
ATOM     31  C   UNL     1       0.036  -1.436  24.893  0.00  0.00    +0.041 A 
ENDBRANCH  17  20
ENDBRANCH   8  17
TORSDOF 7
ENDMDL
MODEL 5
REMARK VINA RESULT:       5.1      3.129      6.400
REMARK  Name = 26745476
REMARK  8 active torsions:
REMARK  status: ('A' for Active; 'I' for Inactive)
REMARK    1  A    between atoms: S_2  and  N_7
REMARK    2  A    between atoms: S_2  and  C_19
REMARK    3  A    between atoms: O_5  and  C_16
REMARK    4  A    between atoms: O_5  and  C_28
REMARK    5  A    between atoms: N_8  and  C_17
REMARK    6  A    between atoms: C_11  and  C_16
REMARK    7  A    between atoms: C_17  and  C_20
REMARK    8  A    between atoms: C_27  and  C_32
REMARK                            x       y       z     vdW  Elec       q    Type
REMARK                         _______ _______ _______ _____ _____    ______ ____
ROOT
ATOM      7  N   UNL     1      -3.983  -0.226  25.791  0.00  0.00    -0.157 NA
ATOM      8  N   UNL     1      -4.258   3.498  25.995  0.00  0.00    -0.328 N 
ATOM      9  N   UNL     1      -6.289   3.170  25.123  0.00  0.00    -0.240 NA
ATOM     11  C   UNL     1      -4.973  -0.362  24.662  0.00  0.00    +0.194 C 
ATOM     12  C   UNL     1      -3.329   1.124  25.948  0.00  0.00    +0.165 C 
ATOM     13  C   UNL     1      -6.118   0.667  24.774  0.00  0.00    +0.089 C 
ATOM     14  C   UNL     1      -4.352   2.165  25.731  0.00  0.00    +0.057 A 
ATOM     15  C   UNL     1      -5.604   1.989  25.194  0.00  0.00    +0.066 A 
ATOM     18  C   UNL     1      -5.450   4.061  25.613  0.00  0.00    +0.200 A 
ENDROOT
BRANCH   7   2
ATOM      2  S   UNL     1      -2.964  -1.572  26.082  0.00  0.00    +0.062 S 
ATOM      3  O   UNL     1      -3.551  -2.747  25.475  0.00  0.00    -0.153 OA
ATOM      4  O   UNL     1      -2.570  -1.570  27.474  0.00  0.00    -0.153 OA
BRANCH   2  19
ATOM     19  C   UNL     1      -1.560  -1.109  25.118  0.00  0.00    +0.106 A 
ATOM     21  C   UNL     1      -1.130  -1.927  24.074  0.00  0.00    +0.030 A 
ATOM     22  C   UNL     1      -0.880   0.076  25.402  0.00  0.00    +0.030 A 
ATOM     25  C   UNL     1      -0.020  -1.560  23.312  0.00  0.00    +0.021 A 
ATOM     26  C   UNL     1       0.229   0.443  24.639  0.00  0.00    +0.021 A 
ATOM     27  C   UNL     1       0.659  -0.375  23.595  0.00  0.00    +0.052 A 
BRANCH  27  32
ATOM     10  N   UNL     1       2.721   0.303  22.181  0.00  0.00    -0.191 NA
ATOM     32  C   UNL     1       1.796  -0.000  22.815  0.00  0.00    +0.099 C 
ENDBRANCH  27  32
ENDBRANCH   2  19
ENDBRANCH   7   2
BRANCH  11  16
ATOM      6  O   UNL     1      -3.976  -1.201  22.641  0.00  0.00    -0.249 OA
ATOM     16  C   UNL     1      -4.243  -0.249  23.362  0.00  0.00    +0.326 C 
BRANCH  16   5
ATOM      5  O   UNL     1      -3.935   1.057  23.124  0.00  0.00    -0.467 OA
ATOM     28  C   UNL     1      -2.667   1.287  22.501  0.00  0.00    +0.280 C 
ENDBRANCH  16   5
ENDBRANCH  11  16
BRANCH   8  17
ATOM     17  C   UNL     1      -3.131   4.200  26.558  0.00  0.00    +0.158 C 
BRANCH  17  20
ATOM      1 CL   UNL     1       1.184   5.390  22.533  0.00  0.00    -0.084 Cl
ATOM     20  C   UNL     1      -2.049   4.499  25.550  0.00  0.00    -0.028 A 
ATOM     23  C   UNL     1      -1.227   3.472  25.083  0.00  0.00    +0.007 A 
ATOM     24  C   UNL     1      -1.870   5.801  25.084  0.00  0.00    +0.007 A 
ATOM     29  C   UNL     1      -0.227   3.748  24.151  0.00  0.00    +0.020 A 
ATOM     30  C   UNL     1      -0.870   6.077  24.151  0.00  0.00    +0.020 A 
ATOM     31  C   UNL     1      -0.049   5.050  23.685  0.00  0.00    +0.041 A 
ENDBRANCH  17  20
ENDBRANCH   8  17
TORSDOF 7
ENDMDL
MODEL 6
REMARK VINA RESULT:       5.6      3.374      5.364
REMARK  Name = 26745476
REMARK  8 active torsions:
REMARK  status: ('A' for Active; 'I' for Inactive)
REMARK    1  A    between atoms: S_2  and  N_7
REMARK    2  A    between atoms: S_2  and  C_19
REMARK    3  A    between atoms: O_5  and  C_16
REMARK    4  A    between atoms: O_5  and  C_28
REMARK    5  A    between atoms: N_8  and  C_17
REMARK    6  A    between atoms: C_11  and  C_16
REMARK    7  A    between atoms: C_17  and  C_20
REMARK    8  A    between atoms: C_27  and  C_32
REMARK                            x       y       z     vdW  Elec       q    Type
REMARK                         _______ _______ _______ _____ _____    ______ ____
ROOT
ATOM      7  N   UNL     1      -2.280  -0.298  24.271  0.00  0.00    -0.157 NA
ATOM      8  N   UNL     1       0.558   2.097  24.715  0.00  0.00    -0.328 N 
ATOM      9  N   UNL     1       1.576   0.823  23.187  0.00  0.00    -0.240 NA
ATOM     11  C   UNL     1      -1.408  -1.440  23.814  0.00  0.00    +0.194 C 
ATOM     12  C   UNL     1      -1.599   0.784  25.070  0.00  0.00    +0.165 C 
ATOM     13  C   UNL     1      -0.218  -0.951  22.961  0.00  0.00    +0.089 C 
ATOM     14  C   UNL     1      -0.283   1.055  24.461  0.00  0.00    +0.057 A 
ATOM     15  C   UNL     1       0.365   0.286  23.525  0.00  0.00    +0.066 A 
ATOM     18  C   UNL     1       1.664   1.913  23.923  0.00  0.00    +0.200 A 
ENDROOT
BRANCH   7   2
ATOM      2  S   UNL     1      -3.864  -0.701  24.783  0.00  0.00    +0.062 S 
ATOM      3  O   UNL     1      -3.793  -1.331  26.084  0.00  0.00    -0.153 OA
ATOM      4  O   UNL     1      -4.566  -1.331  23.686  0.00  0.00    -0.153 OA
BRANCH   2  19
ATOM     19  C   UNL     1      -4.537   0.917  25.001  0.00  0.00    +0.106 A 
ATOM     21  C   UNL     1      -4.004   1.995  24.297  0.00  0.00    +0.030 A 
ATOM     22  C   UNL     1      -5.603   1.115  25.880  0.00  0.00    +0.030 A 
ATOM     25  C   UNL     1      -4.536   3.273  24.471  0.00  0.00    +0.021 A 
ATOM     26  C   UNL     1      -6.135   2.393  26.053  0.00  0.00    +0.021 A 
ATOM     27  C   UNL     1      -5.602   3.471  25.348  0.00  0.00    +0.052 A 
BRANCH  27  32
ATOM     10  N   UNL     1      -6.589   5.844  25.671  0.00  0.00    -0.191 NA
ATOM     32  C   UNL     1      -6.147   4.780  25.526  0.00  0.00    +0.099 C 
ENDBRANCH  27  32
ENDBRANCH   2  19
ENDBRANCH   7   2
BRANCH  11  16
ATOM      6  O   UNL     1      -0.092  -1.833  25.788  0.00  0.00    -0.249 OA
ATOM     16  C   UNL     1      -0.958  -2.214  25.012  0.00  0.00    +0.326 C 
BRANCH  16   5
ATOM      5  O   UNL     1      -1.659  -3.381  25.090  0.00  0.00    -0.467 OA
ATOM     28  C   UNL     1      -2.466  -3.691  23.950  0.00  0.00    +0.280 C 
ENDBRANCH  16   5
ENDBRANCH  11  16
BRANCH   8  17
ATOM     17  C   UNL     1       0.348   3.184  25.638  0.00  0.00    +0.158 C 
BRANCH  17  20
ATOM      1 CL   UNL     1       2.112   1.915  31.253  0.00  0.00    -0.084 Cl
ATOM     20  C   UNL     1       0.791   2.867  27.045  0.00  0.00    -0.028 A 
ATOM     23  C   UNL     1      -0.120   2.338  27.961  0.00  0.00    +0.007 A 
ATOM     24  C   UNL     1       2.110   3.101  27.432  0.00  0.00    +0.007 A 
ATOM     29  C   UNL     1       0.288   2.045  29.261  0.00  0.00    +0.020 A 
ATOM     30  C   UNL     1       2.519   2.808  28.733  0.00  0.00    +0.020 A 
ATOM     31  C   UNL     1       1.607   2.280  29.648  0.00  0.00    +0.041 A 
ENDBRANCH  17  20
ENDBRANCH   8  17
TORSDOF 7
ENDMDL
MODEL 7
REMARK VINA RESULT:       5.6      2.382      4.450
REMARK  Name = 26745476
REMARK  8 active torsions:
REMARK  status: ('A' for Active; 'I' for Inactive)
REMARK    1  A    between atoms: S_2  and  N_7
REMARK    2  A    between atoms: S_2  and  C_19
REMARK    3  A    between atoms: O_5  and  C_16
REMARK    4  A    between atoms: O_5  and  C_28
REMARK    5  A    between atoms: N_8  and  C_17
REMARK    6  A    between atoms: C_11  and  C_16
REMARK    7  A    between atoms: C_17  and  C_20
REMARK    8  A    between atoms: C_27  and  C_32
REMARK                            x       y       z     vdW  Elec       q    Type
REMARK                         _______ _______ _______ _____ _____    ______ ____
ROOT
ATOM      7  N   UNL     1      -1.918  -0.641  23.910  0.00  0.00    -0.157 NA
ATOM      8  N   UNL     1       0.445   2.230  23.506  0.00  0.00    -0.328 N 
ATOM      9  N   UNL     1       1.969   0.634  23.155  0.00  0.00    -0.240 NA
ATOM     11  C   UNL     1      -0.851  -1.620  24.332  0.00  0.00    +0.194 C 
ATOM     12  C   UNL     1      -1.595   0.820  24.099  0.00  0.00    +0.165 C 
ATOM     13  C   UNL     1       0.483  -1.370  23.598  0.00  0.00    +0.089 C 
ATOM     14  C   UNL     1      -0.190   1.042  23.708  0.00  0.00    +0.057 A 
ATOM     15  C   UNL     1       0.766   0.079  23.491  0.00  0.00    +0.066 A 
ATOM     18  C   UNL     1       1.743   1.933  23.174  0.00  0.00    +0.200 A 
ENDROOT
BRANCH   7   2
ATOM      2  S   UNL     1      -3.538  -1.083  24.243  0.00  0.00    +0.062 S 
ATOM      3  O   UNL     1      -3.574  -1.857  25.466  0.00  0.00    -0.153 OA
ATOM      4  O   UNL     1      -4.149  -1.578  23.029  0.00  0.00    -0.153 OA
BRANCH   2  19
ATOM     19  C   UNL     1      -4.225   0.506  24.590  0.00  0.00    +0.106 A 
ATOM     21  C   UNL     1      -5.050   0.683  25.700  0.00  0.00    +0.030 A 
ATOM     22  C   UNL     1      -3.943   1.585  23.751  0.00  0.00    +0.030 A 
ATOM     25  C   UNL     1      -5.592   1.939  25.973  0.00  0.00    +0.021 A 
ATOM     26  C   UNL     1      -4.485   2.841  24.025  0.00  0.00    +0.021 A 
ATOM     27  C   UNL     1      -5.310   3.018  25.135  0.00  0.00    +0.052 A 
BRANCH  27  32
ATOM     10  N   UNL     1      -6.317   5.350  25.641  0.00  0.00    -0.191 NA
ATOM     32  C   UNL     1      -5.866   4.304  25.415  0.00  0.00    +0.099 C 
ENDBRANCH  27  32
ENDBRANCH   2  19
ENDBRANCH   7   2
BRANCH  11  16
ATOM      6  O   UNL     1      -1.313  -0.782  26.538  0.00  0.00    -0.249 OA
ATOM     16  C   UNL     1      -0.695  -1.555  25.818  0.00  0.00    +0.326 C 
BRANCH  16   5
ATOM      5  O   UNL     1       0.224  -2.477  26.221  0.00  0.00    -0.467 OA
ATOM     28  C   UNL     1       0.270  -3.679  25.445  0.00  0.00    +0.280 C 
ENDBRANCH  16   5
ENDBRANCH  11  16
BRANCH   8  17
ATOM     17  C   UNL     1      -0.119   3.553  23.622  0.00  0.00    +0.158 C 
BRANCH  17  20
ATOM      1 CL   UNL     1      -3.517   4.267  28.540  0.00  0.00    -0.084 Cl
ATOM     20  C   UNL     1      -0.971   3.732  24.854  0.00  0.00    -0.028 A 
ATOM     23  C   UNL     1      -0.864   2.830  25.913  0.00  0.00    +0.007 A 
ATOM     24  C   UNL     1      -1.866   4.798  24.934  0.00  0.00    +0.007 A 
ATOM     29  C   UNL     1      -1.651   2.995  27.052  0.00  0.00    +0.020 A 
ATOM     30  C   UNL     1      -2.655   4.964  26.074  0.00  0.00    +0.020 A 
ATOM     31  C   UNL     1      -2.547   4.062  27.132  0.00  0.00    +0.041 A 
ENDBRANCH  17  20
ENDBRANCH   8  17
TORSDOF 7
ENDMDL
MODEL 8
REMARK VINA RESULT:       6.0      3.794      7.513
REMARK  Name = 26745476
REMARK  8 active torsions:
REMARK  status: ('A' for Active; 'I' for Inactive)
REMARK    1  A    between atoms: S_2  and  N_7
REMARK    2  A    between atoms: S_2  and  C_19
REMARK    3  A    between atoms: O_5  and  C_16
REMARK    4  A    between atoms: O_5  and  C_28
REMARK    5  A    between atoms: N_8  and  C_17
REMARK    6  A    between atoms: C_11  and  C_16
REMARK    7  A    between atoms: C_17  and  C_20
REMARK    8  A    between atoms: C_27  and  C_32
REMARK                            x       y       z     vdW  Elec       q    Type
REMARK                         _______ _______ _______ _____ _____    ______ ____
ROOT
ATOM      7  N   UNL     1      -3.522   1.925  25.407  0.00  0.00    -0.157 NA
ATOM      8  N   UNL     1      -0.040   1.855  24.042  0.00  0.00    -0.328 N 
ATOM      9  N   UNL     1       0.178   3.804  25.111  0.00  0.00    -0.240 NA
ATOM     11  C   UNL     1      -3.578   3.428  25.522  0.00  0.00    +0.194 C 
ATOM     12  C   UNL     1      -2.512   1.368  24.435  0.00  0.00    +0.165 C 
ATOM     13  C   UNL     1      -2.213   4.027  25.920  0.00  0.00    +0.089 C 
ATOM     14  C   UNL     1      -1.267   2.149  24.557  0.00  0.00    +0.057 A 
ATOM     15  C   UNL     1      -1.108   3.350  25.204  0.00  0.00    +0.066 A 
ATOM     18  C   UNL     1       0.797   2.881  24.403  0.00  0.00    +0.200 A 
ENDROOT
BRANCH   7   2
ATOM      2  S   UNL     1      -5.018   1.095  25.466  0.00  0.00    +0.062 S 
ATOM      3  O   UNL     1      -5.908   1.655  24.472  0.00  0.00    -0.153 OA
ATOM      4  O   UNL     1      -5.429   0.967  26.848  0.00  0.00    -0.153 OA
BRANCH   2  19
ATOM     19  C   UNL     1      -4.509  -0.498  24.900  0.00  0.00    +0.106 A 
ATOM     21  C   UNL     1      -4.897  -0.947  23.639  0.00  0.00    +0.030 A 
ATOM     22  C   UNL     1      -3.718  -1.307  25.717  0.00  0.00    +0.030 A 
ATOM     25  C   UNL     1      -4.494  -2.206  23.192  0.00  0.00    +0.021 A 
ATOM     26  C   UNL     1      -3.315  -2.566  25.270  0.00  0.00    +0.021 A 
ATOM     27  C   UNL     1      -3.703  -3.014  24.008  0.00  0.00    +0.052 A 
BRANCH  27  32
ATOM     10  N   UNL     1      -2.954  -5.351  23.178  0.00  0.00    -0.191 NA
ATOM     32  C   UNL     1      -3.290  -4.304  23.550  0.00  0.00    +0.099 C 
ENDBRANCH  27  32
ENDBRANCH   2  19
ENDBRANCH   7   2
BRANCH  11  16
ATOM      6  O   UNL     1      -3.732   3.603  23.129  0.00  0.00    -0.249 OA
ATOM     16  C   UNL     1      -4.085   3.993  24.234  0.00  0.00    +0.326 C 
BRANCH  16   5
ATOM      5  O   UNL     1      -4.982   4.986  24.493  0.00  0.00    -0.467 OA
ATOM     28  C   UNL     1      -5.874   4.739  25.585  0.00  0.00    +0.280 C 
ENDBRANCH  16   5
ENDBRANCH  11  16
BRANCH   8  17
ATOM     17  C   UNL     1       0.324   0.699  23.259  0.00  0.00    +0.158 C 
BRANCH  17  20
ATOM      1 CL   UNL     1       6.254  -0.334  23.142  0.00  0.00    -0.084 Cl
ATOM     20  C   UNL     1       1.810   0.441  23.230  0.00  0.00    -0.028 A 
ATOM     23  C   UNL     1       2.308  -0.812  23.591  0.00  0.00    +0.007 A 
ATOM     24  C   UNL     1       2.687   1.454  22.844  0.00  0.00    +0.007 A 
ATOM     29  C   UNL     1       3.681  -1.051  23.564  0.00  0.00    +0.020 A 
ATOM     30  C   UNL     1       4.062   1.215  22.817  0.00  0.00    +0.020 A 
ATOM     31  C   UNL     1       4.558  -0.038  23.177  0.00  0.00    +0.041 A 
ENDBRANCH  17  20
ENDBRANCH   8  17
TORSDOF 7
ENDMDL
MODEL 9
REMARK VINA RESULT:       6.5      3.281      5.947
REMARK  Name = 26745476
REMARK  8 active torsions:
REMARK  status: ('A' for Active; 'I' for Inactive)
REMARK    1  A    between atoms: S_2  and  N_7
REMARK    2  A    between atoms: S_2  and  C_19
REMARK    3  A    between atoms: O_5  and  C_16
REMARK    4  A    between atoms: O_5  and  C_28
REMARK    5  A    between atoms: N_8  and  C_17
REMARK    6  A    between atoms: C_11  and  C_16
REMARK    7  A    between atoms: C_17  and  C_20
REMARK    8  A    between atoms: C_27  and  C_32
REMARK                            x       y       z     vdW  Elec       q    Type
REMARK                         _______ _______ _______ _____ _____    ______ ____
ROOT
ATOM      7  N   UNL     1      -3.320   0.999  23.693  0.00  0.00    -0.157 NA
ATOM      8  N   UNL     1      -2.121  -2.389  24.731  0.00  0.00    -0.328 N 
ATOM      9  N   UNL     1      -4.152  -3.058  24.081  0.00  0.00    -0.240 NA
ATOM     11  C   UNL     1      -4.780   0.682  23.901  0.00  0.00    +0.194 C 
ATOM     12  C   UNL     1      -2.336   0.136  24.443  0.00  0.00    +0.165 C 
ATOM     13  C   UNL     1      -5.111  -0.779  23.530  0.00  0.00    +0.089 C 
ATOM     14  C   UNL     1      -2.806  -1.261  24.388  0.00  0.00    +0.057 A 
ATOM     15  C   UNL     1      -4.049  -1.698  23.998  0.00  0.00    +0.066 A 
ATOM     18  C   UNL     1      -2.973  -3.445  24.528  0.00  0.00    +0.200 A 
ENDROOT
BRANCH   7   2
ATOM      2  S   UNL     1      -2.904   2.656  23.580  0.00  0.00    +0.062 S 
ATOM      3  O   UNL     1      -4.014   3.454  24.056  0.00  0.00    -0.153 OA
ATOM      4  O   UNL     1      -2.308   2.904  22.286  0.00  0.00    -0.153 OA
BRANCH   2  19
ATOM     19  C   UNL     1      -1.624   2.735  24.793  0.00  0.00    +0.106 A 
ATOM     21  C   UNL     1      -1.919   3.142  26.094  0.00  0.00    +0.030 A 
ATOM     22  C   UNL     1      -0.316   2.390  24.449  0.00  0.00    +0.030 A 
ATOM     25  C   UNL     1      -0.906   3.204  27.051  0.00  0.00    +0.021 A 
ATOM     26  C   UNL     1       0.696   2.452  25.407  0.00  0.00    +0.021 A 
ATOM     27  C   UNL     1       0.401   2.859  26.708  0.00  0.00    +0.052 A 
BRANCH  27  32
ATOM     10  N   UNL     1       2.280   2.975  28.487  0.00  0.00    -0.191 NA
ATOM     32  C   UNL     1       1.438   2.923  27.689  0.00  0.00    +0.099 C 
ENDBRANCH  27  32
ENDBRANCH   2  19
ENDBRANCH   7   2
BRANCH  11  16
ATOM      6  O   UNL     1      -4.579   0.529  26.292  0.00  0.00    -0.249 OA
ATOM     16  C   UNL     1      -5.147   1.000  25.316  0.00  0.00    +0.326 C 
BRANCH  16   5
ATOM      5  O   UNL     1      -6.189   1.877  25.331  0.00  0.00    -0.467 OA
ATOM     28  C   UNL     1      -5.937   3.121  25.992  0.00  0.00    +0.280 C 
ENDBRANCH  16   5
ENDBRANCH  11  16
BRANCH   8  17
ATOM     17  C   UNL     1      -0.768  -2.473  25.222  0.00  0.00    +0.158 C 
BRANCH  17  20
ATOM      1 CL   UNL     1       3.190   0.550  21.838  0.00  0.00    -0.084 Cl
ATOM     20  C   UNL     1       0.223  -1.714  24.373  0.00  0.00    -0.028 A 
ATOM     23  C   UNL     1       1.588  -1.797  24.653  0.00  0.00    +0.007 A 
ATOM     24  C   UNL     1      -0.223  -0.931  23.310  0.00  0.00    +0.007 A 
ATOM     29  C   UNL     1       2.505  -1.097  23.870  0.00  0.00    +0.020 A 
ATOM     30  C   UNL     1       0.694  -0.229  22.526  0.00  0.00    +0.020 A 
ATOM     31  C   UNL     1       2.058  -0.313  22.807  0.00  0.00    +0.041 A 
ENDBRANCH  17  20
ENDBRANCH   8  17
TORSDOF 7
ENDMDL
MODEL 10
REMARK VINA RESULT:       6.6      2.511      6.164
REMARK  Name = 26745476
REMARK  8 active torsions:
REMARK  status: ('A' for Active; 'I' for Inactive)
REMARK    1  A    between atoms: S_2  and  N_7
REMARK    2  A    between atoms: S_2  and  C_19
REMARK    3  A    between atoms: O_5  and  C_16
REMARK    4  A    between atoms: O_5  and  C_28
REMARK    5  A    between atoms: N_8  and  C_17
REMARK    6  A    between atoms: C_11  and  C_16
REMARK    7  A    between atoms: C_17  and  C_20
REMARK    8  A    between atoms: C_27  and  C_32
REMARK                            x       y       z     vdW  Elec       q    Type
REMARK                         _______ _______ _______ _____ _____    ______ ____
ROOT
ATOM      7  N   UNL     1      -0.215   1.434  23.820  0.00  0.00    -0.157 NA
ATOM      8  N   UNL     1      -2.880   4.057  23.883  0.00  0.00    -0.328 N 
ATOM      9  N   UNL     1      -1.221   5.407  24.527  0.00  0.00    -0.240 NA
ATOM     11  C   UNL     1       0.662   2.124  24.834  0.00  0.00    +0.194 C 
ATOM     12  C   UNL     1      -1.675   1.810  23.833  0.00  0.00    +0.165 C 
ATOM     13  C   UNL     1       0.606   3.660  24.693  0.00  0.00    +0.089 C 
ATOM     14  C   UNL     1      -1.779   3.268  24.031  0.00  0.00    +0.057 A 
ATOM     15  C   UNL     1      -0.777   4.118  24.431  0.00  0.00    +0.066 A 
ATOM     18  C   UNL     1      -2.494   5.337  24.192  0.00  0.00    +0.200 A 
ENDROOT
BRANCH   7   2
ATOM      2  S   UNL     1       0.113  -0.221  23.523  0.00  0.00    +0.062 S 
ATOM      3  O   UNL     1      -0.403  -0.577  22.219  0.00  0.00    -0.153 OA
ATOM      4  O   UNL     1      -0.237  -0.987  24.699  0.00  0.00    -0.153 OA
BRANCH   2  19
ATOM     19  C   UNL     1       1.875  -0.170  23.412  0.00  0.00    +0.106 A 
ATOM     21  C   UNL     1       2.509   0.960  22.897  0.00  0.00    +0.030 A 
ATOM     22  C   UNL     1       2.631  -1.262  23.840  0.00  0.00    +0.030 A 
ATOM     25  C   UNL     1       3.900   0.999  22.809  0.00  0.00    +0.021 A 
ATOM     26  C   UNL     1       4.023  -1.221  23.752  0.00  0.00    +0.021 A 
ATOM     27  C   UNL     1       4.657  -0.092  23.237  0.00  0.00    +0.052 A 
BRANCH  27  32
ATOM     10  N   UNL     1       7.241  -0.017  23.073  0.00  0.00    -0.191 NA
ATOM     32  C   UNL     1       6.083  -0.051  23.147  0.00  0.00    +0.099 C 
ENDBRANCH  27  32
ENDBRANCH   2  19
ENDBRANCH   7   2
BRANCH  11  16
ATOM      6  O   UNL     1      -0.530   0.767  26.422  0.00  0.00    -0.249 OA
ATOM     16  C   UNL     1       0.266   1.671  26.203  0.00  0.00    +0.326 C 
BRANCH  16   5
ATOM      5  O   UNL     1       0.923   2.415  27.138  0.00  0.00    -0.467 OA
ATOM     28  C   UNL     1       0.569   2.145  28.498  0.00  0.00    +0.280 C 
ENDBRANCH  16   5
ENDBRANCH  11  16
BRANCH   8  17
ATOM     17  C   UNL     1      -4.204   3.642  23.488  0.00  0.00    +0.158 C 
BRANCH  17  20
ATOM      1 CL   UNL     1      -7.217   0.802  27.857  0.00  0.00    -0.084 Cl
ATOM     20  C   UNL     1      -4.959   2.929  24.583  0.00  0.00    -0.028 A 
ATOM     23  C   UNL     1      -5.506   3.657  25.640  0.00  0.00    +0.007 A 
ATOM     24  C   UNL     1      -5.109   1.544  24.540  0.00  0.00    +0.007 A 
ATOM     29  C   UNL     1      -6.204   3.000  26.653  0.00  0.00    +0.020 A 
ATOM     30  C   UNL     1      -5.807   0.885  25.552  0.00  0.00    +0.020 A 
ATOM     31  C   UNL     1      -6.354   1.614  26.609  0.00  0.00    +0.041 A 
ENDBRANCH  17  20
ENDBRANCH   8  17
TORSDOF 7
ENDMDL
