MODEL 1
REMARK VINA RESULT:       1.9      0.000      0.000
REMARK  Name = 28961042
REMARK  7 active torsions:
REMARK  status: ('A' for Active; 'I' for Inactive)
REMARK    1  A    between atoms: S_1  and  N_8
REMARK    2  A    between atoms: S_1  and  C_18
REMARK    3  A    between atoms: N_7  and  C_17
REMARK    4  A    between atoms: N_8  and  C_12
REMARK    5  A    between atoms: C_13  and  C_16
REMARK    6  A    between atoms: C_19  and  C_20
REMARK    7  A    between atoms: C_28  and  C_32
REMARK                            x       y       z     vdW  Elec       q    Type
REMARK                         _______ _______ _______ _____ _____    ______ ____
ROOT
ATOM      7  N   UNL     1      -2.964  -1.871  24.661  0.00  0.00    -0.293 NA
ATOM     12  C   UNL     1      -4.883  -0.578  24.365  0.00  0.00    +0.092 C 
ATOM     13  C   UNL     1      -2.644  -1.020  23.498  0.00  0.00    +0.147 C 
ATOM     14  C   UNL     1      -3.823  -0.031  23.411  0.00  0.00    +0.050 C 
ATOM     15  C   UNL     1      -4.425  -1.994  24.676  0.00  0.00    +0.105 C 
ATOM     17  C   UNL     1      -2.311  -3.174  24.616  0.00  0.00    +0.105 C 
ENDROOT
BRANCH  13  16
ATOM      2  O   UNL     1      -1.322   0.941  24.111  0.00  0.00    -0.336 OA
ATOM      9  N   UNL     1      -0.113  -0.757  23.293  0.00  0.00    -0.190 NA
ATOM     10  N   UNL     1       0.010   1.373  24.119  0.00  0.00    -0.056 NA
ATOM     16  C   UNL     1      -1.306  -0.321  23.611  0.00  0.00    +0.245 A 
ATOM     19  C   UNL     1       0.662   0.317  23.623  0.00  0.00    +0.202 A 
BRANCH  19  20
ATOM      5  O   UNL     1       5.071  -1.747  24.034  0.00  0.00    -0.453 OA
ATOM      6  O   UNL     1       6.161   0.134  22.994  0.00  0.00    -0.453 OA
ATOM     20  C   UNL     1       2.085   0.302  23.445  0.00  0.00    +0.026 A 
ATOM     23  C   UNL     1       2.826  -0.801  23.874  0.00  0.00    +0.061 A 
ATOM     26  C   UNL     1       2.721   1.399  22.839  0.00  0.00    +0.015 A 
ATOM     27  C   UNL     1       4.192  -0.770  23.681  0.00  0.00    +0.167 A 
ATOM     29  C   UNL     1       4.815   0.305  23.088  0.00  0.00    +0.166 A 
ATOM     30  C   UNL     1       4.106   1.406  22.654  0.00  0.00    +0.050 A 
ATOM     31  C   UNL     1       6.317  -1.168  23.594  0.00  0.00    +0.466 C 
ENDBRANCH  19  20
ENDBRANCH  13  16
BRANCH  12   8
ATOM      8  N   UNL     1      -4.908   0.233  25.608  0.00  0.00    -0.186 NA
ATOM     33  H   UNL     1      -4.701  -0.249  26.492  0.00  0.00    +0.148 HD
BRANCH   8   1
ATOM      1  S   UNL     1      -5.652   1.759  25.605  0.00  0.00    +0.059 S 
ATOM      3  O   UNL     1      -6.199   2.034  26.919  0.00  0.00    -0.153 OA
ATOM      4  O   UNL     1      -6.492   1.864  24.428  0.00  0.00    -0.153 OA
BRANCH   1  18
ATOM     18  C   UNL     1      -4.273   2.837  25.353  0.00  0.00    +0.105 A 
ATOM     21  C   UNL     1      -3.591   3.364  26.449  0.00  0.00    +0.030 A 
ATOM     22  C   UNL     1      -3.868   3.159  24.058  0.00  0.00    +0.030 A 
ATOM     24  C   UNL     1      -2.504   4.214  26.251  0.00  0.00    +0.021 A 
ATOM     25  C   UNL     1      -2.780   4.010  23.859  0.00  0.00    +0.021 A 
ATOM     28  C   UNL     1      -2.098   4.537  24.957  0.00  0.00    +0.052 A 
BRANCH  28  32
ATOM     11  N   UNL     1      -0.079   6.117  24.587  0.00  0.00    -0.191 NA
ATOM     32  C   UNL     1      -0.984   5.409  24.753  0.00  0.00    +0.099 C 
ENDBRANCH  28  32
ENDBRANCH   1  18
ENDBRANCH   8   1
ENDBRANCH  12   8
TORSDOF 6
ENDMDL
MODEL 2
REMARK VINA RESULT:       2.2      1.515      4.306
REMARK  Name = 28961042
REMARK  7 active torsions:
REMARK  status: ('A' for Active; 'I' for Inactive)
REMARK    1  A    between atoms: S_1  and  N_8
REMARK    2  A    between atoms: S_1  and  C_18
REMARK    3  A    between atoms: N_7  and  C_17
REMARK    4  A    between atoms: N_8  and  C_12
REMARK    5  A    between atoms: C_13  and  C_16
REMARK    6  A    between atoms: C_19  and  C_20
REMARK    7  A    between atoms: C_28  and  C_32
REMARK                            x       y       z     vdW  Elec       q    Type
REMARK                         _______ _______ _______ _____ _____    ______ ____
ROOT
ATOM      7  N   UNL     1      -2.130   4.653  24.998  0.00  0.00    -0.293 NA
ATOM     12  C   UNL     1      -3.940   3.828  26.218  0.00  0.00    +0.092 C 
ATOM     13  C   UNL     1      -1.567   3.508  25.742  0.00  0.00    +0.147 C 
ATOM     14  C   UNL     1      -2.790   2.840  26.401  0.00  0.00    +0.050 C 
ATOM     15  C   UNL     1      -3.269   5.124  25.793  0.00  0.00    +0.105 C 
ATOM     17  C   UNL     1      -1.161   5.714  24.757  0.00  0.00    +0.105 C 
ENDROOT
BRANCH  13  16
ATOM      2  O   UNL     1      -1.501   1.683  24.119  0.00  0.00    -0.336 OA
ATOM      9  N   UNL     1       0.517   2.433  24.736  0.00  0.00    -0.190 NA
ATOM     10  N   UNL     1      -0.568   0.914  23.413  0.00  0.00    -0.056 NA
ATOM     16  C   UNL     1      -0.779   2.552  24.874  0.00  0.00    +0.245 A 
ATOM     19  C   UNL     1       0.599   1.415  23.830  0.00  0.00    +0.202 A 
BRANCH  19  20
ATOM      5  O   UNL     1       5.423   0.753  24.226  0.00  0.00    -0.453 OA
ATOM      6  O   UNL     1       5.536  -0.433  22.132  0.00  0.00    -0.453 OA
ATOM     20  C   UNL     1       1.861   0.923  23.360  0.00  0.00    +0.026 A 
ATOM     23  C   UNL     1       3.014   1.134  24.120  0.00  0.00    +0.061 A 
ATOM     26  C   UNL     1       1.927   0.232  22.138  0.00  0.00    +0.015 A 
ATOM     27  C   UNL     1       4.205   0.643  23.628  0.00  0.00    +0.167 A 
ATOM     29  C   UNL     1       4.270  -0.035  22.432  0.00  0.00    +0.166 A 
ATOM     30  C   UNL     1       3.146  -0.257  21.662  0.00  0.00    +0.050 A 
ATOM     31  C   UNL     1       6.261   0.068  23.273  0.00  0.00    +0.466 C 
ENDBRANCH  19  20
ENDBRANCH  13  16
BRANCH  12   8
ATOM      8  N   UNL     1      -4.849   3.350  25.145  0.00  0.00    -0.186 NA
ATOM     33  H   UNL     1      -5.024   3.985  24.356  0.00  0.00    +0.148 HD
BRANCH   8   1
ATOM      1  S   UNL     1      -5.859   2.017  25.428  0.00  0.00    +0.059 S 
ATOM      3  O   UNL     1      -6.919   1.994  24.438  0.00  0.00    -0.153 OA
ATOM      4  O   UNL     1      -6.179   1.967  26.841  0.00  0.00    -0.153 OA
BRANCH   1  18
ATOM     18  C   UNL     1      -4.775   0.660  25.095  0.00  0.00    +0.105 A 
ATOM     21  C   UNL     1      -4.198  -0.046  26.150  0.00  0.00    +0.030 A 
ATOM     22  C   UNL     1      -4.498   0.297  23.777  0.00  0.00    +0.030 A 
ATOM     24  C   UNL     1      -3.344  -1.116  25.887  0.00  0.00    +0.021 A 
ATOM     25  C   UNL     1      -3.643  -0.773  23.514  0.00  0.00    +0.021 A 
ATOM     28  C   UNL     1      -3.066  -1.480  24.570  0.00  0.00    +0.052 A 
BRANCH  28  32
ATOM     11  N   UNL     1      -1.477  -3.467  24.081  0.00  0.00    -0.191 NA
ATOM     32  C   UNL     1      -2.189  -2.576  24.300  0.00  0.00    +0.099 C 
ENDBRANCH  28  32
ENDBRANCH   1  18
ENDBRANCH   8   1
ENDBRANCH  12   8
TORSDOF 6
ENDMDL
MODEL 3
REMARK VINA RESULT:       3.1      1.681      4.205
REMARK  Name = 28961042
REMARK  7 active torsions:
REMARK  status: ('A' for Active; 'I' for Inactive)
REMARK    1  A    between atoms: S_1  and  N_8
REMARK    2  A    between atoms: S_1  and  C_18
REMARK    3  A    between atoms: N_7  and  C_17
REMARK    4  A    between atoms: N_8  and  C_12
REMARK    5  A    between atoms: C_13  and  C_16
REMARK    6  A    between atoms: C_19  and  C_20
REMARK    7  A    between atoms: C_28  and  C_32
REMARK                            x       y       z     vdW  Elec       q    Type
REMARK                         _______ _______ _______ _____ _____    ______ ____
ROOT
ATOM      7  N   UNL     1      -3.940   3.239  23.816  0.00  0.00    -0.293 NA
ATOM     12  C   UNL     1      -4.888   4.143  25.746  0.00  0.00    +0.092 C 
ATOM     13  C   UNL     1      -2.827   3.973  24.449  0.00  0.00    +0.147 C 
ATOM     14  C   UNL     1      -3.387   4.413  25.816  0.00  0.00    +0.050 C 
ATOM     15  C   UNL     1      -5.166   3.901  24.271  0.00  0.00    +0.105 C 
ATOM     17  C   UNL     1      -3.851   3.203  22.361  0.00  0.00    +0.105 C 
ENDROOT
BRANCH  13  16
ATOM      2  O   UNL     1      -1.083   2.967  25.833  0.00  0.00    -0.336 OA
ATOM      9  N   UNL     1      -0.837   2.596  23.638  0.00  0.00    -0.190 NA
ATOM     10  N   UNL     1       0.078   2.195  25.696  0.00  0.00    -0.056 NA
ATOM     16  C   UNL     1      -1.559   3.157  24.575  0.00  0.00    +0.245 A 
ATOM     19  C   UNL     1       0.157   2.017  24.374  0.00  0.00    +0.202 A 
BRANCH  19  20
ATOM      5  O   UNL     1       4.867   1.028  23.537  0.00  0.00    -0.453 OA
ATOM      6  O   UNL     1       4.327  -0.798  22.061  0.00  0.00    -0.453 OA
ATOM     20  C   UNL     1       1.213   1.267  23.758  0.00  0.00    +0.026 A 
ATOM     23  C   UNL     1       2.544   1.601  24.019  0.00  0.00    +0.061 A 
ATOM     26  C   UNL     1       0.898   0.203  22.896  0.00  0.00    +0.015 A 
ATOM     27  C   UNL     1       3.525   0.851  23.404  0.00  0.00    +0.167 A 
ATOM     29  C   UNL     1       3.216  -0.192  22.560  0.00  0.00    +0.166 A 
ATOM     30  C   UNL     1       1.910  -0.542  22.286  0.00  0.00    +0.050 A 
ATOM     31  C   UNL     1       5.369  -0.021  22.684  0.00  0.00    +0.466 C 
ENDBRANCH  19  20
ENDBRANCH  13  16
BRANCH  12   8
ATOM      8  N   UNL     1      -5.218   2.926  26.531  0.00  0.00    -0.186 NA
ATOM     33  H   UNL     1      -4.683   2.759  27.392  0.00  0.00    +0.148 HD
BRANCH   8   1
ATOM      1  S   UNL     1      -6.125   1.683  25.817  0.00  0.00    +0.059 S 
ATOM      3  O   UNL     1      -6.750   2.175  24.604  0.00  0.00    -0.153 OA
ATOM      4  O   UNL     1      -6.925   1.042  26.842  0.00  0.00    -0.153 OA
BRANCH   1  18
ATOM     18  C   UNL     1      -4.865   0.533  25.351  0.00  0.00    +0.105 A 
ATOM     21  C   UNL     1      -5.090  -0.361  24.305  0.00  0.00    +0.030 A 
ATOM     22  C   UNL     1      -3.647   0.520  26.031  0.00  0.00    +0.030 A 
ATOM     24  C   UNL     1      -4.096  -1.268  23.937  0.00  0.00    +0.021 A 
ATOM     25  C   UNL     1      -2.653  -0.387  25.664  0.00  0.00    +0.021 A 
ATOM     28  C   UNL     1      -2.878  -1.281  24.616  0.00  0.00    +0.052 A 
BRANCH  28  32
ATOM     11  N   UNL     1      -1.032  -2.966  23.935  0.00  0.00    -0.191 NA
ATOM     32  C   UNL     1      -1.860  -2.211  24.241  0.00  0.00    +0.099 C 
ENDBRANCH  28  32
ENDBRANCH   1  18
ENDBRANCH   8   1
ENDBRANCH  12   8
TORSDOF 6
ENDMDL
MODEL 4
REMARK VINA RESULT:       4.7      2.202      2.655
REMARK  Name = 28961042
REMARK  7 active torsions:
REMARK  status: ('A' for Active; 'I' for Inactive)
REMARK    1  A    between atoms: S_1  and  N_8
REMARK    2  A    between atoms: S_1  and  C_18
REMARK    3  A    between atoms: N_7  and  C_17
REMARK    4  A    between atoms: N_8  and  C_12
REMARK    5  A    between atoms: C_13  and  C_16
REMARK    6  A    between atoms: C_19  and  C_20
REMARK    7  A    between atoms: C_28  and  C_32
REMARK                            x       y       z     vdW  Elec       q    Type
REMARK                         _______ _______ _______ _____ _____    ______ ____
ROOT
ATOM      7  N   UNL     1      -3.855  -0.604  25.628  0.00  0.00    -0.293 NA
ATOM     12  C   UNL     1      -4.835   0.921  24.158  0.00  0.00    +0.092 C 
ATOM     13  C   UNL     1      -3.277  -0.953  24.316  0.00  0.00    +0.147 C 
ATOM     14  C   UNL     1      -3.767   0.164  23.372  0.00  0.00    +0.050 C 
ATOM     15  C   UNL     1      -5.151   0.020  25.341  0.00  0.00    +0.105 C 
ATOM     17  C   UNL     1      -3.990  -1.749  26.520  0.00  0.00    +0.105 C 
ENDROOT
BRANCH  13  16
ATOM      2  O   UNL     1      -1.259  -2.142  25.009  0.00  0.00    -0.336 OA
ATOM      9  N   UNL     1      -0.865  -0.309  23.787  0.00  0.00    -0.190 NA
ATOM     10  N   UNL     1       0.132  -2.049  24.886  0.00  0.00    -0.056 NA
ATOM     16  C   UNL     1      -1.770  -1.080  24.334  0.00  0.00    +0.245 A 
ATOM     19  C   UNL     1       0.287  -0.943  24.153  0.00  0.00    +0.202 A 
BRANCH  19  20
ATOM      5  O   UNL     1       5.138  -1.325  23.718  0.00  0.00    -0.453 OA
ATOM      6  O   UNL     1       5.323   0.857  22.712  0.00  0.00    -0.453 OA
ATOM     20  C   UNL     1       1.576  -0.446  23.768  0.00  0.00    +0.026 A 
ATOM     23  C   UNL     1       2.713  -1.231  23.978  0.00  0.00    +0.061 A 
ATOM     26  C   UNL     1       1.684   0.827  23.182  0.00  0.00    +0.015 A 
ATOM     27  C   UNL     1       3.931  -0.711  23.592  0.00  0.00    +0.167 A 
ATOM     29  C   UNL     1       4.036   0.536  23.017  0.00  0.00    +0.166 A 
ATOM     30  C   UNL     1       2.929   1.330  22.798  0.00  0.00    +0.050 A 
ATOM     31  C   UNL     1       6.015  -0.327  23.158  0.00  0.00    +0.466 C 
ENDBRANCH  19  20
ENDBRANCH  13  16
BRANCH  12   8
ATOM      8  N   UNL     1      -4.285   2.214  24.637  0.00  0.00    -0.186 NA
ATOM     33  H   UNL     1      -4.828   2.727  25.343  0.00  0.00    +0.148 HD
BRANCH   8   1
ATOM      1  S   UNL     1      -3.057   2.986  23.756  0.00  0.00    +0.059 S 
ATOM      3  O   UNL     1      -3.416   4.375  23.540  0.00  0.00    -0.153 OA
ATOM      4  O   UNL     1      -2.689   2.144  22.635  0.00  0.00    -0.153 OA
BRANCH   1  18
ATOM     18  C   UNL     1      -1.707   2.945  24.898  0.00  0.00    +0.105 A 
ATOM     21  C   UNL     1      -1.604   1.903  25.818  0.00  0.00    +0.030 A 
ATOM     22  C   UNL     1      -0.746   3.956  24.877  0.00  0.00    +0.030 A 
ATOM     24  C   UNL     1      -0.539   1.870  26.718  0.00  0.00    +0.021 A 
ATOM     25  C   UNL     1       0.319   3.924  25.777  0.00  0.00    +0.021 A 
ATOM     28  C   UNL     1       0.422   2.880  26.698  0.00  0.00    +0.052 A 
BRANCH  28  32
ATOM     11  N   UNL     1       2.400   2.821  28.370  0.00  0.00    -0.191 NA
ATOM     32  C   UNL     1       1.513   2.848  27.620  0.00  0.00    +0.099 C 
ENDBRANCH  28  32
ENDBRANCH   1  18
ENDBRANCH   8   1
ENDBRANCH  12   8
TORSDOF 6
ENDMDL
