MODEL 1
REMARK VINA RESULT:      -3.7      0.000      0.000
REMARK  Name = 51136666
REMARK  8 active torsions:
REMARK  status: ('A' for Active; 'I' for Inactive)
REMARK    1  A    between atoms: O_2  and  C_18
REMARK    2  A    between atoms: O_4  and  C_26
REMARK    3  A    between atoms: O_4  and  C_31
REMARK    4  A    between atoms: C_8  and  C_13
REMARK    5  A    between atoms: C_9  and  C_14
REMARK    6  A    between atoms: C_13  and  C_15
REMARK    7  A    between atoms: C_14  and  C_18
REMARK    8  A    between atoms: C_16  and  C_22
REMARK                            x       y       z     vdW  Elec       q    Type
REMARK                         _______ _______ _______ _____ _____    ______ ____
ROOT
ATOM      1  O   UNL     1      17.398  -8.148  24.376  0.00  0.00    -0.270 OA
ATOM      5  N   UNL     1      15.889  -7.876  26.141  0.00  0.00    -0.297 N 
ATOM      8  C   UNL     1      15.451  -7.399  28.541  0.00  0.00    +0.016 C 
ATOM      9  C   UNL     1      15.194  -8.912  28.755  0.00  0.00    +0.006 C 
ATOM     10  C   UNL     1      15.948  -9.766  27.721  0.00  0.00    +0.023 C 
ATOM     11  C   UNL     1      15.153  -7.017  27.079  0.00  0.00    +0.112 C 
ATOM     12  C   UNL     1      15.642  -9.308  26.298  0.00  0.00    +0.108 C 
ATOM     16  C   UNL     1      16.776  -7.433  25.158  0.00  0.00    +0.248 C 
ENDROOT
BRANCH  16  22
ATOM      7  N   UNL     1      17.215  -4.049  23.604  0.00  0.00    -0.263 NA
ATOM     22  C   UNL     1      16.999  -5.988  25.031  0.00  0.00    +0.055 A 
ATOM     27  C   UNL     1      17.198  -5.193  26.154  0.00  0.00    +0.016 A 
ATOM     28  C   UNL     1      17.017  -5.373  23.789  0.00  0.00    +0.123 A 
ATOM     29  C   UNL     1      17.405  -3.826  26.003  0.00  0.00    +0.020 A 
ATOM     30  C   UNL     1      17.405  -3.308  24.718  0.00  0.00    +0.111 A 
ENDBRANCH  16  22
BRANCH   8  13
ATOM     13  C   UNL     1      16.864  -6.946  28.931  0.00  0.00    +0.061 C 
BRANCH  13  15
ATOM      6  N   UNL     1      16.812  -7.177  31.321  0.00  0.00    -0.287 NA
ATOM     15  C   UNL     1      16.848  -6.359  30.321  0.00  0.00    +0.044 C 
ATOM     17  C   UNL     1      16.869  -4.881  30.474  0.00  0.00    -0.001 A 
ATOM     19  C   UNL     1      16.468  -4.369  31.714  0.00  0.00    -0.033 A 
ATOM     20  C   UNL     1      16.040  -5.328  32.785  0.00  0.00    +0.059 C 
ATOM     21  C   UNL     1      16.858  -6.607  32.672  0.00  0.00    +0.146 C 
ATOM     23  C   UNL     1      17.250  -4.021  29.442  0.00  0.00    +0.013 A 
ATOM     24  C   UNL     1      16.427  -2.986  31.909  0.00  0.00    +0.050 A 
ATOM     25  C   UNL     1      17.219  -2.642  29.651  0.00  0.00    +0.046 A 
ATOM     26  C   UNL     1      16.807  -2.124  30.880  0.00  0.00    +0.120 A 
BRANCH  26   4
ATOM      4  O   UNL     1      16.772  -0.778  31.073  0.00  0.00    -0.495 OA
ATOM     31  C   UNL     1      16.861  -0.313  32.419  0.00  0.00    +0.277 C 
ENDBRANCH  26   4
ENDBRANCH  13  15
ENDBRANCH   8  13
BRANCH   9  14
ATOM     14  C   UNL     1      15.510  -9.380  30.175  0.00  0.00    +0.124 C 
BRANCH  14  18
ATOM      3  O   UNL     1      13.147  -9.148  30.725  0.00  0.00    -0.251 OA
ATOM     18  C   UNL     1      14.310  -9.270  31.075  0.00  0.00    +0.305 C 
BRANCH  18   2
ATOM      2  O   UNL     1      14.706  -9.327  32.374  0.00  0.00    -0.481 OA
ATOM     32  H   UNL     1      15.645  -9.597  32.457  0.00  0.00    +0.295 HD
ENDBRANCH  18   2
ENDBRANCH  14  18
ENDBRANCH   9  14
TORSDOF 7
ENDMDL
