MODEL 1
REMARK VINA RESULT:       1.6      0.000      0.000
REMARK  Name = 7144133
REMARK  5 active torsions:
REMARK  status: ('A' for Active; 'I' for Inactive)
REMARK    1  A    between atoms: O_4  and  C_21
REMARK    2  A    between atoms: O_4  and  C_27
REMARK    3  A    between atoms: C_14  and  C_19
REMARK    4  A    between atoms: C_16  and  C_20
REMARK    5  A    between atoms: C_20  and  C_21
REMARK                            x       y       z     vdW  Elec       q    Type
REMARK                         _______ _______ _______ _____ _____    ______ ____
ROOT
ATOM      2  O   UNL     1      -2.973   4.519  27.166  0.00  0.00    -0.268 OA
ATOM      3  O   UNL     1      -5.380  -0.004  25.943  0.00  0.00    -0.276 OA
ATOM      5  N   UNL     1      -4.075   0.700  24.152  0.00  0.00    -0.300 N 
ATOM      6  N   UNL     1      -2.597   3.319  25.190  0.00  0.00    -0.311 N 
ATOM      7  C   UNL     1      -4.427   3.052  23.414  0.00  0.00    +0.027 C 
ATOM      8  C   UNL     1      -2.234   1.991  23.086  0.00  0.00    +0.054 C 
ATOM      9  C   UNL     1      -3.264   2.919  22.444  0.00  0.00    +0.018 C 
ATOM     10  C   UNL     1      -5.061   1.681  23.699  0.00  0.00    +0.113 C 
ATOM     11  C   UNL     1      -3.919   3.722  24.692  0.00  0.00    +0.130 C 
ATOM     12  C   UNL     1      -2.868   0.604  23.321  0.00  0.00    +0.117 C 
ATOM     13  C   UNL     1      -1.705   2.562  24.405  0.00  0.00    +0.034 A 
ATOM     14  C   UNL     1      -0.438   2.340  24.844  0.00  0.00    +0.002 A 
ATOM     15  C   UNL     1      -2.241   3.841  26.446  0.00  0.00    +0.252 A 
ATOM     16  C   UNL     1      -4.357  -0.103  25.258  0.00  0.00    +0.218 C 
ATOM     17  C   UNL     1      -0.036   2.860  26.137  0.00  0.00    +0.015 A 
ATOM     18  C   UNL     1      -0.866   3.554  26.915  0.00  0.00    +0.071 A 
ENDROOT
BRANCH  14  19
ATOM      1 CL   UNL     1       3.516  -0.788  21.622  0.00  0.00    -0.084 Cl
ATOM     19  C   UNL     1       0.539   1.567  24.047  0.00  0.00    -0.016 A 
ATOM     22  C   UNL     1       0.210   0.292  23.599  0.00  0.00    +0.010 A 
ATOM     23  C   UNL     1       1.782   2.121  23.751  0.00  0.00    +0.010 A 
ATOM     24  C   UNL     1       1.132  -0.437  22.847  0.00  0.00    +0.020 A 
ATOM     25  C   UNL     1       2.703   1.392  22.999  0.00  0.00    +0.020 A 
ATOM     26  C   UNL     1       2.379   0.112  22.549  0.00  0.00    +0.041 A 
ENDBRANCH  14  19
BRANCH  16  20
ATOM     20  C   UNL     1      -3.325  -1.139  25.622  0.00  0.00    +0.124 C 
BRANCH  20  21
ATOM     21  C   UNL     1      -3.607  -2.420  24.866  0.00  0.00    +0.168 C 
BRANCH  21   4
ATOM      4  O   UNL     1      -2.451  -2.806  24.135  0.00  0.00    -0.382 OA
ATOM     27  C   UNL     1      -1.259  -2.429  24.808  0.00  0.00    +0.194 C 
ENDBRANCH  21   4
ENDBRANCH  20  21
ENDBRANCH  16  20
TORSDOF 4
ENDMDL
MODEL 2
REMARK VINA RESULT:       2.9      2.952      4.807
REMARK  Name = 7144133
REMARK  5 active torsions:
REMARK  status: ('A' for Active; 'I' for Inactive)
REMARK    1  A    between atoms: O_4  and  C_21
REMARK    2  A    between atoms: O_4  and  C_27
REMARK    3  A    between atoms: C_14  and  C_19
REMARK    4  A    between atoms: C_16  and  C_20
REMARK    5  A    between atoms: C_20  and  C_21
REMARK                            x       y       z     vdW  Elec       q    Type
REMARK                         _______ _______ _______ _____ _____    ______ ____
ROOT
ATOM      2  O   UNL     1       1.040   2.640  27.736  0.00  0.00    -0.268 OA
ATOM      3  O   UNL     1      -3.306   5.346  26.496  0.00  0.00    -0.276 OA
ATOM      5  N   UNL     1      -2.792   3.860  24.784  0.00  0.00    -0.300 N 
ATOM      6  N   UNL     1      -0.269   2.233  25.837  0.00  0.00    -0.311 N 
ATOM      7  C   UNL     1      -0.451   3.947  23.940  0.00  0.00    +0.027 C 
ATOM      8  C   UNL     1      -1.710   1.840  23.814  0.00  0.00    +0.054 C 
ATOM      9  C   UNL     1      -0.724   2.735  23.064  0.00  0.00    +0.018 C 
ATOM     10  C   UNL     1      -1.749   4.720  24.224  0.00  0.00    +0.113 C 
ATOM     11  C   UNL     1       0.226   3.475  25.228  0.00  0.00    +0.130 C 
ATOM     12  C   UNL     1      -3.026   2.610  24.049  0.00  0.00    +0.117 C 
ATOM     13  C   UNL     1      -1.133   1.357  25.148  0.00  0.00    +0.034 A 
ATOM     14  C   UNL     1      -1.444   0.150  25.688  0.00  0.00    +0.002 A 
ATOM     15  C   UNL     1       0.271   1.922  27.097  0.00  0.00    +0.252 A 
ATOM     16  C   UNL     1      -3.521   4.291  25.893  0.00  0.00    +0.218 C 
ATOM     17  C   UNL     1      -0.908  -0.203  26.988  0.00  0.00    +0.015 A 
ATOM     18  C   UNL     1      -0.113   0.615  27.678  0.00  0.00    +0.071 A 
ENDROOT
BRANCH  14  19
ATOM      1 CL   UNL     1      -5.032  -3.729  22.881  0.00  0.00    -0.084 Cl
ATOM     19  C   UNL     1      -2.331  -0.809  24.993  0.00  0.00    -0.016 A 
ATOM     22  C   UNL     1      -3.644  -0.451  24.705  0.00  0.00    +0.010 A 
ATOM     23  C   UNL     1      -1.846  -2.063  24.634  0.00  0.00    +0.010 A 
ATOM     24  C   UNL     1      -4.480  -1.356  24.050  0.00  0.00    +0.020 A 
ATOM     25  C   UNL     1      -2.682  -2.967  23.980  0.00  0.00    +0.020 A 
ATOM     26  C   UNL     1      -4.000  -2.614  23.688  0.00  0.00    +0.041 A 
ENDBRANCH  14  19
BRANCH  16  20
ATOM     20  C   UNL     1      -4.627   3.383  26.369  0.00  0.00    +0.124 C 
BRANCH  20  21
ATOM     21  C   UNL     1      -5.825   3.525  25.455  0.00  0.00    +0.168 C 
BRANCH  21   4
ATOM      4  O   UNL     1      -6.328   2.237  25.128  0.00  0.00    -0.382 OA
ATOM     27  C   UNL     1      -6.233   1.345  26.228  0.00  0.00    +0.194 C 
ENDBRANCH  21   4
ENDBRANCH  20  21
ENDBRANCH  16  20
TORSDOF 4
ENDMDL
MODEL 3
REMARK VINA RESULT:       3.8      2.667      4.610
REMARK  Name = 7144133
REMARK  5 active torsions:
REMARK  status: ('A' for Active; 'I' for Inactive)
REMARK    1  A    between atoms: O_4  and  C_21
REMARK    2  A    between atoms: O_4  and  C_27
REMARK    3  A    between atoms: C_14  and  C_19
REMARK    4  A    between atoms: C_16  and  C_20
REMARK    5  A    between atoms: C_20  and  C_21
REMARK                            x       y       z     vdW  Elec       q    Type
REMARK                         _______ _______ _______ _____ _____    ______ ____
ROOT
ATOM      2  O   UNL     1      -4.423   4.131  21.114  0.00  0.00    -0.268 OA
ATOM      3  O   UNL     1      -1.946   6.233  25.260  0.00  0.00    -0.276 OA
ATOM      5  N   UNL     1      -2.773   4.135  25.822  0.00  0.00    -0.300 N 
ATOM      6  N   UNL     1      -4.048   3.006  23.134  0.00  0.00    -0.311 N 
ATOM      7  C   UNL     1      -5.180   3.747  25.311  0.00  0.00    +0.027 C 
ATOM      8  C   UNL     1      -3.619   1.848  25.324  0.00  0.00    +0.054 C 
ATOM      9  C   UNL     1      -5.028   2.289  25.716  0.00  0.00    +0.018 C 
ATOM     10  C   UNL     1      -4.137   4.624  26.024  0.00  0.00    +0.113 C 
ATOM     11  C   UNL     1      -5.062   3.843  23.789  0.00  0.00    +0.130 C 
ATOM     12  C   UNL     1      -2.583   2.702  26.083  0.00  0.00    +0.117 C 
ATOM     13  C   UNL     1      -3.393   1.960  23.813  0.00  0.00    +0.034 A 
ATOM     14  C   UNL     1      -2.576   1.116  23.130  0.00  0.00    +0.002 A 
ATOM     15  C   UNL     1      -3.867   3.243  21.759  0.00  0.00    +0.252 A 
ATOM     16  C   UNL     1      -1.762   5.032  25.476  0.00  0.00    +0.218 C 
ATOM     17  C   UNL     1      -2.363   1.331  21.712  0.00  0.00    +0.015 A 
ATOM     18  C   UNL     1      -2.944   2.330  21.047  0.00  0.00    +0.071 A 
ENDROOT
BRANCH  14  19
ATOM      1 CL   UNL     1       0.231  -3.427  25.828  0.00  0.00    -0.084 Cl
ATOM     19  C   UNL     1      -1.882  -0.008  23.797  0.00  0.00    -0.016 A 
ATOM     22  C   UNL     1      -2.619  -0.954  24.502  0.00  0.00    +0.010 A 
ATOM     23  C   UNL     1      -0.496  -0.110  23.714  0.00  0.00    +0.010 A 
ATOM     24  C   UNL     1      -1.964  -2.013  25.131  0.00  0.00    +0.020 A 
ATOM     25  C   UNL     1       0.158  -1.170  24.342  0.00  0.00    +0.020 A 
ATOM     26  C   UNL     1      -0.576  -2.120  25.052  0.00  0.00    +0.041 A 
ENDBRANCH  14  19
BRANCH  16  20
ATOM     20  C   UNL     1      -0.370   4.466  25.355  0.00  0.00    +0.124 C 
BRANCH  20  21
ATOM     21  C   UNL     1      -0.246   3.700  24.055  0.00  0.00    +0.168 C 
BRANCH  21   4
ATOM      4  O   UNL     1       0.461   2.489  24.282  0.00  0.00    -0.382 OA
ATOM     27  C   UNL     1       0.527   2.175  25.665  0.00  0.00    +0.194 C 
ENDBRANCH  21   4
ENDBRANCH  20  21
ENDBRANCH  16  20
TORSDOF 4
ENDMDL
