MODEL 1
REMARK VINA RESULT:       1.6      0.000      0.000
REMARK  Name = 40586222
REMARK  7 active torsions:
REMARK  status: ('A' for Active; 'I' for Inactive)
REMARK    1  A    between atoms: N_6  and  C_20
REMARK    2  A    between atoms: N_7  and  C_26
REMARK    3  A    between atoms: C_15  and  C_18
REMARK    4  A    between atoms: C_18  and  C_19
REMARK    5  A    between atoms: C_19  and  C_22
REMARK    6  A    between atoms: C_19  and  C_23
REMARK    7  A    between atoms: C_19  and  C_24
REMARK                            x       y       z     vdW  Elec       q    Type
REMARK                         _______ _______ _______ _____ _____    ______ ____
ROOT
ATOM      1  O   UNL     1      -4.305  -0.563  26.751  0.00  0.00    -0.276 OA
ATOM      2  O   UNL     1      -0.470   3.055  25.821  0.00  0.00    -0.266 OA
ATOM      4  N   UNL     1      -5.099   1.150  25.397  0.00  0.00    -0.301 N 
ATOM      5  N   UNL     1      -2.603   3.075  24.865  0.00  0.00    -0.310 N 
ATOM      8  C   UNL     1      -4.730   3.475  26.233  0.00  0.00    +0.027 C 
ATOM      9  C   UNL     1      -4.893   3.060  23.815  0.00  0.00    +0.054 C 
ATOM     10  C   UNL     1      -5.298   4.022  24.929  0.00  0.00    +0.018 C 
ATOM     11  C   UNL     1      -5.291   2.071  26.519  0.00  0.00    +0.113 C 
ATOM     12  C   UNL     1      -5.505   1.671  24.084  0.00  0.00    +0.117 C 
ATOM     13  C   UNL     1      -3.199   3.477  26.146  0.00  0.00    +0.130 C 
ATOM     14  C   UNL     1      -3.383   2.946  23.713  0.00  0.00    +0.027 A 
ATOM     15  C   UNL     1      -4.641  -0.146  25.640  0.00  0.00    +0.216 C 
ATOM     16  C   UNL     1      -2.802   2.693  22.528  0.00  0.00    +0.024 A 
ATOM     17  C   UNL     1      -1.200   2.933  24.837  0.00  0.00    +0.273 A 
ATOM     20  C   UNL     1      -0.595   2.627  23.502  0.00  0.00    +0.100 A 
ATOM     21  C   UNL     1      -1.379   2.529  22.425  0.00  0.00    +0.030 A 
ENDROOT
BRANCH  20   6
ATOM      3  O   UNL     1       0.818   0.168  23.715  0.00  0.00    -0.252 OA
ATOM      6  N   UNL     1       0.759   2.469  23.435  0.00  0.00    -0.265 N 
ATOM      7  N   UNL     1       2.792   1.405  23.435  0.00  0.00    -0.269 N 
ATOM     25  C   UNL     1       1.408   1.232  23.546  0.00  0.00    +0.308 C 
ATOM     32  H   UNL     1       1.326   3.303  23.555  0.00  0.00    +0.157 HD
ATOM     33  H   UNL     1       3.123   2.356  23.293  0.00  0.00    +0.156 HD
BRANCH   7  26
ATOM     26  C   UNL     1       3.799   0.413  23.493  0.00  0.00    +0.035 A 
ATOM     27  C   UNL     1       5.143   0.779  23.426  0.00  0.00    +0.023 A 
ATOM     28  C   UNL     1       3.448  -0.931  23.617  0.00  0.00    +0.023 A 
ATOM     29  C   UNL     1       6.136  -0.199  23.482  0.00  0.00    +0.002 A 
ATOM     30  C   UNL     1       4.440  -1.909  23.674  0.00  0.00    +0.002 A 
ATOM     31  C   UNL     1       5.785  -1.543  23.607  0.00  0.00    +0.000 A 
ENDBRANCH   7  26
ENDBRANCH  20   6
BRANCH  15  18
ATOM     18  C   UNL     1      -4.558  -1.066  24.450  0.00  0.00    +0.102 C 
BRANCH  18  19
ATOM     19  C   UNL     1      -3.344  -2.013  24.510  0.00  0.00    -0.029 C 
ATOM     22  C   UNL     1      -3.185  -2.623  25.913  0.00  0.00    +0.011 C 
ATOM     23  C   UNL     1      -2.049  -1.280  24.122  0.00  0.00    +0.011 C 
ATOM     24  C   UNL     1      -3.584  -3.153  23.503  0.00  0.00    +0.011 C 
ENDBRANCH  18  19
ENDBRANCH  15  18
TORSDOF 4
ENDMDL
