MODEL 1
REMARK VINA RESULT:       1.7      0.000      0.000
REMARK  Name = 45784226
REMARK  6 active torsions:
REMARK  status: ('A' for Active; 'I' for Inactive)
REMARK    1  A    between atoms: S_1  and  C_23
REMARK    2  A    between atoms: S_1  and  C_26
REMARK    3  A    between atoms: N_4  and  C_12
REMARK    4  A    between atoms: C_7  and  C_11
REMARK    5  A    between atoms: C_12  and  C_13
REMARK    6  A    between atoms: C_20  and  C_25
REMARK                            x       y       z     vdW  Elec       q    Type
REMARK                         _______ _______ _______ _____ _____    ______ ____
ROOT
ATOM      4  N   UNL     1      -3.009  -2.038  24.603  0.00  0.00    -0.297 NA
ATOM      7  C   UNL     1      -0.670  -2.197  24.576  0.00  0.00    +0.070 C 
ATOM      8  C   UNL     1      -1.146  -1.851  25.998  0.00  0.00    +0.028 C 
ATOM      9  C   UNL     1      -1.881  -1.906  23.679  0.00  0.00    +0.096 C 
ATOM     10  C   UNL     1      -2.578  -1.360  25.826  0.00  0.00    +0.085 C 
ENDROOT
BRANCH   7  11
ATOM      5  N   UNL     1       1.824  -1.970  24.406  0.00  0.00    -0.342 N 
ATOM      6  N   UNL     1       0.639  -0.344  23.463  0.00  0.00    -0.232 NA
ATOM     11  C   UNL     1       0.580  -1.474  24.132  0.00  0.00    +0.113 A 
ATOM     14  C   UNL     1       2.747  -1.103  23.881  0.00  0.00    +0.066 A 
ATOM     15  C   UNL     1       1.983  -0.096  23.297  0.00  0.00    +0.089 A 
ATOM     18  C   UNL     1       4.142  -1.111  23.866  0.00  0.00    +0.031 A 
ATOM     19  C   UNL     1       2.632   0.972  22.656  0.00  0.00    +0.030 A 
ATOM     20  C   UNL     1       4.771  -0.041  23.224  0.00  0.00    -0.048 A 
ATOM     24  C   UNL     1       4.032   0.984  22.629  0.00  0.00    +0.005 A 
ATOM     25  C   UNL     1       6.264   0.007  23.174  0.00  0.00    +0.044 C 
ATOM     27  H   UNL     1       2.031  -2.823  24.909  0.00  0.00    +0.167 HD
ENDBRANCH   7  11
BRANCH   4  12
ATOM     12  C   UNL     1      -4.239  -1.475  24.063  0.00  0.00    +0.119 C 
BRANCH  12  13
ATOM     13  C   UNL     1      -4.337   0.005  24.318  0.00  0.00    -0.033 A 
ATOM     16  C   UNL     1      -5.306   0.500  25.190  0.00  0.00    +0.007 A 
ATOM     17  C   UNL     1      -3.457   0.882  23.682  0.00  0.00    +0.007 A 
ATOM     21  C   UNL     1      -5.396   1.873  25.426  0.00  0.00    +0.027 A 
ATOM     22  C   UNL     1      -3.548   2.253  23.917  0.00  0.00    +0.027 A 
ATOM     23  C   UNL     1      -4.517   2.749  24.788  0.00  0.00    +0.088 A 
BRANCH  23   1
ATOM      1  S   UNL     1      -4.628   4.466  25.086  0.00  0.00    -0.006 S 
ATOM      2  O   UNL     1      -4.239   5.180  23.879  0.00  0.00    -0.170 OA
ATOM      3  O   UNL     1      -5.922   4.732  25.699  0.00  0.00    -0.170 OA
ATOM     26  C   UNL     1      -3.372   4.785  26.305  0.00  0.00    +0.200 C 
ENDBRANCH  23   1
ENDBRANCH  12  13
ENDBRANCH   4  12
TORSDOF 4
ENDMDL
MODEL 2
REMARK VINA RESULT:       4.8      3.430      6.856
REMARK  Name = 45784226
REMARK  6 active torsions:
REMARK  status: ('A' for Active; 'I' for Inactive)
REMARK    1  A    between atoms: S_1  and  C_23
REMARK    2  A    between atoms: S_1  and  C_26
REMARK    3  A    between atoms: N_4  and  C_12
REMARK    4  A    between atoms: C_7  and  C_11
REMARK    5  A    between atoms: C_12  and  C_13
REMARK    6  A    between atoms: C_20  and  C_25
REMARK                            x       y       z     vdW  Elec       q    Type
REMARK                         _______ _______ _______ _____ _____    ______ ____
ROOT
ATOM      4  N   UNL     1      -3.305  -2.447  25.133  0.00  0.00    -0.297 NA
ATOM      7  C   UNL     1      -4.343  -0.371  25.461  0.00  0.00    +0.070 C 
ATOM      8  C   UNL     1      -4.939  -1.052  24.216  0.00  0.00    +0.028 C 
ATOM      9  C   UNL     1      -3.047  -1.143  25.745  0.00  0.00    +0.096 C 
ATOM     10  C   UNL     1      -3.941  -2.144  23.850  0.00  0.00    +0.085 C 
ENDROOT
BRANCH   7  11
ATOM      5  N   UNL     1      -2.868   1.654  25.298  0.00  0.00    -0.342 N 
ATOM      6  N   UNL     1      -5.054   2.042  25.223  0.00  0.00    -0.232 NA
ATOM     11  C   UNL     1      -4.125   1.118  25.326  0.00  0.00    +0.113 A 
ATOM     14  C   UNL     1      -2.993   3.013  25.168  0.00  0.00    +0.066 A 
ATOM     15  C   UNL     1      -4.367   3.231  25.123  0.00  0.00    +0.089 A 
ATOM     18  C   UNL     1      -2.051   4.039  25.089  0.00  0.00    +0.031 A 
ATOM     19  C   UNL     1      -4.849   4.544  24.991  0.00  0.00    +0.030 A 
ATOM     20  C   UNL     1      -2.548   5.340  24.957  0.00  0.00    -0.048 A 
ATOM     24  C   UNL     1      -3.921   5.590  24.909  0.00  0.00    +0.005 A 
ATOM     25  C   UNL     1      -1.589   6.482  24.867  0.00  0.00    +0.044 C 
ATOM     27  H   UNL     1      -1.997   1.142  25.362  0.00  0.00    +0.167 HD
ENDBRANCH   7  11
BRANCH   4  12
ATOM     12  C   UNL     1      -2.092  -3.237  24.975  0.00  0.00    +0.119 C 
BRANCH  12  13
ATOM     13  C   UNL     1      -0.944  -2.406  24.468  0.00  0.00    -0.033 A 
ATOM     16  C   UNL     1       0.309  -2.503  25.073  0.00  0.00    +0.007 A 
ATOM     17  C   UNL     1      -1.133  -1.538  23.392  0.00  0.00    +0.007 A 
ATOM     21  C   UNL     1       1.373  -1.733  24.602  0.00  0.00    +0.027 A 
ATOM     22  C   UNL     1      -0.070  -0.768  22.922  0.00  0.00    +0.027 A 
ATOM     23  C   UNL     1       1.182  -0.865  23.527  0.00  0.00    +0.088 A 
BRANCH  23   1
ATOM      1  S   UNL     1       2.515   0.098  22.936  0.00  0.00    -0.006 S 
ATOM      2  O   UNL     1       2.558   0.003  21.484  0.00  0.00    -0.170 OA
ATOM      3  O   UNL     1       2.443   1.404  23.575  0.00  0.00    -0.170 OA
ATOM     26  C   UNL     1       3.965  -0.731  23.552  0.00  0.00    +0.200 C 
ENDBRANCH  23   1
ENDBRANCH  12  13
ENDBRANCH   4  12
TORSDOF 4
ENDMDL
MODEL 3
REMARK VINA RESULT:       5.1      1.419      2.298
REMARK  Name = 45784226
REMARK  6 active torsions:
REMARK  status: ('A' for Active; 'I' for Inactive)
REMARK    1  A    between atoms: S_1  and  C_23
REMARK    2  A    between atoms: S_1  and  C_26
REMARK    3  A    between atoms: N_4  and  C_12
REMARK    4  A    between atoms: C_7  and  C_11
REMARK    5  A    between atoms: C_12  and  C_13
REMARK    6  A    between atoms: C_20  and  C_25
REMARK                            x       y       z     vdW  Elec       q    Type
REMARK                         _______ _______ _______ _____ _____    ______ ____
ROOT
ATOM      4  N   UNL     1      -4.291  -0.991  24.675  0.00  0.00    -0.297 NA
ATOM      7  C   UNL     1      -2.162  -1.898  24.299  0.00  0.00    +0.070 C 
ATOM      8  C   UNL     1      -2.546  -2.084  25.778  0.00  0.00    +0.028 C 
ATOM      9  C   UNL     1      -3.150  -0.851  23.769  0.00  0.00    +0.096 C 
ATOM     10  C   UNL     1      -3.701  -1.118  26.009  0.00  0.00    +0.085 C 
ENDROOT
BRANCH   7  11
ATOM      5  N   UNL     1      -0.383  -0.373  23.399  0.00  0.00    -0.342 N 
ATOM      6  N   UNL     1       0.343  -2.201  24.434  0.00  0.00    -0.232 NA
ATOM     11  C   UNL     1      -0.718  -1.522  24.061  0.00  0.00    +0.113 A 
ATOM     14  C   UNL     1       0.985  -0.307  23.341  0.00  0.00    +0.066 A 
ATOM     15  C   UNL     1       1.415  -1.459  23.993  0.00  0.00    +0.089 A 
ATOM     18  C   UNL     1       1.858   0.632  22.790  0.00  0.00    +0.031 A 
ATOM     19  C   UNL     1       2.794  -1.705  24.113  0.00  0.00    +0.030 A 
ATOM     20  C   UNL     1       3.225   0.372  22.918  0.00  0.00    -0.048 A 
ATOM     24  C   UNL     1       3.688  -0.775  23.568  0.00  0.00    +0.005 A 
ATOM     25  C   UNL     1       4.210   1.341  22.350  0.00  0.00    +0.044 C 
ATOM     27  H   UNL     1      -1.026   0.308  23.018  0.00  0.00    +0.167 HD
ENDBRANCH   7  11
BRANCH   4  12
ATOM     12  C   UNL     1      -5.215   0.130  24.583  0.00  0.00    +0.119 C 
BRANCH  12  13
ATOM     13  C   UNL     1      -4.502   1.452  24.659  0.00  0.00    -0.033 A 
ATOM     16  C   UNL     1      -3.444   1.725  23.791  0.00  0.00    +0.007 A 
ATOM     17  C   UNL     1      -4.898   2.406  25.596  0.00  0.00    +0.007 A 
ATOM     21  C   UNL     1      -2.783   2.952  23.861  0.00  0.00    +0.027 A 
ATOM     22  C   UNL     1      -4.237   3.632  25.666  0.00  0.00    +0.027 A 
ATOM     23  C   UNL     1      -3.180   3.905  24.800  0.00  0.00    +0.088 A 
BRANCH  23   1
ATOM      1  S   UNL     1      -2.353   5.441  24.885  0.00  0.00    -0.006 S 
ATOM      2  O   UNL     1      -2.668   6.213  23.691  0.00  0.00    -0.170 OA
ATOM      3  O   UNL     1      -2.602   6.012  26.201  0.00  0.00    -0.170 OA
ATOM     26  C   UNL     1      -0.627   5.020  24.790  0.00  0.00    +0.200 C 
ENDBRANCH  23   1
ENDBRANCH  12  13
ENDBRANCH   4  12
TORSDOF 4
ENDMDL
