MODEL 1
REMARK VINA RESULT:       9.5      0.000      0.000
REMARK  Name = 7687186
REMARK  3 active torsions:
REMARK  status: ('A' for Active; 'I' for Inactive)
REMARK    1  A    between atoms: C_15  and  C_20
REMARK    2  A    between atoms: C_17  and  C_21
REMARK    3  A    between atoms: C_28  and  C_30
REMARK                            x       y       z     vdW  Elec       q    Type
REMARK                         _______ _______ _______ _____ _____    ______ ____
ROOT
ATOM      1  O   UNL     1      -1.733   3.820  28.406  0.00  0.00    -0.268 OA
ATOM      2  O   UNL     1      -5.539   2.485  25.362  0.00  0.00    -0.270 OA
ATOM      3  N   UNL     1      -3.738   2.998  23.963  0.00  0.00    -0.297 N 
ATOM      4  N   UNL     1      -1.485   3.591  26.089  0.00  0.00    -0.311 N 
ATOM      8  C   UNL     1      -2.667   5.181  24.457  0.00  0.00    +0.027 C 
ATOM      9  C   UNL     1      -1.300   3.326  23.598  0.00  0.00    +0.054 C 
ATOM     10  C   UNL     1      -1.521   4.836  23.519  0.00  0.00    +0.018 C 
ATOM     11  C   UNL     1      -3.950   4.442  24.040  0.00  0.00    +0.113 C 
ATOM     12  C   UNL     1      -2.246   4.834  25.885  0.00  0.00    +0.130 C 
ATOM     13  C   UNL     1      -2.583   2.591  23.150  0.00  0.00    +0.117 C 
ATOM     14  C   UNL     1      -0.911   2.884  25.013  0.00  0.00    +0.034 A 
ATOM     15  C   UNL     1      -0.078   1.837  25.259  0.00  0.00    +0.005 A 
ATOM     16  C   UNL     1      -1.267   3.231  27.431  0.00  0.00    +0.252 A 
ATOM     17  C   UNL     1      -4.573   2.141  24.683  0.00  0.00    +0.247 C 
ATOM     18  C   UNL     1       0.164   1.436  26.633  0.00  0.00    +0.015 A 
ATOM     19  C   UNL     1      -0.393   2.062  27.668  0.00  0.00    +0.071 A 
ENDROOT
BRANCH  15  20
ATOM      5  N   UNL     1       0.468  -0.619  22.531  0.00  0.00    -0.243 NA
ATOM      6  N   UNL     1       2.408   0.799  22.707  0.00  0.00    -0.243 NA
ATOM     20  C   UNL     1       0.543   1.121  24.177  0.00  0.00    +0.020 A 
ATOM     22  C   UNL     1      -0.085   0.074  23.548  0.00  0.00    +0.122 A 
ATOM     23  C   UNL     1       1.795   1.449  23.718  0.00  0.00    +0.122 A 
ATOM     29  C   UNL     1       1.697  -0.209  22.166  0.00  0.00    +0.221 A 
ENDBRANCH  15  20
BRANCH  17  21
ATOM     21  C   UNL     1      -4.282   0.702  24.655  0.00  0.00    +0.037 A 
ATOM     24  C   UNL     1      -3.672   0.098  25.753  0.00  0.00    +0.014 A 
ATOM     25  C   UNL     1      -4.617  -0.051  23.533  0.00  0.00    +0.014 A 
ATOM     26  C   UNL     1      -3.396  -1.268  25.727  0.00  0.00    +0.019 A 
ATOM     27  C   UNL     1      -4.340  -1.418  23.508  0.00  0.00    +0.019 A 
ATOM     28  C   UNL     1      -3.729  -2.026  24.605  0.00  0.00    +0.052 A 
BRANCH  28  30
ATOM      7  N   UNL     1      -3.217  -4.566  24.557  0.00  0.00    -0.191 NA
ATOM     30  C   UNL     1      -3.447  -3.427  24.578  0.00  0.00    +0.099 C 
ENDBRANCH  28  30
ENDBRANCH  17  21
TORSDOF 3
ENDMDL
MODEL 2
REMARK VINA RESULT:       9.9      2.443      5.640
REMARK  Name = 7687186
REMARK  3 active torsions:
REMARK  status: ('A' for Active; 'I' for Inactive)
REMARK    1  A    between atoms: C_15  and  C_20
REMARK    2  A    between atoms: C_17  and  C_21
REMARK    3  A    between atoms: C_28  and  C_30
REMARK                            x       y       z     vdW  Elec       q    Type
REMARK                         _______ _______ _______ _____ _____    ______ ____
ROOT
ATOM      1  O   UNL     1       0.275   0.029  21.613  0.00  0.00    -0.268 OA
ATOM      2  O   UNL     1      -4.308  -1.351  23.234  0.00  0.00    -0.270 OA
ATOM      3  N   UNL     1      -2.914  -1.396  25.111  0.00  0.00    -0.297 N 
ATOM      4  N   UNL     1      -0.220  -0.319  23.875  0.00  0.00    -0.311 N 
ATOM      8  C   UNL     1      -0.803  -2.653  24.770  0.00  0.00    +0.027 C 
ATOM      9  C   UNL     1      -0.829  -0.712  26.280  0.00  0.00    +0.054 C 
ATOM     10  C   UNL     1      -0.268  -2.121  26.090  0.00  0.00    +0.018 C 
ATOM     11  C   UNL     1      -2.341  -2.700  24.787  0.00  0.00    +0.113 C 
ATOM     12  C   UNL     1      -0.271  -1.770  23.640  0.00  0.00    +0.130 C 
ATOM     13  C   UNL     1      -2.372  -0.772  26.326  0.00  0.00    +0.117 C 
ATOM     14  C   UNL     1      -0.375   0.233  25.163  0.00  0.00    +0.034 A 
ATOM     15  C   UNL     1      -0.155   1.561  25.361  0.00  0.00    +0.005 A 
ATOM     16  C   UNL     1       0.116   0.462  22.754  0.00  0.00    +0.252 A 
ATOM     17  C   UNL     1      -3.856  -0.826  24.250  0.00  0.00    +0.247 C 
ATOM     18  C   UNL     1       0.188   2.396  24.224  0.00  0.00    +0.015 A 
ATOM     19  C   UNL     1       0.306   1.910  22.990  0.00  0.00    +0.071 A 
ENDROOT
BRANCH  15  20
ATOM      5  N   UNL     1       0.641   2.556  28.846  0.00  0.00    -0.243 NA
ATOM      6  N   UNL     1      -1.546   3.389  28.275  0.00  0.00    -0.243 NA
ATOM     20  C   UNL     1      -0.277   2.140  26.672  0.00  0.00    +0.020 A 
ATOM     22  C   UNL     1       0.722   2.027  27.608  0.00  0.00    +0.122 A 
ATOM     23  C   UNL     1      -1.398   2.834  27.054  0.00  0.00    +0.122 A 
ATOM     29  C   UNL     1      -0.503   3.215  29.109  0.00  0.00    +0.221 A 
ENDBRANCH  15  20
BRANCH  17  21
ATOM     21  C   UNL     1      -4.350   0.522  24.555  0.00  0.00    +0.037 A 
ATOM     24  C   UNL     1      -3.679   1.635  24.053  0.00  0.00    +0.014 A 
ATOM     25  C   UNL     1      -5.486   0.682  25.344  0.00  0.00    +0.014 A 
ATOM     26  C   UNL     1      -4.148   2.916  24.342  0.00  0.00    +0.019 A 
ATOM     27  C   UNL     1      -5.954   1.964  25.634  0.00  0.00    +0.019 A 
ATOM     28  C   UNL     1      -5.285   3.080  25.133  0.00  0.00    +0.052 A 
BRANCH  28  30
ATOM      7  N   UNL     1      -6.160   5.459  25.671  0.00  0.00    -0.191 NA
ATOM     30  C   UNL     1      -5.767   4.393  25.430  0.00  0.00    +0.099 C 
ENDBRANCH  28  30
ENDBRANCH  17  21
TORSDOF 3
ENDMDL
MODEL 3
REMARK VINA RESULT:      10.8      1.855      5.185
REMARK  Name = 7687186
REMARK  3 active torsions:
REMARK  status: ('A' for Active; 'I' for Inactive)
REMARK    1  A    between atoms: C_15  and  C_20
REMARK    2  A    between atoms: C_17  and  C_21
REMARK    3  A    between atoms: C_28  and  C_30
REMARK                            x       y       z     vdW  Elec       q    Type
REMARK                         _______ _______ _______ _____ _____    ______ ____
ROOT
ATOM      1  O   UNL     1      -4.207   4.432  21.489  0.00  0.00    -0.268 OA
ATOM      2  O   UNL     1      -0.727   5.154  25.082  0.00  0.00    -0.270 OA
ATOM      3  N   UNL     1      -2.134   3.462  25.871  0.00  0.00    -0.297 N 
ATOM      4  N   UNL     1      -4.051   3.081  23.396  0.00  0.00    -0.311 N 
ATOM      8  C   UNL     1      -4.549   4.013  25.735  0.00  0.00    +0.027 C 
ATOM      9  C   UNL     1      -3.820   1.679  25.467  0.00  0.00    +0.054 C 
ATOM     10  C   UNL     1      -4.900   2.573  26.074  0.00  0.00    +0.018 C 
ATOM     11  C   UNL     1      -3.174   4.387  26.316  0.00  0.00    +0.113 C 
ATOM     12  C   UNL     1      -4.591   4.177  24.215  0.00  0.00    +0.130 C 
ATOM     13  C   UNL     1      -2.447   2.041  26.077  0.00  0.00    +0.117 C 
ATOM     14  C   UNL     1      -3.766   1.813  23.942  0.00  0.00    +0.034 A 
ATOM     15  C   UNL     1      -3.428   0.783  23.120  0.00  0.00    +0.005 A 
ATOM     16  C   UNL     1      -3.958   3.349  22.018  0.00  0.00    +0.252 A 
ATOM     17  C   UNL     1      -0.987   3.964  25.253  0.00  0.00    +0.247 C 
ATOM     18  C   UNL     1      -3.318   1.026  21.693  0.00  0.00    +0.015 A 
ATOM     19  C   UNL     1      -3.545   2.222  21.153  0.00  0.00    +0.071 A 
ENDROOT
BRANCH  15  20
ATOM      5  N   UNL     1      -3.946  -2.700  24.289  0.00  0.00    -0.243 NA
ATOM      6  N   UNL     1      -1.621  -2.126  24.549  0.00  0.00    -0.243 NA
ATOM     20  C   UNL     1      -3.164  -0.527  23.652  0.00  0.00    +0.020 A 
ATOM     22  C   UNL     1      -4.158  -1.463  23.794  0.00  0.00    +0.122 A 
ATOM     23  C   UNL     1      -1.904  -0.907  24.045  0.00  0.00    +0.122 A 
ATOM     29  C   UNL     1      -2.673  -2.961  24.641  0.00  0.00    +0.221 A 
ENDBRANCH  15  20
BRANCH  17  21
ATOM     21  C   UNL     1       0.001   3.007  24.739  0.00  0.00    +0.037 A 
ATOM     24  C   UNL     1       0.074   1.727  25.284  0.00  0.00    +0.014 A 
ATOM     25  C   UNL     1       0.859   3.382  23.708  0.00  0.00    +0.014 A 
ATOM     26  C   UNL     1       1.011   0.818  24.796  0.00  0.00    +0.019 A 
ATOM     27  C   UNL     1       1.797   2.473  23.221  0.00  0.00    +0.019 A 
ATOM     28  C   UNL     1       1.874   1.191  23.765  0.00  0.00    +0.052 A 
BRANCH  28  30
ATOM      7  N   UNL     1       3.616  -0.498  22.856  0.00  0.00    -0.191 NA
ATOM     30  C   UNL     1       2.834   0.259  23.263  0.00  0.00    +0.099 C 
ENDBRANCH  28  30
ENDBRANCH  17  21
TORSDOF 3
ENDMDL
MODEL 4
REMARK VINA RESULT:      11.4      1.471      1.941
REMARK  Name = 7687186
REMARK  3 active torsions:
REMARK  status: ('A' for Active; 'I' for Inactive)
REMARK    1  A    between atoms: C_15  and  C_20
REMARK    2  A    between atoms: C_17  and  C_21
REMARK    3  A    between atoms: C_28  and  C_30
REMARK                            x       y       z     vdW  Elec       q    Type
REMARK                         _______ _______ _______ _____ _____    ______ ____
ROOT
ATOM      1  O   UNL     1      -2.568   4.031  27.331  0.00  0.00    -0.268 OA
ATOM      2  O   UNL     1      -5.230   0.392  25.049  0.00  0.00    -0.270 OA
ATOM      3  N   UNL     1      -3.776   1.245  23.430  0.00  0.00    -0.297 N 
ATOM      4  N   UNL     1      -2.129   3.318  25.144  0.00  0.00    -0.311 N 
ATOM      8  C   UNL     1      -3.811   3.719  23.246  0.00  0.00    +0.027 C 
ATOM      9  C   UNL     1      -1.721   2.498  22.804  0.00  0.00    +0.054 C 
ATOM     10  C   UNL     1      -2.586   3.673  22.348  0.00  0.00    +0.018 C 
ATOM     11  C   UNL     1      -4.611   2.409  23.140  0.00  0.00    +0.113 C 
ATOM     12  C   UNL     1      -3.351   3.992  24.679  0.00  0.00    +0.130 C 
ATOM     13  C   UNL     1      -2.522   1.184  22.666  0.00  0.00    +0.117 C 
ATOM     14  C   UNL     1      -1.248   2.674  24.252  0.00  0.00    +0.034 A 
ATOM     15  C   UNL     1      -0.051   2.209  24.700  0.00  0.00    +0.005 A 
ATOM     16  C   UNL     1      -1.842   3.468  26.513  0.00  0.00    +0.252 A 
ATOM     17  C   UNL     1      -4.180   0.338  24.412  0.00  0.00    +0.247 C 
ATOM     18  C   UNL     1       0.275   2.343  26.108  0.00  0.00    +0.015 A 
ATOM     19  C   UNL     1      -0.553   2.914  26.982  0.00  0.00    +0.071 A 
ENDROOT
BRANCH  15  20
ATOM      5  N   UNL     1       1.392  -0.180  22.255  0.00  0.00    -0.243 NA
ATOM      6  N   UNL     1       3.033   1.511  22.757  0.00  0.00    -0.243 NA
ATOM     20  C   UNL     1       0.877   1.577  23.800  0.00  0.00    +0.020 A 
ATOM     22  C   UNL     1       0.547   0.439  23.106  0.00  0.00    +0.122 A 
ATOM     23  C   UNL     1       2.137   2.079  23.592  0.00  0.00    +0.122 A 
ATOM     29  C   UNL     1       2.600   0.401  22.129  0.00  0.00    +0.221 A 
ENDBRANCH  15  20
BRANCH  17  21
ATOM     21  C   UNL     1      -3.280  -0.774  24.743  0.00  0.00    +0.037 A 
ATOM     24  C   UNL     1      -3.589  -2.065  24.319  0.00  0.00    +0.014 A 
ATOM     25  C   UNL     1      -2.121  -0.534  25.477  0.00  0.00    +0.014 A 
ATOM     26  C   UNL     1      -2.735  -3.121  24.632  0.00  0.00    +0.019 A 
ATOM     27  C   UNL     1      -1.267  -1.591  25.791  0.00  0.00    +0.019 A 
ATOM     28  C   UNL     1      -1.574  -2.884  25.369  0.00  0.00    +0.052 A 
BRANCH  28  30
ATOM      7  N   UNL     1       0.015  -4.846  25.951  0.00  0.00    -0.191 NA
ATOM     30  C   UNL     1      -0.697  -3.966  25.690  0.00  0.00    +0.099 C 
ENDBRANCH  28  30
ENDBRANCH  17  21
TORSDOF 3
ENDMDL
MODEL 5
REMARK VINA RESULT:      11.9      2.562      5.191
REMARK  Name = 7687186
REMARK  3 active torsions:
REMARK  status: ('A' for Active; 'I' for Inactive)
REMARK    1  A    between atoms: C_15  and  C_20
REMARK    2  A    between atoms: C_17  and  C_21
REMARK    3  A    between atoms: C_28  and  C_30
REMARK                            x       y       z     vdW  Elec       q    Type
REMARK                         _______ _______ _______ _____ _____    ______ ____
ROOT
ATOM      1  O   UNL     1      -1.009   3.368  21.215  0.00  0.00    -0.268 OA
ATOM      2  O   UNL     1       0.438  -0.719  23.812  0.00  0.00    -0.270 OA
ATOM      3  N   UNL     1      -0.598   0.699  25.356  0.00  0.00    -0.297 N 
ATOM      4  N   UNL     1      -1.563   3.031  23.465  0.00  0.00    -0.311 N 
ATOM      8  C   UNL     1       0.235   3.035  25.297  0.00  0.00    +0.027 C 
ATOM      9  C   UNL     1      -2.115   2.599  25.878  0.00  0.00    +0.054 C 
ATOM     10  C   UNL     1      -0.902   3.468  26.209  0.00  0.00    +0.018 C 
ATOM     11  C   UNL     1       0.577   1.552  25.522  0.00  0.00    +0.113 C 
ATOM     12  C   UNL     1      -0.171   3.314  23.849  0.00  0.00    +0.130 C 
ATOM     13  C   UNL     1      -1.773   1.114  26.135  0.00  0.00    +0.117 C 
ATOM     14  C   UNL     1      -2.566   2.789  24.425  0.00  0.00    +0.034 A 
ATOM     15  C   UNL     1      -3.867   2.698  24.037  0.00  0.00    +0.005 A 
ATOM     16  C   UNL     1      -1.843   3.144  22.091  0.00  0.00    +0.252 A 
ATOM     17  C   UNL     1      -0.547  -0.373  24.462  0.00  0.00    +0.247 C 
ATOM     18  C   UNL     1      -4.190   2.804  22.625  0.00  0.00    +0.015 A 
ATOM     19  C   UNL     1      -3.260   2.997  21.692  0.00  0.00    +0.071 A 
ENDROOT
BRANCH  15  20
ATOM      5  N   UNL     1      -6.314   0.979  26.235  0.00  0.00    -0.243 NA
ATOM      6  N   UNL     1      -6.512   3.359  26.554  0.00  0.00    -0.243 NA
ATOM     20  C   UNL     1      -4.910   2.481  25.003  0.00  0.00    +0.020 A 
ATOM     22  C   UNL     1      -5.338   1.219  25.334  0.00  0.00    +0.122 A 
ATOM     23  C   UNL     1      -5.530   3.526  25.643  0.00  0.00    +0.122 A 
ATOM     29  C   UNL     1      -6.849   2.078  26.798  0.00  0.00    +0.221 A 
ENDBRANCH  15  20
BRANCH  17  21
ATOM     21  C   UNL     1      -1.769  -1.160  24.251  0.00  0.00    +0.037 A 
ATOM     24  C   UNL     1      -2.875  -0.570  23.642  0.00  0.00    +0.014 A 
ATOM     25  C   UNL     1      -1.817  -2.490  24.658  0.00  0.00    +0.014 A 
ATOM     26  C   UNL     1      -4.036  -1.317  23.440  0.00  0.00    +0.019 A 
ATOM     27  C   UNL     1      -2.978  -3.236  24.458  0.00  0.00    +0.019 A 
ATOM     28  C   UNL     1      -4.087  -2.649  23.849  0.00  0.00    +0.052 A 
BRANCH  28  30
ATOM      7  N   UNL     1      -6.242  -4.038  23.474  0.00  0.00    -0.191 NA
ATOM     30  C   UNL     1      -5.276  -3.415  23.643  0.00  0.00    +0.099 C 
ENDBRANCH  28  30
ENDBRANCH  17  21
TORSDOF 3
ENDMDL
