MODEL 1
REMARK VINA RESULT:      -5.9      0.000      0.000
REMARK  Name = 75536883
REMARK  5 active torsions:
REMARK  status: ('A' for Active; 'I' for Inactive)
REMARK    1  A    between atoms: O_2  and  C_6
REMARK    2  A    between atoms: O_2  and  C_13
REMARK    3  A    between atoms: O_4  and  C_16
REMARK    4  A    between atoms: O_4  and  C_19
REMARK    5  A    between atoms: C_11  and  C_12
REMARK                            x       y       z     vdW  Elec       q    Type
REMARK                         _______ _______ _______ _____ _____    ______ ____
ROOT
ATOM      1  O   UNL     1      -2.393  -3.084  24.818  0.00  0.00    -0.376 OA
ATOM      3  O   UNL     1      -5.491   0.618  24.829  0.00  0.00    -0.270 OA
ATOM      5  N   UNL     1      -3.405  -0.197  24.138  0.00  0.00    -0.293 N 
ATOM      6  C   UNL     1      -1.074  -1.222  23.957  0.00  0.00    +0.161 C 
ATOM      7  C   UNL     1      -1.963   0.025  23.982  0.00  0.00    +0.142 C 
ATOM      8  C   UNL     1      -3.949  -1.507  23.778  0.00  0.00    +0.136 C 
ATOM      9  C   UNL     1      -1.341  -2.174  25.121  0.00  0.00    +0.193 C 
ATOM     10  C   UNL     1      -3.701  -2.527  24.882  0.00  0.00    +0.179 C 
ATOM     11  C   UNL     1      -4.283   0.772  24.652  0.00  0.00    +0.247 C 
ENDROOT
BRANCH  11  12
ATOM     12  C   UNL     1      -3.735   2.088  25.012  0.00  0.00    +0.040 A 
ATOM     14  C   UNL     1      -2.359   2.250  25.175  0.00  0.00    +0.058 A 
ATOM     15  C   UNL     1      -4.591   3.174  25.194  0.00  0.00    +0.013 A 
ATOM     16  C   UNL     1      -1.840   3.499  25.517  0.00  0.00    +0.121 A 
ATOM     17  C   UNL     1      -4.072   4.423  25.536  0.00  0.00    +0.004 A 
ATOM     18  C   UNL     1      -2.696   4.585  25.698  0.00  0.00    +0.045 A 
BRANCH  16   4
ATOM      4  O   UNL     1      -0.497   3.658  25.674  0.00  0.00    -0.495 OA
ATOM     19  C   UNL     1       0.239   2.532  26.152  0.00  0.00    +0.277 C 
ENDBRANCH  16   4
ENDBRANCH  11  12
BRANCH   6   2
ATOM      2  O   UNL     1       0.278  -0.765  24.032  0.00  0.00    -0.376 OA
ATOM     13  C   UNL     1       0.485   0.367  23.202  0.00  0.00    +0.194 C 
ENDBRANCH   6   2
TORSDOF 3
ENDMDL
MODEL 2
REMARK VINA RESULT:      -5.9      1.444      4.872
REMARK  Name = 75536883
REMARK  5 active torsions:
REMARK  status: ('A' for Active; 'I' for Inactive)
REMARK    1  A    between atoms: O_2  and  C_6
REMARK    2  A    between atoms: O_2  and  C_13
REMARK    3  A    between atoms: O_4  and  C_16
REMARK    4  A    between atoms: O_4  and  C_19
REMARK    5  A    between atoms: C_11  and  C_12
REMARK                            x       y       z     vdW  Elec       q    Type
REMARK                         _______ _______ _______ _____ _____    ______ ____
ROOT
ATOM      1  O   UNL     1      -1.937   4.897  24.717  0.00  0.00    -0.376 OA
ATOM      3  O   UNL     1      -5.457   1.599  24.915  0.00  0.00    -0.270 OA
ATOM      5  N   UNL     1      -3.273   2.182  25.534  0.00  0.00    -0.293 N 
ATOM      6  C   UNL     1      -0.832   2.923  25.631  0.00  0.00    +0.161 C 
ATOM      7  C   UNL     1      -1.865   1.793  25.674  0.00  0.00    +0.142 C 
ATOM      8  C   UNL     1      -3.648   3.561  25.849  0.00  0.00    +0.136 C 
ATOM      9  C   UNL     1      -1.009   3.854  24.434  0.00  0.00    +0.193 C 
ATOM     10  C   UNL     1      -3.304   4.499  24.700  0.00  0.00    +0.179 C 
ATOM     11  C   UNL     1      -4.272   1.307  25.077  0.00  0.00    +0.247 C 
ENDROOT
BRANCH  11  12
ATOM     12  C   UNL     1      -3.895  -0.079  24.761  0.00  0.00    +0.040 A 
ATOM     14  C   UNL     1      -2.680  -0.591  25.215  0.00  0.00    +0.058 A 
ATOM     15  C   UNL     1      -4.752  -0.881  24.007  0.00  0.00    +0.013 A 
ATOM     16  C   UNL     1      -2.322  -1.906  24.915  0.00  0.00    +0.121 A 
ATOM     17  C   UNL     1      -4.394  -2.196  23.707  0.00  0.00    +0.004 A 
ATOM     18  C   UNL     1      -3.179  -2.708  24.162  0.00  0.00    +0.045 A 
BRANCH  16   4
ATOM      4  O   UNL     1      -1.137  -2.407  25.359  0.00  0.00    -0.495 OA
ATOM     19  C   UNL     1       0.049  -1.725  24.953  0.00  0.00    +0.277 C 
ENDBRANCH  16   4
ENDBRANCH  11  12
BRANCH   6   2
ATOM      2  O   UNL     1       0.452   2.304  25.551  0.00  0.00    -0.376 OA
ATOM     13  C   UNL     1       0.680   1.756  24.263  0.00  0.00    +0.194 C 
ENDBRANCH   6   2
TORSDOF 3
ENDMDL
MODEL 3
REMARK VINA RESULT:      -5.7      1.749      6.020
REMARK  Name = 75536883
REMARK  5 active torsions:
REMARK  status: ('A' for Active; 'I' for Inactive)
REMARK    1  A    between atoms: O_2  and  C_6
REMARK    2  A    between atoms: O_2  and  C_13
REMARK    3  A    between atoms: O_4  and  C_16
REMARK    4  A    between atoms: O_4  and  C_19
REMARK    5  A    between atoms: C_11  and  C_12
REMARK                            x       y       z     vdW  Elec       q    Type
REMARK                         _______ _______ _______ _____ _____    ______ ____
ROOT
ATOM      1  O   UNL     1      -2.091   5.239  25.589  0.00  0.00    -0.376 OA
ATOM      3  O   UNL     1       0.558   1.535  23.987  0.00  0.00    -0.270 OA
ATOM      5  N   UNL     1      -1.562   2.528  24.108  0.00  0.00    -0.293 N 
ATOM      6  C   UNL     1      -3.753   3.627  24.819  0.00  0.00    +0.161 C 
ATOM      7  C   UNL     1      -3.002   2.380  24.344  0.00  0.00    +0.142 C 
ATOM      8  C   UNL     1      -1.033   3.869  23.858  0.00  0.00    +0.136 C 
ATOM      9  C   UNL     1      -3.087   4.313  26.010  0.00  0.00    +0.193 C 
ATOM     10  C   UNL     1      -0.871   4.647  25.158  0.00  0.00    +0.179 C 
ATOM     11  C   UNL     1      -0.660   1.452  24.148  0.00  0.00    +0.247 C 
ENDROOT
BRANCH  11  12
ATOM     12  C   UNL     1      -1.192   0.104  24.398  0.00  0.00    +0.040 A 
ATOM     14  C   UNL     1      -2.541  -0.166  24.169  0.00  0.00    +0.058 A 
ATOM     15  C   UNL     1      -0.349  -0.903  24.866  0.00  0.00    +0.013 A 
ATOM     16  C   UNL     1      -3.046  -1.445  24.407  0.00  0.00    +0.121 A 
ATOM     17  C   UNL     1      -0.854  -2.182  25.104  0.00  0.00    +0.004 A 
ATOM     18  C   UNL     1      -2.203  -2.453  24.874  0.00  0.00    +0.045 A 
BRANCH  16   4
ATOM      4  O   UNL     1      -4.363  -1.710  24.182  0.00  0.00    -0.495 OA
ATOM     19  C   UNL     1      -4.674  -2.937  23.522  0.00  0.00    +0.277 C 
ENDBRANCH  16   4
ENDBRANCH  11  12
BRANCH   6   2
ATOM      2  O   UNL     1      -5.062   3.200  25.201  0.00  0.00    -0.376 OA
ATOM     13  C   UNL     1      -5.229   1.807  24.990  0.00  0.00    +0.194 C 
ENDBRANCH   6   2
TORSDOF 3
ENDMDL
MODEL 4
REMARK VINA RESULT:      -5.4      1.648      3.943
REMARK  Name = 75536883
REMARK  5 active torsions:
REMARK  status: ('A' for Active; 'I' for Inactive)
REMARK    1  A    between atoms: O_2  and  C_6
REMARK    2  A    between atoms: O_2  and  C_13
REMARK    3  A    between atoms: O_4  and  C_16
REMARK    4  A    between atoms: O_4  and  C_19
REMARK    5  A    between atoms: C_11  and  C_12
REMARK                            x       y       z     vdW  Elec       q    Type
REMARK                         _______ _______ _______ _____ _____    ______ ____
ROOT
ATOM      1  O   UNL     1       0.819  -0.832  23.115  0.00  0.00    -0.376 OA
ATOM      3  O   UNL     1      -0.178   3.835  23.837  0.00  0.00    -0.270 OA
ATOM      5  N   UNL     1      -0.254   1.654  24.692  0.00  0.00    -0.293 N 
ATOM      6  C   UNL     1      -0.592  -0.842  25.106  0.00  0.00    +0.161 C 
ATOM      7  C   UNL     1      -1.014   0.605  25.379  0.00  0.00    +0.142 C 
ATOM      8  C   UNL     1       1.093   1.338  24.215  0.00  0.00    +0.136 C 
ATOM      9  C   UNL     1      -0.472  -1.161  23.617  0.00  0.00    +0.193 C 
ATOM     10  C   UNL     1       1.042   0.558  22.907  0.00  0.00    +0.179 C 
ATOM     11  C   UNL     1      -0.768   2.936  24.436  0.00  0.00    +0.247 C 
ENDROOT
BRANCH  11  12
ATOM     12  C   UNL     1      -2.121   3.254  24.917  0.00  0.00    +0.040 A 
ATOM     14  C   UNL     1      -3.224   2.583  24.390  0.00  0.00    +0.058 A 
ATOM     15  C   UNL     1      -2.301   4.228  25.900  0.00  0.00    +0.013 A 
ATOM     16  C   UNL     1      -4.508   2.885  24.847  0.00  0.00    +0.121 A 
ATOM     17  C   UNL     1      -3.585   4.530  26.356  0.00  0.00    +0.004 A 
ATOM     18  C   UNL     1      -4.688   3.858  25.829  0.00  0.00    +0.045 A 
BRANCH  16   4
ATOM      4  O   UNL     1      -5.585   2.229  24.334  0.00  0.00    -0.495 OA
ATOM     19  C   UNL     1      -6.460   1.593  25.264  0.00  0.00    +0.277 C 
ENDBRANCH  16   4
ENDBRANCH  11  12
BRANCH   6   2
ATOM      2  O   UNL     1      -1.596  -1.680  25.681  0.00  0.00    -0.376 OA
ATOM     13  C   UNL     1      -2.871  -1.060  25.636  0.00  0.00    +0.194 C 
ENDBRANCH   6   2
TORSDOF 3
ENDMDL
MODEL 5
REMARK VINA RESULT:      -5.3      1.750      3.654
REMARK  Name = 75536883
REMARK  5 active torsions:
REMARK  status: ('A' for Active; 'I' for Inactive)
REMARK    1  A    between atoms: O_2  and  C_6
REMARK    2  A    between atoms: O_2  and  C_13
REMARK    3  A    between atoms: O_4  and  C_16
REMARK    4  A    between atoms: O_4  and  C_19
REMARK    5  A    between atoms: C_11  and  C_12
REMARK                            x       y       z     vdW  Elec       q    Type
REMARK                         _______ _______ _______ _____ _____    ______ ____
ROOT
ATOM      1  O   UNL     1      -1.820  -2.584  24.002  0.00  0.00    -0.376 OA
ATOM      3  O   UNL     1       0.840   1.443  23.927  0.00  0.00    -0.270 OA
ATOM      5  N   UNL     1      -0.845   0.220  25.004  0.00  0.00    -0.293 N 
ATOM      6  C   UNL     1      -2.912  -1.138  25.635  0.00  0.00    +0.161 C 
ATOM      7  C   UNL     1      -2.169   0.201  25.637  0.00  0.00    +0.142 C 
ATOM      8  C   UNL     1      -0.123  -1.045  24.864  0.00  0.00    +0.136 C 
ATOM      9  C   UNL     1      -2.974  -1.789  24.255  0.00  0.00    +0.193 C 
ATOM     10  C   UNL     1      -0.647  -1.847  23.679  0.00  0.00    +0.179 C 
ATOM     11  C   UNL     1      -0.252   1.386  24.492  0.00  0.00    +0.247 C 
ENDROOT
BRANCH  11  12
ATOM     12  C   UNL     1      -0.978   2.658  24.635  0.00  0.00    +0.040 A 
ATOM     14  C   UNL     1      -2.363   2.692  24.472  0.00  0.00    +0.058 A 
ATOM     15  C   UNL     1      -0.281   3.830  24.930  0.00  0.00    +0.013 A 
ATOM     16  C   UNL     1      -3.051   3.898  24.607  0.00  0.00    +0.121 A 
ATOM     17  C   UNL     1      -0.970   5.036  25.064  0.00  0.00    +0.004 A 
ATOM     18  C   UNL     1      -2.355   5.070  24.903  0.00  0.00    +0.045 A 
BRANCH  16   4
ATOM      4  O   UNL     1      -4.403   3.933  24.450  0.00  0.00    -0.495 OA
ATOM     19  C   UNL     1      -5.197   3.659  25.604  0.00  0.00    +0.277 C 
ENDBRANCH  16   4
ENDBRANCH  11  12
BRANCH   6   2
ATOM      2  O   UNL     1      -4.242  -0.871  26.082  0.00  0.00    -0.376 OA
ATOM     13  C   UNL     1      -4.840   0.169  25.324  0.00  0.00    +0.194 C 
ENDBRANCH   6   2
TORSDOF 3
ENDMDL
MODEL 6
REMARK VINA RESULT:      -5.2      1.804      5.728
REMARK  Name = 75536883
REMARK  5 active torsions:
REMARK  status: ('A' for Active; 'I' for Inactive)
REMARK    1  A    between atoms: O_2  and  C_6
REMARK    2  A    between atoms: O_2  and  C_13
REMARK    3  A    between atoms: O_4  and  C_16
REMARK    4  A    between atoms: O_4  and  C_19
REMARK    5  A    between atoms: C_11  and  C_12
REMARK                            x       y       z     vdW  Elec       q    Type
REMARK                         _______ _______ _______ _____ _____    ______ ____
ROOT
ATOM      1  O   UNL     1      -2.878   5.005  26.044  0.00  0.00    -0.376 OA
ATOM      3  O   UNL     1      -1.029   1.611  23.153  0.00  0.00    -0.270 OA
ATOM      5  N   UNL     1      -2.951   2.512  24.147  0.00  0.00    -0.293 N 
ATOM      6  C   UNL     1      -4.727   3.445  25.725  0.00  0.00    +0.161 C 
ATOM      7  C   UNL     1      -4.212   2.289  24.862  0.00  0.00    +0.142 C 
ATOM      8  C   UNL     1      -2.530   3.890  23.893  0.00  0.00    +0.136 C 
ATOM      9  C   UNL     1      -3.669   4.003  26.675  0.00  0.00    +0.193 C 
ATOM     10  C   UNL     1      -1.902   4.509  25.135  0.00  0.00    +0.179 C 
ATOM     11  C   UNL     1      -2.108   1.469  23.726  0.00  0.00    +0.247 C 
ENDROOT
BRANCH  11  12
ATOM     12  C   UNL     1      -2.533   0.083  23.981  0.00  0.00    +0.040 A 
ATOM     14  C   UNL     1      -1.628  -0.837  24.508  0.00  0.00    +0.058 A 
ATOM     15  C   UNL     1      -3.840  -0.309  23.693  0.00  0.00    +0.013 A 
ATOM     16  C   UNL     1      -2.030  -2.151  24.749  0.00  0.00    +0.121 A 
ATOM     17  C   UNL     1      -4.243  -1.623  23.935  0.00  0.00    +0.004 A 
ATOM     18  C   UNL     1      -3.338  -2.544  24.463  0.00  0.00    +0.045 A 
BRANCH  16   4
ATOM      4  O   UNL     1      -1.148  -3.050  25.265  0.00  0.00    -0.495 OA
ATOM     19  C   UNL     1       0.181  -2.590  25.506  0.00  0.00    +0.277 C 
ENDBRANCH  16   4
ENDBRANCH  11  12
BRANCH   6   2
ATOM      2  O   UNL     1      -5.816   2.932  26.493  0.00  0.00    -0.376 OA
ATOM     13  C   UNL     1      -6.182   1.631  26.062  0.00  0.00    +0.194 C 
ENDBRANCH   6   2
TORSDOF 3
ENDMDL
MODEL 7
REMARK VINA RESULT:      -5.1      1.866      5.253
REMARK  Name = 75536883
REMARK  5 active torsions:
REMARK  status: ('A' for Active; 'I' for Inactive)
REMARK    1  A    between atoms: O_2  and  C_6
REMARK    2  A    between atoms: O_2  and  C_13
REMARK    3  A    between atoms: O_4  and  C_16
REMARK    4  A    between atoms: O_4  and  C_19
REMARK    5  A    between atoms: C_11  and  C_12
REMARK                            x       y       z     vdW  Elec       q    Type
REMARK                         _______ _______ _______ _____ _____    ______ ____
ROOT
ATOM      1  O   UNL     1      -5.406   3.586  26.105  0.00  0.00    -0.376 OA
ATOM      3  O   UNL     1      -0.724   3.608  24.930  0.00  0.00    -0.270 OA
ATOM      5  N   UNL     1      -2.857   2.744  24.487  0.00  0.00    -0.293 N 
ATOM      6  C   UNL     1      -5.180   1.691  24.585  0.00  0.00    +0.161 C 
ATOM      7  C   UNL     1      -3.702   1.578  24.202  0.00  0.00    +0.142 C 
ATOM      8  C   UNL     1      -3.502   4.049  24.638  0.00  0.00    +0.136 C 
ATOM      9  C   UNL     1      -5.396   2.165  26.020  0.00  0.00    +0.193 C 
ATOM     10  C   UNL     1      -4.124   4.197  26.021  0.00  0.00    +0.179 C 
ATOM     11  C   UNL     1      -1.466   2.664  24.660  0.00  0.00    +0.247 C 
ENDROOT
BRANCH  11  12
ATOM     12  C   UNL     1      -0.818   1.351  24.507  0.00  0.00    +0.040 A 
ATOM     14  C   UNL     1       0.177   1.173  23.547  0.00  0.00    +0.058 A 
ATOM     15  C   UNL     1      -1.202   0.285  25.321  0.00  0.00    +0.013 A 
ATOM     16  C   UNL     1       0.791  -0.072  23.402  0.00  0.00    +0.121 A 
ATOM     17  C   UNL     1      -0.588  -0.959  25.175  0.00  0.00    +0.004 A 
ATOM     18  C   UNL     1       0.409  -1.138  24.216  0.00  0.00    +0.045 A 
BRANCH  16   4
ATOM      4  O   UNL     1       1.764  -0.246  22.466  0.00  0.00    -0.495 OA
ATOM     19  C   UNL     1       2.986   0.465  22.660  0.00  0.00    +0.277 C 
ENDBRANCH  16   4
ENDBRANCH  11  12
BRANCH   6   2
ATOM      2  O   UNL     1      -5.745   0.387  24.436  0.00  0.00    -0.376 OA
ATOM     13  C   UNL     1      -4.734  -0.594  24.270  0.00  0.00    +0.194 C 
ENDBRANCH   6   2
TORSDOF 3
ENDMDL
MODEL 8
REMARK VINA RESULT:      -5.0     14.483     16.467
REMARK  Name = 75536883
REMARK  5 active torsions:
REMARK  status: ('A' for Active; 'I' for Inactive)
REMARK    1  A    between atoms: O_2  and  C_6
REMARK    2  A    between atoms: O_2  and  C_13
REMARK    3  A    between atoms: O_4  and  C_16
REMARK    4  A    between atoms: O_4  and  C_19
REMARK    5  A    between atoms: C_11  and  C_12
REMARK                            x       y       z     vdW  Elec       q    Type
REMARK                         _______ _______ _______ _____ _____    ______ ____
ROOT
ATOM      1  O   UNL     1      -2.973  -9.166  10.116  0.00  0.00    -0.376 OA
ATOM      3  O   UNL     1      -1.581 -10.451  14.556  0.00  0.00    -0.270 OA
ATOM      5  N   UNL     1      -3.161 -10.699  12.843  0.00  0.00    -0.293 N 
ATOM      6  C   UNL     1      -4.897 -10.379  10.998  0.00  0.00    +0.161 C 
ATOM      7  C   UNL     1      -4.570 -10.778  12.440  0.00  0.00    +0.142 C 
ATOM      8  C   UNL     1      -2.137 -10.735  11.798  0.00  0.00    +0.136 C 
ATOM      9  C   UNL     1      -4.305  -9.029  10.599  0.00  0.00    +0.193 C 
ATOM     10  C   UNL     1      -1.992  -9.376  11.125  0.00  0.00    +0.179 C 
ATOM     11  C   UNL     1      -2.748 -10.553  14.177  0.00  0.00    +0.247 C 
ENDROOT
BRANCH  11  12
ATOM     12  C   UNL     1      -3.778 -10.517  15.227  0.00  0.00    +0.040 A 
ATOM     14  C   UNL     1      -5.102 -10.232  14.894  0.00  0.00    +0.058 A 
ATOM     15  C   UNL     1      -3.430 -10.768  16.554  0.00  0.00    +0.013 A 
ATOM     16  C   UNL     1      -6.079 -10.198  15.890  0.00  0.00    +0.121 A 
ATOM     17  C   UNL     1      -4.407 -10.734  17.550  0.00  0.00    +0.004 A 
ATOM     18  C   UNL     1      -5.732 -10.449  17.217  0.00  0.00    +0.045 A 
BRANCH  16   4
ATOM      4  O   UNL     1      -7.372  -9.921  15.567  0.00  0.00    -0.495 OA
ATOM     19  C   UNL     1      -8.168  -9.283  16.565  0.00  0.00    +0.277 C 
ENDBRANCH  16   4
ENDBRANCH  11  12
BRANCH   6   2
ATOM      2  O   UNL     1      -6.320 -10.309  10.903  0.00  0.00    -0.376 OA
ATOM     13  C   UNL     1      -6.821  -9.145  11.539  0.00  0.00    +0.194 C 
ENDBRANCH   6   2
TORSDOF 3
ENDMDL
MODEL 9
REMARK VINA RESULT:      -4.6      1.454      4.173
REMARK  Name = 75536883
REMARK  5 active torsions:
REMARK  status: ('A' for Active; 'I' for Inactive)
REMARK    1  A    between atoms: O_2  and  C_6
REMARK    2  A    between atoms: O_2  and  C_13
REMARK    3  A    between atoms: O_4  and  C_16
REMARK    4  A    between atoms: O_4  and  C_19
REMARK    5  A    between atoms: C_11  and  C_12
REMARK                            x       y       z     vdW  Elec       q    Type
REMARK                         _______ _______ _______ _____ _____    ______ ____
ROOT
ATOM      1  O   UNL     1       1.460   1.257  23.670  0.00  0.00    -0.376 OA
ATOM      3  O   UNL     1      -1.910   4.153  25.556  0.00  0.00    -0.270 OA
ATOM      5  N   UNL     1      -1.079   1.970  25.363  0.00  0.00    -0.293 N 
ATOM      6  C   UNL     1      -0.195  -0.291  24.574  0.00  0.00    +0.161 C 
ATOM      7  C   UNL     1      -1.345   0.544  25.145  0.00  0.00    +0.142 C 
ATOM      8  C   UNL     1       0.311   2.404  25.502  0.00  0.00    +0.136 C 
ATOM      9  C   UNL     1       0.437   0.328  23.329  0.00  0.00    +0.193 C 
ATOM     10  C   UNL     1       0.991   2.514  24.143  0.00  0.00    +0.179 C 
ATOM     11  C   UNL     1      -2.090   2.945  25.407  0.00  0.00    +0.247 C 
ENDROOT
BRANCH  11  12
ATOM     12  C   UNL     1      -3.488   2.507  25.268  0.00  0.00    +0.040 A 
ATOM     14  C   UNL     1      -3.773   1.225  24.802  0.00  0.00    +0.058 A 
ATOM     15  C   UNL     1      -4.527   3.377  25.600  0.00  0.00    +0.013 A 
ATOM     16  C   UNL     1      -5.099   0.810  24.670  0.00  0.00    +0.121 A 
ATOM     17  C   UNL     1      -5.852   2.962  25.468  0.00  0.00    +0.004 A 
ATOM     18  C   UNL     1      -6.138   1.678  25.003  0.00  0.00    +0.045 A 
BRANCH  16   4
ATOM      4  O   UNL     1      -5.379  -0.443  24.217  0.00  0.00    -0.495 OA
ATOM     19  C   UNL     1      -4.268  -1.296  23.939  0.00  0.00    +0.277 C 
ENDBRANCH  16   4
ENDBRANCH  11  12
BRANCH   6   2
ATOM      2  O   UNL     1      -0.741  -1.566  24.233  0.00  0.00    -0.376 OA
ATOM     13  C   UNL     1      -1.442  -2.134  25.328  0.00  0.00    +0.194 C 
ENDBRANCH   6   2
TORSDOF 3
ENDMDL
MODEL 10
REMARK VINA RESULT:      -4.6      1.579      5.444
REMARK  Name = 75536883
REMARK  5 active torsions:
REMARK  status: ('A' for Active; 'I' for Inactive)
REMARK    1  A    between atoms: O_2  and  C_6
REMARK    2  A    between atoms: O_2  and  C_13
REMARK    3  A    between atoms: O_4  and  C_16
REMARK    4  A    between atoms: O_4  and  C_19
REMARK    5  A    between atoms: C_11  and  C_12
REMARK                            x       y       z     vdW  Elec       q    Type
REMARK                         _______ _______ _______ _____ _____    ______ ____
ROOT
ATOM      1  O   UNL     1      -5.115   3.724  26.362  0.00  0.00    -0.376 OA
ATOM      3  O   UNL     1      -0.426   3.707  25.217  0.00  0.00    -0.270 OA
ATOM      5  N   UNL     1      -2.590   3.009  24.649  0.00  0.00    -0.293 N 
ATOM      6  C   UNL     1      -4.957   2.056  24.588  0.00  0.00    +0.161 C 
ATOM      7  C   UNL     1      -3.481   1.934  24.199  0.00  0.00    +0.142 C 
ATOM      8  C   UNL     1      -3.179   4.307  24.982  0.00  0.00    +0.136 C 
ATOM      9  C   UNL     1      -5.165   2.330  26.076  0.00  0.00    +0.193 C 
ATOM     10  C   UNL     1      -3.807   4.284  26.370  0.00  0.00    +0.179 C 
ATOM     11  C   UNL     1      -1.204   2.844  24.812  0.00  0.00    +0.247 C 
ENDROOT
BRANCH  11  12
ATOM     12  C   UNL     1      -0.613   1.539  24.476  0.00  0.00    +0.040 A 
ATOM     14  C   UNL     1      -1.141   0.372  25.027  0.00  0.00    +0.058 A 
ATOM     15  C   UNL     1       0.477   1.471  23.609  0.00  0.00    +0.013 A 
ATOM     16  C   UNL     1      -0.580  -0.865  24.708  0.00  0.00    +0.121 A 
ATOM     17  C   UNL     1       1.039   0.234  23.291  0.00  0.00    +0.004 A 
ATOM     18  C   UNL     1       0.510  -0.934  23.840  0.00  0.00    +0.045 A 
BRANCH  16   4
ATOM      4  O   UNL     1      -1.096  -2.005  25.244  0.00  0.00    -0.495 OA
ATOM     19  C   UNL     1      -2.065  -2.707  24.465  0.00  0.00    +0.277 C 
ENDBRANCH  16   4
ENDBRANCH  11  12
BRANCH   6   2
ATOM      2  O   UNL     1      -5.575   0.813  24.254  0.00  0.00    -0.376 OA
ATOM     13  C   UNL     1      -4.671  -0.269  24.411  0.00  0.00    +0.194 C 
ENDBRANCH   6   2
TORSDOF 3
ENDMDL
