MODEL 1
REMARK VINA RESULT:      -5.3      0.000      0.000
REMARK  Name = 75536897
REMARK  5 active torsions:
REMARK  status: ('A' for Active; 'I' for Inactive)
REMARK    1  A    between atoms: O_5  and  C_12
REMARK    2  A    between atoms: O_5  and  C_21
REMARK    3  A    between atoms: C_16  and  C_17
REMARK    4  A    between atoms: C_18  and  C_22
REMARK    5  A    between atoms: C_20  and  C_23
REMARK                            x       y       z     vdW  Elec       q    Type
REMARK                         _______ _______ _______ _____ _____    ______ ____
ROOT
ATOM      4  O   UNL     1      -1.366   5.694  25.356  0.00  0.00    -0.375 OA
ATOM      7  O   UNL     1      -5.360   2.991  25.121  0.00  0.00    -0.270 OA
ATOM      8  N   UNL     1      -3.089   3.098  25.694  0.00  0.00    -0.292 N 
ATOM     11  C   UNL     1      -1.758   2.483  25.654  0.00  0.00    +0.155 C 
ATOM     12  C   UNL     1      -0.560   3.429  25.771  0.00  0.00    +0.218 C 
ATOM     13  C   UNL     1      -3.228   4.419  26.308  0.00  0.00    +0.136 C 
ATOM     14  C   UNL     1      -0.629   4.609  24.803  0.00  0.00    +0.206 C 
ATOM     15  C   UNL     1      -2.780   5.517  25.352  0.00  0.00    +0.179 C 
ATOM     16  C   UNL     1      -4.233   2.499  25.138  0.00  0.00    +0.250 C 
ENDROOT
BRANCH  16  17
ATOM      6  O   UNL     1      -3.532  -0.420  23.035  0.00  0.00    -0.455 OA
ATOM     17  C   UNL     1      -4.094   1.169  24.521  0.00  0.00    +0.087 A 
ATOM     18  C   UNL     1      -3.490   0.910  23.312  0.00  0.00    +0.220 A 
ATOM     19  C   UNL     1      -4.535  -0.080  25.017  0.00  0.00    +0.058 A 
ATOM     20  C   UNL     1      -4.169  -1.015  24.077  0.00  0.00    +0.103 A 
ATOM     23  C   UNL     1      -4.328  -2.474  23.993  0.00  0.00    +0.086 C 
BRANCH  18  22
ATOM      1  F   UNL     1      -1.604   2.239  22.680  0.00  0.00    -0.163 F 
ATOM      2  F   UNL     1      -2.603   1.134  21.103  0.00  0.00    -0.163 F 
ATOM      3  F   UNL     1      -3.561   2.878  21.979  0.00  0.00    -0.163 F 
ATOM     22  C   UNL     1      -2.836   1.758  22.305  0.00  0.00    +0.451 C 
ENDBRANCH  18  22
ENDBRANCH  16  17
BRANCH  12   5
ATOM      5  O   UNL     1       0.605   2.656  25.480  0.00  0.00    -0.468 OA
BRANCH   5  21
ATOM      9  N   UNL     1       1.033   1.243  23.684  0.00  0.00    -0.219 NA
ATOM     10  N   UNL     1      -0.640  -0.688  24.844  0.00  0.00    -0.256 NA
ATOM     21  C   UNL     1       0.403   1.455  24.857  0.00  0.00    +0.234 A 
ATOM     24  C   UNL     1      -0.417   0.507  25.427  0.00  0.00    +0.177 A 
ATOM     25  C   UNL     1       0.809   0.048  23.100  0.00  0.00    +0.134 A 
ATOM     26  C   UNL     1      -0.012  -0.900  23.670  0.00  0.00    +0.130 A 
ENDBRANCH   5  21
ENDBRANCH  12   5
TORSDOF 4
ENDMDL
MODEL 2
REMARK VINA RESULT:      -5.1      2.334      5.924
REMARK  Name = 75536897
REMARK  5 active torsions:
REMARK  status: ('A' for Active; 'I' for Inactive)
REMARK    1  A    between atoms: O_5  and  C_12
REMARK    2  A    between atoms: O_5  and  C_21
REMARK    3  A    between atoms: C_16  and  C_17
REMARK    4  A    between atoms: C_18  and  C_22
REMARK    5  A    between atoms: C_20  and  C_23
REMARK                            x       y       z     vdW  Elec       q    Type
REMARK                         _______ _______ _______ _____ _____    ______ ____
ROOT
ATOM      4  O   UNL     1      -4.397  -2.902  24.000  0.00  0.00    -0.375 OA
ATOM      7  O   UNL     1      -0.032  -1.528  25.542  0.00  0.00    -0.270 OA
ATOM      8  N   UNL     1      -2.313  -1.012  25.381  0.00  0.00    -0.292 N 
ATOM     11  C   UNL     1      -3.355  -0.022  25.084  0.00  0.00    +0.155 C 
ATOM     12  C   UNL     1      -4.713  -0.568  24.635  0.00  0.00    +0.218 C 
ATOM     13  C   UNL     1      -2.724  -2.378  25.709  0.00  0.00    +0.136 C 
ATOM     14  C   UNL     1      -4.608  -1.586  23.501  0.00  0.00    +0.206 C 
ATOM     15  C   UNL     1      -3.071  -3.163  24.451  0.00  0.00    +0.179 C 
ATOM     16  C   UNL     1      -0.939  -0.724  25.331  0.00  0.00    +0.250 C 
ENDROOT
BRANCH  16  17
ATOM      6  O   UNL     1       0.566   2.347  24.012  0.00  0.00    -0.455 OA
ATOM     17  C   UNL     1      -0.526   0.650  25.002  0.00  0.00    +0.087 A 
ATOM     18  C   UNL     1       0.424   0.996  24.069  0.00  0.00    +0.220 A 
ATOM     19  C   UNL     1      -0.997   1.865  25.553  0.00  0.00    +0.058 A 
ATOM     20  C   UNL     1      -0.302   2.868  24.918  0.00  0.00    +0.103 A 
ATOM     23  C   UNL     1      -0.323   4.334  25.028  0.00  0.00    +0.086 C 
BRANCH  18  22
ATOM      1  F   UNL     1       1.772  -0.945  23.698  0.00  0.00    -0.163 F 
ATOM      2  F   UNL     1       0.658  -0.181  22.001  0.00  0.00    -0.163 F 
ATOM      3  F   UNL     1       2.392   0.905  22.737  0.00  0.00    -0.163 F 
ATOM     22  C   UNL     1       1.280   0.219  23.159  0.00  0.00    +0.451 C 
ENDBRANCH  18  22
ENDBRANCH  16  17
BRANCH  12   5
ATOM      5  O   UNL     1      -5.479   0.551  24.187  0.00  0.00    -0.468 OA
BRANCH   5  21
ATOM      9  N   UNL     1      -4.213   2.473  23.853  0.00  0.00    -0.219 NA
ATOM     10  N   UNL     1      -5.177   3.494  26.281  0.00  0.00    -0.256 NA
ATOM     21  C   UNL     1      -5.077   1.783  24.625  0.00  0.00    +0.234 A 
ATOM     24  C   UNL     1      -5.551   2.285  25.817  0.00  0.00    +0.177 A 
ATOM     25  C   UNL     1      -3.839   3.682  24.317  0.00  0.00    +0.134 A 
ATOM     26  C   UNL     1      -4.313   4.184  25.509  0.00  0.00    +0.130 A 
ENDBRANCH   5  21
ENDBRANCH  12   5
TORSDOF 4
ENDMDL
MODEL 3
REMARK VINA RESULT:      -4.3     15.212     17.891
REMARK  Name = 75536897
REMARK  5 active torsions:
REMARK  status: ('A' for Active; 'I' for Inactive)
REMARK    1  A    between atoms: O_5  and  C_12
REMARK    2  A    between atoms: O_5  and  C_21
REMARK    3  A    between atoms: C_16  and  C_17
REMARK    4  A    between atoms: C_18  and  C_22
REMARK    5  A    between atoms: C_20  and  C_23
REMARK                            x       y       z     vdW  Elec       q    Type
REMARK                         _______ _______ _______ _____ _____    ______ ____
ROOT
ATOM      4  O   UNL     1      -4.656  -8.366   9.394  0.00  0.00    -0.375 OA
ATOM      7  O   UNL     1      -1.930 -10.669  12.647  0.00  0.00    -0.270 OA
ATOM      8  N   UNL     1      -4.071 -10.351  11.748  0.00  0.00    -0.292 N 
ATOM     11  C   UNL     1      -5.507 -10.147  11.975  0.00  0.00    +0.155 C 
ATOM     12  C   UNL     1      -6.284  -9.436  10.864  0.00  0.00    +0.218 C 
ATOM     13  C   UNL     1      -3.575 -10.334  10.371  0.00  0.00    +0.136 C 
ATOM     14  C   UNL     1      -5.627  -8.134  10.409  0.00  0.00    +0.206 C 
ATOM     15  C   UNL     1      -3.424  -8.907   9.861  0.00  0.00    +0.179 C 
ATOM     16  C   UNL     1      -3.143 -10.526  12.788  0.00  0.00    +0.250 C 
ENDROOT
BRANCH  16  17
ATOM      6  O   UNL     1      -3.645 -10.446  16.419  0.00  0.00    -0.455 OA
ATOM     17  C   UNL     1      -3.643 -10.544  14.173  0.00  0.00    +0.087 A 
ATOM     18  C   UNL     1      -2.874 -10.372  15.301  0.00  0.00    +0.220 A 
ATOM     19  C   UNL     1      -4.969 -10.737  14.626  0.00  0.00    +0.058 A 
ATOM     20  C   UNL     1      -4.918 -10.668  15.999  0.00  0.00    +0.103 A 
ATOM     23  C   UNL     1      -5.938 -10.781  17.051  0.00  0.00    +0.086 C 
BRANCH  18  22
ATOM      1  F   UNL     1      -0.982 -10.524  16.757  0.00  0.00    -0.163 F 
ATOM      2  F   UNL     1      -0.614 -10.781  14.635  0.00  0.00    -0.163 F 
ATOM      3  F   UNL     1      -1.086  -8.810  15.422  0.00  0.00    -0.163 F 
ATOM     22  C   UNL     1      -1.440 -10.133  15.522  0.00  0.00    +0.451 C 
ENDBRANCH  18  22
ENDBRANCH  16  17
BRANCH  12   5
ATOM      5  O   UNL     1      -7.580  -9.145  11.389  0.00  0.00    -0.468 OA
BRANCH   5  21
ATOM      9  N   UNL     1      -9.359 -10.524  10.805  0.00  0.00    -0.219 NA
ATOM     10  N   UNL     1     -10.001  -8.761   8.719  0.00  0.00    -0.256 NA
ATOM     21  C   UNL     1      -8.644  -9.405  10.570  0.00  0.00    +0.234 A 
ATOM     24  C   UNL     1      -8.960  -8.539   9.546  0.00  0.00    +0.177 A 
ATOM     25  C   UNL     1     -10.399 -10.746   9.978  0.00  0.00    +0.134 A 
ATOM     26  C   UNL     1     -10.715  -9.881   8.953  0.00  0.00    +0.130 A 
ENDBRANCH   5  21
ENDBRANCH  12   5
TORSDOF 4
ENDMDL
MODEL 4
REMARK VINA RESULT:      -3.4      1.818      4.325
REMARK  Name = 75536897
REMARK  5 active torsions:
REMARK  status: ('A' for Active; 'I' for Inactive)
REMARK    1  A    between atoms: O_5  and  C_12
REMARK    2  A    between atoms: O_5  and  C_21
REMARK    3  A    between atoms: C_16  and  C_17
REMARK    4  A    between atoms: C_18  and  C_22
REMARK    5  A    between atoms: C_20  and  C_23
REMARK                            x       y       z     vdW  Elec       q    Type
REMARK                         _______ _______ _______ _____ _____    ______ ____
ROOT
ATOM      4  O   UNL     1       1.769  -0.157  23.253  0.00  0.00    -0.375 OA
ATOM      7  O   UNL     1      -0.237   4.143  24.145  0.00  0.00    -0.270 OA
ATOM      8  N   UNL     1      -0.105   1.876  24.727  0.00  0.00    -0.292 N 
ATOM     11  C   UNL     1      -0.798   0.632  25.080  0.00  0.00    +0.155 C 
ATOM     12  C   UNL     1      -0.057  -0.675  24.785  0.00  0.00    +0.218 C 
ATOM     13  C   UNL     1       1.352   1.847  24.595  0.00  0.00    +0.136 C 
ATOM     14  C   UNL     1       0.481  -0.753  23.357  0.00  0.00    +0.206 C 
ATOM     15  C   UNL     1       1.769   1.267  23.250  0.00  0.00    +0.179 C 
ATOM     16  C   UNL     1      -0.774   3.086  24.473  0.00  0.00    +0.250 C 
ENDROOT
BRANCH  16  17
ATOM      6  O   UNL     1      -4.412   2.837  24.100  0.00  0.00    -0.455 OA
ATOM     17  C   UNL     1      -2.239   3.115  24.607  0.00  0.00    +0.087 A 
ATOM     18  C   UNL     1      -3.136   2.666  23.664  0.00  0.00    +0.220 A 
ATOM     19  C   UNL     1      -3.014   3.592  25.690  0.00  0.00    +0.058 A 
ATOM     20  C   UNL     1      -4.328   3.401  25.334  0.00  0.00    +0.103 A 
ATOM     23  C   UNL     1      -5.605   3.678  26.009  0.00  0.00    +0.086 C 
BRANCH  18  22
ATOM      1  F   UNL     1      -3.540   2.794  21.310  0.00  0.00    -0.163 F 
ATOM      2  F   UNL     1      -1.683   1.868  21.940  0.00  0.00    -0.163 F 
ATOM      3  F   UNL     1      -3.567   0.822  22.226  0.00  0.00    -0.163 F 
ATOM     22  C   UNL     1      -2.986   2.062  22.332  0.00  0.00    +0.451 C 
ENDBRANCH  18  22
ENDBRANCH  16  17
BRANCH  12   5
ATOM      5  O   UNL     1      -0.994  -1.734  24.988  0.00  0.00    -0.468 OA
BRANCH   5  21
ATOM      9  N   UNL     1      -3.009  -2.085  23.884  0.00  0.00    -0.219 NA
ATOM     10  N   UNL     1      -4.200  -0.124  25.499  0.00  0.00    -0.256 NA
ATOM     21  C   UNL     1      -2.315  -1.421  24.831  0.00  0.00    +0.234 A 
ATOM     24  C   UNL     1      -2.901  -0.459  25.624  0.00  0.00    +0.177 A 
ATOM     25  C   UNL     1      -4.309  -1.749  23.758  0.00  0.00    +0.134 A 
ATOM     26  C   UNL     1      -4.894  -0.786  24.551  0.00  0.00    +0.130 A 
ENDBRANCH   5  21
ENDBRANCH  12   5
TORSDOF 4
ENDMDL
MODEL 5
REMARK VINA RESULT:      -3.4      1.842      5.611
REMARK  Name = 75536897
REMARK  5 active torsions:
REMARK  status: ('A' for Active; 'I' for Inactive)
REMARK    1  A    between atoms: O_5  and  C_12
REMARK    2  A    between atoms: O_5  and  C_21
REMARK    3  A    between atoms: C_16  and  C_17
REMARK    4  A    between atoms: C_18  and  C_22
REMARK    5  A    between atoms: C_20  and  C_23
REMARK                            x       y       z     vdW  Elec       q    Type
REMARK                         _______ _______ _______ _____ _____    ______ ____
ROOT
ATOM      4  O   UNL     1      -3.056  -2.919  24.222  0.00  0.00    -0.375 OA
ATOM      7  O   UNL     1       0.621   0.125  23.493  0.00  0.00    -0.270 OA
ATOM      8  N   UNL     1      -1.242  -0.431  24.804  0.00  0.00    -0.292 N 
ATOM     11  C   UNL     1      -2.456   0.006  25.503  0.00  0.00    +0.155 C 
ATOM     12  C   UNL     1      -3.546  -1.049  25.711  0.00  0.00    +0.218 C 
ATOM     13  C   UNL     1      -0.923  -1.859  24.789  0.00  0.00    +0.136 C 
ATOM     14  C   UNL     1      -3.909  -1.799  24.430  0.00  0.00    +0.206 C 
ATOM     15  C   UNL     1      -1.753  -2.595  23.745  0.00  0.00    +0.179 C 
ATOM     16  C   UNL     1      -0.388   0.450  24.117  0.00  0.00    +0.250 C 
ENDROOT
BRANCH  16  17
ATOM      6  O   UNL     1      -1.729   3.828  23.643  0.00  0.00    -0.455 OA
ATOM     17  C   UNL     1      -0.709   1.886  24.133  0.00  0.00    +0.087 A 
ATOM     18  C   UNL     1      -1.699   2.492  23.395  0.00  0.00    +0.220 A 
ATOM     19  C   UNL     1      -0.090   2.916  24.882  0.00  0.00    +0.058 A 
ATOM     20  C   UNL     1      -0.747   4.078  24.548  0.00  0.00    +0.103 A 
ATOM     23  C   UNL     1      -0.595   5.477  24.971  0.00  0.00    +0.086 C 
BRANCH  18  22
ATOM      1  F   UNL     1      -2.174   1.674  21.198  0.00  0.00    -0.163 F 
ATOM      2  F   UNL     1      -3.344   0.851  22.829  0.00  0.00    -0.163 F 
ATOM      3  F   UNL     1      -3.694   2.892  22.166  0.00  0.00    -0.163 F 
ATOM     22  C   UNL     1      -2.691   1.993  22.431  0.00  0.00    +0.451 C 
ENDBRANCH  18  22
ENDBRANCH  16  17
BRANCH  12   5
ATOM      5  O   UNL     1      -4.701  -0.359  26.191  0.00  0.00    -0.468 OA
BRANCH   5  21
ATOM      9  N   UNL     1      -5.947   1.203  25.003  0.00  0.00    -0.219 NA
ATOM     10  N   UNL     1      -4.080   3.178  25.701  0.00  0.00    -0.256 NA
ATOM     21  C   UNL     1      -4.866   0.929  25.761  0.00  0.00    +0.234 A 
ATOM     24  C   UNL     1      -3.951   1.899  26.105  0.00  0.00    +0.177 A 
ATOM     25  C   UNL     1      -6.076   2.483  24.599  0.00  0.00    +0.134 A 
ATOM     26  C   UNL     1      -5.160   3.452  24.942  0.00  0.00    +0.130 A 
ENDBRANCH   5  21
ENDBRANCH  12   5
TORSDOF 4
ENDMDL
MODEL 6
REMARK VINA RESULT:      -3.3      2.731      4.971
REMARK  Name = 75536897
REMARK  5 active torsions:
REMARK  status: ('A' for Active; 'I' for Inactive)
REMARK    1  A    between atoms: O_5  and  C_12
REMARK    2  A    between atoms: O_5  and  C_21
REMARK    3  A    between atoms: C_16  and  C_17
REMARK    4  A    between atoms: C_18  and  C_22
REMARK    5  A    between atoms: C_20  and  C_23
REMARK                            x       y       z     vdW  Elec       q    Type
REMARK                         _______ _______ _______ _____ _____    ______ ____
ROOT
ATOM      4  O   UNL     1      -0.013  -2.240  24.645  0.00  0.00    -0.375 OA
ATOM      7  O   UNL     1      -4.015   0.249  25.692  0.00  0.00    -0.270 OA
ATOM      8  N   UNL     1      -2.165   0.007  24.273  0.00  0.00    -0.292 N 
ATOM     11  C   UNL     1      -1.056   0.633  23.544  0.00  0.00    +0.155 C 
ATOM     12  C   UNL     1       0.151  -0.256  23.234  0.00  0.00    +0.218 C 
ATOM     13  C   UNL     1      -2.293  -1.451  24.228  0.00  0.00    +0.136 C 
ATOM     14  C   UNL     1       0.675  -1.008  24.457  0.00  0.00    +0.206 C 
ATOM     15  C   UNL     1      -1.321  -2.115  25.195  0.00  0.00    +0.179 C 
ATOM     16  C   UNL     1      -3.090   0.734  25.041  0.00  0.00    +0.250 C 
ENDROOT
BRANCH  16  17
ATOM      6  O   UNL     1      -3.540   4.366  25.246  0.00  0.00    -0.455 OA
ATOM     17  C   UNL     1      -2.962   2.200  25.085  0.00  0.00    +0.087 A 
ATOM     18  C   UNL     1      -4.001   3.087  25.252  0.00  0.00    +0.220 A 
ATOM     19  C   UNL     1      -1.790   2.983  24.969  0.00  0.00    +0.058 A 
ATOM     20  C   UNL     1      -2.195   4.294  25.073  0.00  0.00    +0.103 A 
ATOM     23  C   UNL     1      -1.475   5.575  25.037  0.00  0.00    +0.086 C 
BRANCH  18  22
ATOM      1  F   UNL     1      -6.062   2.171  24.455  0.00  0.00    -0.163 F 
ATOM      2  F   UNL     1      -5.815   2.315  26.605  0.00  0.00    -0.163 F 
ATOM      3  F   UNL     1      -6.137   4.115  25.429  0.00  0.00    -0.163 F 
ATOM     22  C   UNL     1      -5.452   2.925  25.429  0.00  0.00    +0.451 C 
ENDBRANCH  18  22
ENDBRANCH  16  17
BRANCH  12   5
ATOM      5  O   UNL     1       1.180   0.602  22.740  0.00  0.00    -0.468 OA
BRANCH   5  21
ATOM      9  N   UNL     1       2.712  -1.051  23.310  0.00  0.00    -0.219 NA
ATOM     10  N   UNL     1       4.747   0.880  23.317  0.00  0.00    -0.256 NA
ATOM     21  C   UNL     1       2.467   0.246  23.032  0.00  0.00    +0.234 A 
ATOM     24  C   UNL     1       3.467   1.193  23.035  0.00  0.00    +0.177 A 
ATOM     25  C   UNL     1       3.992  -1.364  23.593  0.00  0.00    +0.134 A 
ATOM     26  C   UNL     1       4.992  -0.416  23.596  0.00  0.00    +0.130 A 
ENDBRANCH   5  21
ENDBRANCH  12   5
TORSDOF 4
ENDMDL
MODEL 7
REMARK VINA RESULT:      -3.1      2.562      4.760
REMARK  Name = 75536897
REMARK  5 active torsions:
REMARK  status: ('A' for Active; 'I' for Inactive)
REMARK    1  A    between atoms: O_5  and  C_12
REMARK    2  A    between atoms: O_5  and  C_21
REMARK    3  A    between atoms: C_16  and  C_17
REMARK    4  A    between atoms: C_18  and  C_22
REMARK    5  A    between atoms: C_20  and  C_23
REMARK                            x       y       z     vdW  Elec       q    Type
REMARK                         _______ _______ _______ _____ _____    ______ ____
ROOT
ATOM      4  O   UNL     1       1.340  -0.550  23.152  0.00  0.00    -0.375 OA
ATOM      7  O   UNL     1      -0.866   3.735  23.451  0.00  0.00    -0.270 OA
ATOM      8  N   UNL     1      -0.461   1.657  24.459  0.00  0.00    -0.292 N 
ATOM     11  C   UNL     1      -0.988   0.486  25.168  0.00  0.00    +0.155 C 
ATOM     12  C   UNL     1      -0.192  -0.815  25.032  0.00  0.00    +0.218 C 
ATOM     13  C   UNL     1       0.959   1.675  24.102  0.00  0.00    +0.136 C 
ATOM     14  C   UNL     1       0.135  -1.172  23.583  0.00  0.00    +0.206 C 
ATOM     15  C   UNL     1       1.220   0.839  22.856  0.00  0.00    +0.179 C 
ATOM     16  C   UNL     1      -1.258   2.748  24.073  0.00  0.00    +0.250 C 
ENDROOT
BRANCH  16  17
ATOM      6  O   UNL     1      -4.602   3.235  25.495  0.00  0.00    -0.455 OA
ATOM     17  C   UNL     1      -2.686   2.731  24.433  0.00  0.00    +0.087 A 
ATOM     18  C   UNL     1      -3.268   3.490  25.421  0.00  0.00    +0.220 A 
ATOM     19  C   UNL     1      -3.726   1.960  23.863  0.00  0.00    +0.058 A 
ATOM     20  C   UNL     1      -4.872   2.302  24.544  0.00  0.00    +0.103 A 
ATOM     23  C   UNL     1      -6.272   1.870  24.437  0.00  0.00    +0.086 C 
BRANCH  18  22
ATOM      1  F   UNL     1      -1.865   5.385  25.829  0.00  0.00    -0.163 F 
ATOM      2  F   UNL     1      -3.715   5.268  26.956  0.00  0.00    -0.163 F 
ATOM      3  F   UNL     1      -2.072   3.926  27.429  0.00  0.00    -0.163 F 
ATOM     22  C   UNL     1      -2.749   4.484  26.373  0.00  0.00    +0.451 C 
ENDBRANCH  18  22
ENDBRANCH  16  17
BRANCH  12   5
ATOM      5  O   UNL     1      -0.996  -1.851  25.598  0.00  0.00    -0.468 OA
BRANCH   5  21
ATOM      9  N   UNL     1      -2.411  -3.148  24.286  0.00  0.00    -0.219 NA
ATOM     10  N   UNL     1      -4.465  -1.286  24.713  0.00  0.00    -0.256 NA
ATOM     21  C   UNL     1      -2.228  -2.044  25.038  0.00  0.00    +0.234 A 
ATOM     24  C   UNL     1      -3.237  -1.130  25.248  0.00  0.00    +0.177 A 
ATOM     25  C   UNL     1      -3.638  -3.304  23.751  0.00  0.00    +0.134 A 
ATOM     26  C   UNL     1      -4.647  -2.389  23.960  0.00  0.00    +0.130 A 
ENDBRANCH   5  21
ENDBRANCH  12   5
TORSDOF 4
ENDMDL
MODEL 8
REMARK VINA RESULT:      -2.7      2.806      4.337
REMARK  Name = 75536897
REMARK  5 active torsions:
REMARK  status: ('A' for Active; 'I' for Inactive)
REMARK    1  A    between atoms: O_5  and  C_12
REMARK    2  A    between atoms: O_5  and  C_21
REMARK    3  A    between atoms: C_16  and  C_17
REMARK    4  A    between atoms: C_18  and  C_22
REMARK    5  A    between atoms: C_20  and  C_23
REMARK                            x       y       z     vdW  Elec       q    Type
REMARK                         _______ _______ _______ _____ _____    ______ ____
ROOT
ATOM      4  O   UNL     1      -6.313   3.530  25.200  0.00  0.00    -0.375 OA
ATOM      7  O   UNL     1      -4.865  -0.918  24.003  0.00  0.00    -0.270 OA
ATOM      8  N   UNL     1      -4.477   0.991  25.305  0.00  0.00    -0.292 N 
ATOM     11  C   UNL     1      -3.526   1.981  25.825  0.00  0.00    +0.155 C 
ATOM     12  C   UNL     1      -4.097   3.349  26.206  0.00  0.00    +0.218 C 
ATOM     13  C   UNL     1      -5.896   1.155  25.627  0.00  0.00    +0.136 C 
ATOM     14  C   UNL     1      -4.962   3.967  25.109  0.00  0.00    +0.206 C 
ATOM     15  C   UNL     1      -6.543   2.204  24.732  0.00  0.00    +0.179 C 
ATOM     16  C   UNL     1      -4.099  -0.085  24.485  0.00  0.00    +0.250 C 
ENDROOT
BRANCH  16  17
ATOM      6  O   UNL     1      -0.655  -1.215  23.944  0.00  0.00    -0.455 OA
ATOM     17  C   UNL     1      -2.672  -0.249  24.163  0.00  0.00    +0.087 A 
ATOM     18  C   UNL     1      -1.942  -1.401  24.341  0.00  0.00    +0.220 A 
ATOM     19  C   UNL     1      -1.778   0.705  23.622  0.00  0.00    +0.058 A 
ATOM     20  C   UNL     1      -0.564   0.068  23.508  0.00  0.00    +0.103 A 
ATOM     23  C   UNL     1       0.755   0.496  23.021  0.00  0.00    +0.086 C 
BRANCH  18  22
ATOM      1  F   UNL     1      -3.210  -2.746  25.860  0.00  0.00    -0.163 F 
ATOM      2  F   UNL     1      -2.775  -3.601  23.914  0.00  0.00    -0.163 F 
ATOM      3  F   UNL     1      -1.190  -3.399  25.388  0.00  0.00    -0.163 F 
ATOM     22  C   UNL     1      -2.270  -2.738  24.857  0.00  0.00    +0.451 C 
ENDBRANCH  18  22
ENDBRANCH  16  17
BRANCH  12   5
ATOM      5  O   UNL     1      -2.982   4.205  26.459  0.00  0.00    -0.468 OA
BRANCH   5  21
ATOM      9  N   UNL     1      -1.022   2.959  26.573  0.00  0.00    -0.219 NA
ATOM     10  N   UNL     1      -0.238   4.023  24.098  0.00  0.00    -0.256 NA
ATOM     21  C   UNL     1      -1.790   3.839  25.898  0.00  0.00    +0.234 A 
ATOM     24  C   UNL     1      -1.405   4.360  24.682  0.00  0.00    +0.177 A 
ATOM     25  C   UNL     1       0.144   2.622  25.988  0.00  0.00    +0.134 A 
ATOM     26  C   UNL     1       0.530   3.144  24.773  0.00  0.00    +0.130 A 
ENDBRANCH   5  21
ENDBRANCH  12   5
TORSDOF 4
ENDMDL
MODEL 9
REMARK VINA RESULT:      -2.5     15.180     17.297
REMARK  Name = 75536897
REMARK  5 active torsions:
REMARK  status: ('A' for Active; 'I' for Inactive)
REMARK    1  A    between atoms: O_5  and  C_12
REMARK    2  A    between atoms: O_5  and  C_21
REMARK    3  A    between atoms: C_16  and  C_17
REMARK    4  A    between atoms: C_18  and  C_22
REMARK    5  A    between atoms: C_20  and  C_23
REMARK                            x       y       z     vdW  Elec       q    Type
REMARK                         _______ _______ _______ _____ _____    ______ ____
ROOT
ATOM      4  O   UNL     1      -6.825  -9.217  10.574  0.00  0.00    -0.375 OA
ATOM      7  O   UNL     1      -2.105 -10.234  10.542  0.00  0.00    -0.270 OA
ATOM      8  N   UNL     1      -4.172 -10.526  11.608  0.00  0.00    -0.292 N 
ATOM     11  C   UNL     1      -4.943 -10.561  12.856  0.00  0.00    +0.155 C 
ATOM     12  C   UNL     1      -6.440 -10.256  12.748  0.00  0.00    +0.218 C 
ATOM     13  C   UNL     1      -4.888 -10.696  10.343  0.00  0.00    +0.136 C 
ATOM     14  C   UNL     1      -6.738  -8.973  11.974  0.00  0.00    +0.206 C 
ATOM     15  C   UNL     1      -5.572  -9.402   9.922  0.00  0.00    +0.179 C 
ATOM     16  C   UNL     1      -2.786 -10.302  11.565  0.00  0.00    +0.250 C 
ENDROOT
BRANCH  16  17
ATOM      6  O   UNL     1      -0.572  -9.367  14.333  0.00  0.00    -0.455 OA
ATOM     17  C   UNL     1      -2.066 -10.131  12.838  0.00  0.00    +0.087 A 
ATOM     18  C   UNL     1      -1.005  -9.281  13.047  0.00  0.00    +0.220 A 
ATOM     19  C   UNL     1      -2.300 -10.781  14.073  0.00  0.00    +0.058 A 
ATOM     20  C   UNL     1      -1.365 -10.282  14.950  0.00  0.00    +0.103 A 
ATOM     23  C   UNL     1      -1.078 -10.538  16.368  0.00  0.00    +0.086 C 
BRANCH  18  22
ATOM      1  F   UNL     1       0.686  -7.603  12.831  0.00  0.00    -0.163 F 
ATOM      2  F   UNL     1       0.389  -8.924  11.137  0.00  0.00    -0.163 F 
ATOM      3  F   UNL     1      -1.092  -7.400  11.596  0.00  0.00    -0.163 F 
ATOM     22  C   UNL     1      -0.279  -8.337  12.185  0.00  0.00    +0.451 C 
ENDBRANCH  18  22
ENDBRANCH  16  17
BRANCH  12   5
ATOM      5  O   UNL     1      -6.930 -10.120  14.082  0.00  0.00    -0.468 OA
BRANCH   5  21
ATOM      9  N   UNL     1      -9.084  -9.948  13.222  0.00  0.00    -0.219 NA
ATOM     10  N   UNL     1      -9.853  -8.526  15.515  0.00  0.00    -0.256 NA
ATOM     21  C   UNL     1      -8.216  -9.676  14.219  0.00  0.00    +0.234 A 
ATOM     24  C   UNL     1      -8.595  -8.979  15.345  0.00  0.00    +0.177 A 
ATOM     25  C   UNL     1     -10.342  -9.496  13.393  0.00  0.00    +0.134 A 
ATOM     26  C   UNL     1     -10.720  -8.797  14.518  0.00  0.00    +0.130 A 
ENDBRANCH   5  21
ENDBRANCH  12   5
TORSDOF 4
ENDMDL
MODEL 10
REMARK VINA RESULT:      -2.1      1.845      3.814
REMARK  Name = 75536897
REMARK  5 active torsions:
REMARK  status: ('A' for Active; 'I' for Inactive)
REMARK    1  A    between atoms: O_5  and  C_12
REMARK    2  A    between atoms: O_5  and  C_21
REMARK    3  A    between atoms: C_16  and  C_17
REMARK    4  A    between atoms: C_18  and  C_22
REMARK    5  A    between atoms: C_20  and  C_23
REMARK                            x       y       z     vdW  Elec       q    Type
REMARK                         _______ _______ _______ _____ _____    ______ ____
ROOT
ATOM      4  O   UNL     1      -6.546   3.304  25.410  0.00  0.00    -0.375 OA
ATOM      7  O   UNL     1      -4.598  -0.892  24.022  0.00  0.00    -0.270 OA
ATOM      8  N   UNL     1      -4.397   1.022  25.361  0.00  0.00    -0.292 N 
ATOM     11  C   UNL     1      -3.557   2.114  25.867  0.00  0.00    +0.155 C 
ATOM     12  C   UNL     1      -4.280   3.388  26.312  0.00  0.00    +0.218 C 
ATOM     13  C   UNL     1      -5.809   0.993  25.749  0.00  0.00    +0.136 C 
ATOM     14  C   UNL     1      -5.267   3.914  25.271  0.00  0.00    +0.206 C 
ATOM     15  C   UNL     1      -6.626   1.970  24.914  0.00  0.00    +0.179 C 
ATOM     16  C   UNL     1      -3.924   0.023  24.494  0.00  0.00    +0.250 C 
ENDROOT
BRANCH  16  17
ATOM      6  O   UNL     1      -0.609   0.686  23.078  0.00  0.00    -0.455 OA
ATOM     17  C   UNL     1      -2.504   0.051  24.105  0.00  0.00    +0.087 A 
ATOM     18  C   UNL     1      -1.939   0.932  23.212  0.00  0.00    +0.220 A 
ATOM     19  C   UNL     1      -1.455  -0.789  24.548  0.00  0.00    +0.058 A 
ATOM     20  C   UNL     1      -0.323  -0.362  23.894  0.00  0.00    +0.103 A 
ATOM     23  C   UNL     1       1.079  -0.805  23.914  0.00  0.00    +0.086 C 
BRANCH  18  22
ATOM      1  F   UNL     1      -3.766   2.395  22.716  0.00  0.00    -0.163 F 
ATOM      2  F   UNL     1      -1.767   3.214  22.520  0.00  0.00    -0.163 F 
ATOM      3  F   UNL     1      -2.497   1.777  21.061  0.00  0.00    -0.163 F 
ATOM     22  C   UNL     1      -2.474   2.041  22.408  0.00  0.00    +0.451 C 
ENDBRANCH  18  22
ENDBRANCH  16  17
BRANCH  12   5
ATOM      5  O   UNL     1      -3.273   4.375  26.540  0.00  0.00    -0.468 OA
BRANCH   5  21
ATOM      9  N   UNL     1      -1.401   3.017  26.299  0.00  0.00    -0.219 NA
ATOM     10  N   UNL     1      -0.329   4.869  24.486  0.00  0.00    -0.256 NA
ATOM     21  C   UNL     1      -2.054   4.149  25.964  0.00  0.00    +0.234 A 
ATOM     24  C   UNL     1      -1.527   5.057  25.073  0.00  0.00    +0.177 A 
ATOM     25  C   UNL     1      -0.203   2.829  25.712  0.00  0.00    +0.134 A 
ATOM     26  C   UNL     1       0.324   3.738  24.821  0.00  0.00    +0.130 A 
ENDBRANCH   5  21
ENDBRANCH  12   5
TORSDOF 4
ENDMDL
