MODEL 1
REMARK VINA RESULT:      -2.6      0.000      0.000
REMARK  Name = 75536255
REMARK  7 active torsions:
REMARK  status: ('A' for Active; 'I' for Inactive)
REMARK    1  A    between atoms: O_3  and  C_9
REMARK    2  A    between atoms: N_5  and  C_7
REMARK    3  A    between atoms: N_5  and  C_12
REMARK    4  A    between atoms: C_8  and  C_12
REMARK    5  A    between atoms: C_13  and  C_19
REMARK    6  A    between atoms: C_19  and  C_20
REMARK    7  A    between atoms: C_22  and  C_23
REMARK                            x       y       z     vdW  Elec       q    Type
REMARK                         _______ _______ _______ _____ _____    ______ ____
ROOT
ATOM      2  O   UNL     1      -4.274   2.309  23.769  0.00  0.00    -0.369 OA
ATOM      8  C   UNL     1      -5.008   2.998  24.790  0.00  0.00    +0.161 C 
ATOM      9  C   UNL     1      -5.980   2.056  25.512  0.00  0.00    +0.145 C 
ATOM     13  C   UNL     1      -3.556   1.154  24.211  0.00  0.00    +0.125 C 
ATOM     14  C   UNL     1      -5.307   0.765  25.970  0.00  0.00    +0.036 C 
ATOM     15  C   UNL     1      -4.509   0.133  24.833  0.00  0.00    +0.034 C 
ENDROOT
BRANCH   9   3
ATOM      3  O   UNL     1      -7.033   1.702  24.611  0.00  0.00    -0.389 OA
ATOM     30  H   UNL     1      -6.788   0.861  24.188  0.00  0.00    +0.210 HD
ENDBRANCH   9   3
BRANCH   8  12
ATOM     12  C   UNL     1      -4.067   3.730  25.745  0.00  0.00    +0.115 C 
BRANCH  12   5
ATOM      5  N   UNL     1      -3.156   4.596  25.013  0.00  0.00    -0.311 NA
ATOM     29  H   UNL     1      -3.358   5.566  25.256  0.00  0.00    +0.122 HD
BRANCH   5   7
ATOM      7  C   UNL     1      -1.765   4.285  25.336  0.00  0.00    +0.054 C 
ATOM     10  C   UNL     1      -1.712   3.204  26.421  0.00  0.00    +0.019 C 
ATOM     11  C   UNL     1      -1.024   3.835  24.071  0.00  0.00    +0.019 C 
ATOM     16  C   UNL     1      -0.272   2.797  26.731  0.00  0.00    +0.002 C 
ATOM     17  C   UNL     1       0.415   3.429  24.385  0.00  0.00    +0.002 C 
ATOM     18  C   UNL     1       0.473   2.360  25.472  0.00  0.00    +0.000 C 
ENDBRANCH   5   7
ENDBRANCH  12   5
ENDBRANCH   8  12
BRANCH  13  19
ATOM     19  C   UNL     1      -2.846   0.564  22.999  0.00  0.00    +0.090 C 
BRANCH  19  20
ATOM      4  O   UNL     1       0.177  -0.895  24.311  0.00  0.00    -0.354 OA
ATOM      6  N   UNL     1      -1.205  -0.760  24.269  0.00  0.00    -0.083 NA
ATOM     20  C   UNL     1      -1.434   0.157  23.324  0.00  0.00    +0.087 A 
ATOM     21  C   UNL     1      -0.246   0.631  22.741  0.00  0.00    +0.076 A 
ATOM     22  C   UNL     1       0.737  -0.062  23.397  0.00  0.00    +0.167 A 
BRANCH  22  23
ATOM      1  F   UNL     1       6.292  -0.180  23.113  0.00  0.00    -0.205 F 
ATOM     23  C   UNL     1       2.169  -0.092  23.323  0.00  0.00    +0.020 A 
ATOM     24  C   UNL     1       2.864  -1.226  23.743  0.00  0.00    +0.014 A 
ATOM     25  C   UNL     1       2.866   1.011  22.832  0.00  0.00    +0.014 A 
ATOM     26  C   UNL     1       4.257  -1.256  23.672  0.00  0.00    +0.039 A 
ATOM     27  C   UNL     1       4.258   0.982  22.761  0.00  0.00    +0.039 A 
ATOM     28  C   UNL     1       4.955  -0.152  23.181  0.00  0.00    +0.123 A 
ENDBRANCH  22  23
ENDBRANCH  19  20
ENDBRANCH  13  19
TORSDOF 7
ENDMDL
MODEL 2
REMARK VINA RESULT:      -2.3      1.958      3.771
REMARK  Name = 75536255
REMARK  7 active torsions:
REMARK  status: ('A' for Active; 'I' for Inactive)
REMARK    1  A    between atoms: O_3  and  C_9
REMARK    2  A    between atoms: N_5  and  C_7
REMARK    3  A    between atoms: N_5  and  C_12
REMARK    4  A    between atoms: C_8  and  C_12
REMARK    5  A    between atoms: C_13  and  C_19
REMARK    6  A    between atoms: C_19  and  C_20
REMARK    7  A    between atoms: C_22  and  C_23
REMARK                            x       y       z     vdW  Elec       q    Type
REMARK                         _______ _______ _______ _____ _____    ______ ____
ROOT
ATOM      2  O   UNL     1      -3.828   2.280  25.812  0.00  0.00    -0.369 OA
ATOM      8  C   UNL     1      -5.004   1.555  25.424  0.00  0.00    +0.161 C 
ATOM      9  C   UNL     1      -6.279   2.317  25.805  0.00  0.00    +0.145 C 
ATOM     13  C   UNL     1      -3.740   3.613  25.303  0.00  0.00    +0.125 C 
ATOM     14  C   UNL     1      -6.246   3.772  25.348  0.00  0.00    +0.036 C 
ATOM     15  C   UNL     1      -4.939   4.443  25.760  0.00  0.00    +0.034 C 
ENDROOT
BRANCH   9   3
ATOM      3  O   UNL     1      -6.413   2.309  27.228  0.00  0.00    -0.389 OA
ATOM     30  H   UNL     1      -7.319   2.022  27.437  0.00  0.00    +0.210 HD
ENDBRANCH   9   3
BRANCH   8  12
ATOM     12  C   UNL     1      -4.953   1.176  23.945  0.00  0.00    +0.115 C 
BRANCH  12   5
ATOM      5  N   UNL     1      -3.578   1.005  23.500  0.00  0.00    -0.311 NA
ATOM     29  H   UNL     1      -2.973   1.596  24.070  0.00  0.00    +0.122 HD
BRANCH   5   7
ATOM      7  C   UNL     1      -3.160  -0.391  23.618  0.00  0.00    +0.054 C 
ATOM     10  C   UNL     1      -2.112  -0.528  24.729  0.00  0.00    +0.019 C 
ATOM     11  C   UNL     1      -4.378  -1.278  23.895  0.00  0.00    +0.019 C 
ATOM     16  C   UNL     1      -1.707  -1.986  24.934  0.00  0.00    +0.002 C 
ATOM     17  C   UNL     1      -3.969  -2.736  24.100  0.00  0.00    +0.002 C 
ATOM     18  C   UNL     1      -2.919  -2.876  25.197  0.00  0.00    +0.000 C 
ENDBRANCH   5   7
ENDBRANCH  12   5
ENDBRANCH   8  12
BRANCH  13  19
ATOM     19  C   UNL     1      -2.438   4.214  25.816  0.00  0.00    +0.090 C 
BRANCH  19  20
ATOM      4  O   UNL     1       0.480   2.098  25.831  0.00  0.00    -0.354 OA
ATOM      6  N   UNL     1      -0.505   2.838  26.474  0.00  0.00    -0.083 NA
ATOM     20  C   UNL     1      -1.255   3.343  25.489  0.00  0.00    +0.087 A 
ATOM     21  C   UNL     1      -0.795   2.958  24.217  0.00  0.00    +0.076 A 
ATOM     22  C   UNL     1       0.297   2.177  24.488  0.00  0.00    +0.167 A 
BRANCH  22  23
ATOM      1  F   UNL     1       3.969  -0.624  21.387  0.00  0.00    -0.205 F 
ATOM     23  C   UNL     1       1.243   1.456  23.688  0.00  0.00    +0.020 A 
ATOM     24  C   UNL     1       0.853   0.291  23.027  0.00  0.00    +0.014 A 
ATOM     25  C   UNL     1       2.554   1.918  23.572  0.00  0.00    +0.014 A 
ATOM     26  C   UNL     1       1.773  -0.412  22.249  0.00  0.00    +0.039 A 
ATOM     27  C   UNL     1       3.475   1.215  22.795  0.00  0.00    +0.039 A 
ATOM     28  C   UNL     1       3.085   0.051  22.133  0.00  0.00    +0.123 A 
ENDBRANCH  22  23
ENDBRANCH  19  20
ENDBRANCH  13  19
TORSDOF 7
ENDMDL
MODEL 3
REMARK VINA RESULT:      -1.6      1.763      2.684
REMARK  Name = 75536255
REMARK  7 active torsions:
REMARK  status: ('A' for Active; 'I' for Inactive)
REMARK    1  A    between atoms: O_3  and  C_9
REMARK    2  A    between atoms: N_5  and  C_7
REMARK    3  A    between atoms: N_5  and  C_12
REMARK    4  A    between atoms: C_8  and  C_12
REMARK    5  A    between atoms: C_13  and  C_19
REMARK    6  A    between atoms: C_19  and  C_20
REMARK    7  A    between atoms: C_22  and  C_23
REMARK                            x       y       z     vdW  Elec       q    Type
REMARK                         _______ _______ _______ _____ _____    ______ ____
ROOT
ATOM      2  O   UNL     1      -3.627   0.491  23.688  0.00  0.00    -0.369 OA
ATOM      8  C   UNL     1      -4.560  -0.175  24.549  0.00  0.00    +0.161 C 
ATOM      9  C   UNL     1      -3.928  -1.407  25.210  0.00  0.00    +0.145 C 
ATOM     13  C   UNL     1      -2.398   0.878  24.306  0.00  0.00    +0.125 C 
ATOM     14  C   UNL     1      -2.578  -1.096  25.849  0.00  0.00    +0.036 C 
ATOM     15  C   UNL     1      -1.675  -0.342  24.877  0.00  0.00    +0.034 C 
ENDROOT
BRANCH   9   3
ATOM      3  O   UNL     1      -3.717  -2.408  24.211  0.00  0.00    -0.389 OA
ATOM     30  H   UNL     1      -4.010  -2.040  23.359  0.00  0.00    +0.210 HD
ENDBRANCH   9   3
BRANCH   8  12
ATOM     12  C   UNL     1      -5.168   0.798  25.558  0.00  0.00    +0.115 C 
BRANCH  12   5
ATOM      5  N   UNL     1      -5.798   1.921  24.881  0.00  0.00    -0.311 NA
ATOM     29  H   UNL     1      -6.742   2.037  25.249  0.00  0.00    +0.122 HD
BRANCH   5   7
ATOM      7  C   UNL     1      -5.033   3.150  25.083  0.00  0.00    +0.054 C 
ATOM     10  C   UNL     1      -4.040   2.961  26.236  0.00  0.00    +0.019 C 
ATOM     11  C   UNL     1      -4.310   3.532  23.788  0.00  0.00    +0.019 C 
ATOM     16  C   UNL     1      -3.168   4.201  26.427  0.00  0.00    +0.002 C 
ATOM     17  C   UNL     1      -3.438   4.772  23.982  0.00  0.00    +0.002 C 
ATOM     18  C   UNL     1      -2.455   4.593  25.135  0.00  0.00    +0.000 C 
ENDBRANCH   5   7
ENDBRANCH  12   5
ENDBRANCH   8  12
BRANCH  13  19
ATOM     19  C   UNL     1      -1.547   1.564  23.245  0.00  0.00    +0.090 C 
BRANCH  19  20
ATOM      4  O   UNL     1       1.220  -0.574  22.372  0.00  0.00    -0.354 OA
ATOM      6  N   UNL     1      -0.120  -0.213  22.314  0.00  0.00    -0.083 NA
ATOM     20  C   UNL     1      -0.216   0.884  23.072  0.00  0.00    +0.087 A 
ATOM     21  C   UNL     1       1.021   1.258  23.627  0.00  0.00    +0.076 A 
ATOM     22  C   UNL     1       1.889   0.309  23.156  0.00  0.00    +0.167 A 
BRANCH  22  23
ATOM      1  F   UNL     1       7.339  -0.638  23.752  0.00  0.00    -0.205 F 
ATOM     23  C   UNL     1       3.294   0.065  23.309  0.00  0.00    +0.020 A 
ATOM     24  C   UNL     1       3.744  -1.196  23.701  0.00  0.00    +0.014 A 
ATOM     25  C   UNL     1       4.210   1.087  23.066  0.00  0.00    +0.014 A 
ATOM     26  C   UNL     1       5.110  -1.434  23.851  0.00  0.00    +0.039 A 
ATOM     27  C   UNL     1       5.577   0.850  23.216  0.00  0.00    +0.039 A 
ATOM     28  C   UNL     1       6.027  -0.410  23.609  0.00  0.00    +0.123 A 
ENDBRANCH  22  23
ENDBRANCH  19  20
ENDBRANCH  13  19
TORSDOF 7
ENDMDL
MODEL 4
REMARK VINA RESULT:      -1.0      1.873      3.375
REMARK  Name = 75536255
REMARK  7 active torsions:
REMARK  status: ('A' for Active; 'I' for Inactive)
REMARK    1  A    between atoms: O_3  and  C_9
REMARK    2  A    between atoms: N_5  and  C_7
REMARK    3  A    between atoms: N_5  and  C_12
REMARK    4  A    between atoms: C_8  and  C_12
REMARK    5  A    between atoms: C_13  and  C_19
REMARK    6  A    between atoms: C_19  and  C_20
REMARK    7  A    between atoms: C_22  and  C_23
REMARK                            x       y       z     vdW  Elec       q    Type
REMARK                         _______ _______ _______ _____ _____    ______ ____
ROOT
ATOM      2  O   UNL     1      -3.362   2.245  25.588  0.00  0.00    -0.369 OA
ATOM      8  C   UNL     1      -4.651   1.635  25.742  0.00  0.00    +0.161 C 
ATOM      9  C   UNL     1      -5.755   2.500  25.121  0.00  0.00    +0.145 C 
ATOM     13  C   UNL     1      -2.997   2.565  24.243  0.00  0.00    +0.125 C 
ATOM     14  C   UNL     1      -5.421   2.936  23.697  0.00  0.00    +0.036 C 
ATOM     15  C   UNL     1      -4.014   3.523  23.623  0.00  0.00    +0.034 C 
ENDROOT
BRANCH   9   3
ATOM      3  O   UNL     1      -5.916   3.680  25.912  0.00  0.00    -0.389 OA
ATOM     30  H   UNL     1      -5.203   3.690  26.573  0.00  0.00    +0.210 HD
ENDBRANCH   9   3
BRANCH   8  12
ATOM     12  C   UNL     1      -4.647   0.202  25.215  0.00  0.00    +0.115 C 
BRANCH  12   5
ATOM      5  N   UNL     1      -4.325  -0.741  26.275  0.00  0.00    -0.311 NA
ATOM     29  H   UNL     1      -5.149  -1.308  26.471  0.00  0.00    +0.122 HD
BRANCH   5   7
ATOM      7  C   UNL     1      -3.211  -1.604  25.888  0.00  0.00    +0.054 C 
ATOM     10  C   UNL     1      -3.501  -2.251  24.529  0.00  0.00    +0.019 C 
ATOM     11  C   UNL     1      -1.912  -0.790  25.846  0.00  0.00    +0.019 C 
ATOM     16  C   UNL     1      -2.324  -3.101  24.056  0.00  0.00    +0.002 C 
ATOM     17  C   UNL     1      -0.737  -1.644  25.371  0.00  0.00    +0.002 C 
ATOM     18  C   UNL     1      -1.026  -2.298  24.024  0.00  0.00    +0.000 C 
ENDBRANCH   5   7
ENDBRANCH  12   5
ENDBRANCH   8  12
BRANCH  13  19
ATOM     19  C   UNL     1      -1.611   3.196  24.282  0.00  0.00    +0.090 C 
BRANCH  19  20
ATOM      4  O   UNL     1       0.337   0.475  22.944  0.00  0.00    -0.354 OA
ATOM      6  N   UNL     1      -0.862   1.149  23.138  0.00  0.00    -0.083 NA
ATOM     20  C   UNL     1      -0.542   2.219  23.873  0.00  0.00    +0.087 A 
ATOM     21  C   UNL     1       0.831   2.272  24.169  0.00  0.00    +0.076 A 
ATOM     22  C   UNL     1       1.338   1.153  23.563  0.00  0.00    +0.167 A 
BRANCH  22  23
ATOM      1  F   UNL     1       6.409  -1.092  23.118  0.00  0.00    -0.205 F 
ATOM     23  C   UNL     1       2.645   0.574  23.447  0.00  0.00    +0.020 A 
ATOM     24  C   UNL     1       2.834  -0.781  23.719  0.00  0.00    +0.014 A 
ATOM     25  C   UNL     1       3.727   1.366  23.064  0.00  0.00    +0.014 A 
ATOM     26  C   UNL     1       4.105  -1.344  23.608  0.00  0.00    +0.039 A 
ATOM     27  C   UNL     1       4.998   0.803  22.953  0.00  0.00    +0.039 A 
ATOM     28  C   UNL     1       5.188  -0.552  23.225  0.00  0.00    +0.123 A 
ENDBRANCH  22  23
ENDBRANCH  19  20
ENDBRANCH  13  19
TORSDOF 7
ENDMDL
MODEL 5
REMARK VINA RESULT:       0.1      2.207      3.621
REMARK  Name = 75536255
REMARK  7 active torsions:
REMARK  status: ('A' for Active; 'I' for Inactive)
REMARK    1  A    between atoms: O_3  and  C_9
REMARK    2  A    between atoms: N_5  and  C_7
REMARK    3  A    between atoms: N_5  and  C_12
REMARK    4  A    between atoms: C_8  and  C_12
REMARK    5  A    between atoms: C_13  and  C_19
REMARK    6  A    between atoms: C_19  and  C_20
REMARK    7  A    between atoms: C_22  and  C_23
REMARK                            x       y       z     vdW  Elec       q    Type
REMARK                         _______ _______ _______ _____ _____    ______ ____
ROOT
ATOM      2  O   UNL     1      -1.022   2.465  24.347  0.00  0.00    -0.369 OA
ATOM      8  C   UNL     1      -1.255   2.911  25.690  0.00  0.00    +0.161 C 
ATOM      9  C   UNL     1      -2.458   3.859  25.762  0.00  0.00    +0.145 C 
ATOM     13  C   UNL     1      -2.140   1.842  23.710  0.00  0.00    +0.125 C 
ATOM     14  C   UNL     1      -3.687   3.295  25.053  0.00  0.00    +0.036 C 
ATOM     15  C   UNL     1      -3.330   2.800  23.655  0.00  0.00    +0.034 C 
ENDROOT
BRANCH   9   3
ATOM      3  O   UNL     1      -2.113   5.091  25.122  0.00  0.00    -0.389 OA
ATOM     30  H   UNL     1      -2.036   5.770  25.815  0.00  0.00    +0.210 HD
ENDBRANCH   9   3
BRANCH   8  12
ATOM     12  C   UNL     1      -1.368   1.728  26.650  0.00  0.00    +0.115 C 
BRANCH  12   5
ATOM      5  N   UNL     1      -0.544   0.616  26.202  0.00  0.00    -0.311 NA
ATOM     29  H   UNL     1       0.199   0.463  26.884  0.00  0.00    +0.122 HD
BRANCH   5   7
ATOM      7  C   UNL     1      -1.341  -0.601  26.058  0.00  0.00    +0.054 C 
ATOM     10  C   UNL     1      -2.813  -0.235  25.835  0.00  0.00    +0.019 C 
ATOM     11  C   UNL     1      -0.800  -1.443  24.897  0.00  0.00    +0.019 C 
ATOM     16  C   UNL     1      -3.666  -1.481  25.602  0.00  0.00    +0.002 C 
ATOM     17  C   UNL     1      -1.655  -2.688  24.668  0.00  0.00    +0.002 C 
ATOM     18  C   UNL     1      -3.123  -2.330  24.456  0.00  0.00    +0.000 C 
ENDBRANCH   5   7
ENDBRANCH  12   5
ENDBRANCH   8  12
BRANCH  13  19
ATOM     19  C   UNL     1      -1.703   1.440  22.307  0.00  0.00    +0.090 C 
BRANCH  19  20
ATOM      4  O   UNL     1       1.237  -0.566  21.739  0.00  0.00    -0.354 OA
ATOM      6  N   UNL     1      -0.081  -0.216  21.476  0.00  0.00    -0.083 NA
ATOM     20  C   UNL     1      -0.343   0.795  22.311  0.00  0.00    +0.087 A 
ATOM     21  C   UNL     1       0.762   1.122  23.116  0.00  0.00    +0.076 A 
ATOM     22  C   UNL     1       1.729   0.237  22.717  0.00  0.00    +0.167 A 
BRANCH  22  23
ATOM      1  F   UNL     1       7.011  -0.710  24.184  0.00  0.00    -0.205 F 
ATOM     23  C   UNL     1       3.090  -0.007  23.096  0.00  0.00    +0.020 A 
ATOM     24  C   UNL     1       4.038   1.010  22.983  0.00  0.00    +0.014 A 
ATOM     25  C   UNL     1       3.466  -1.260  23.577  0.00  0.00    +0.014 A 
ATOM     26  C   UNL     1       5.363   0.773  23.350  0.00  0.00    +0.039 A 
ATOM     27  C   UNL     1       4.790  -1.498  23.945  0.00  0.00    +0.039 A 
ATOM     28  C   UNL     1       5.739  -0.482  23.831  0.00  0.00    +0.123 A 
ENDBRANCH  22  23
ENDBRANCH  19  20
ENDBRANCH  13  19
TORSDOF 7
ENDMDL
