MODEL 1
REMARK VINA RESULT:      -5.2      0.000      0.000
REMARK  Name = 75367110
REMARK  6 active torsions:
REMARK  status: ('A' for Active; 'I' for Inactive)
REMARK    1  A    between atoms: O_2  and  C_9
REMARK    2  A    between atoms: N_4  and  C_7
REMARK    3  A    between atoms: N_4  and  C_8
REMARK    4  A    between atoms: N_5  and  C_17
REMARK    5  A    between atoms: C_12  and  C_17
REMARK    6  A    between atoms: C_18  and  C_19
REMARK                            x       y       z     vdW  Elec       q    Type
REMARK                         _______ _______ _______ _____ _____    ______ ____
ROOT
ATOM      1  O   UNL     1      -1.364  -2.043  23.533  0.00  0.00    -0.371 OA
ATOM      7  C   UNL     1       0.114  -0.603  24.708  0.00  0.00    +0.111 C 
ATOM      9  C   UNL     1      -1.180  -0.729  25.491  0.00  0.00    +0.164 C 
ATOM     12  C   UNL     1      -1.743  -2.023  24.919  0.00  0.00    +0.165 C 
ATOM     13  C   UNL     1      -0.320  -1.073  23.330  0.00  0.00    +0.181 C 
ENDROOT
BRANCH   9   2
ATOM      2  O   UNL     1      -0.968  -0.818  26.886  0.00  0.00    -0.388 OA
ATOM     25  H   UNL     1      -0.242  -0.217  27.124  0.00  0.00    +0.210 HD
ENDBRANCH   9   2
BRANCH   7   4
ATOM      4  N   UNL     1       0.661   0.745  24.700  0.00  0.00    -0.306 NA
ATOM     24  H   UNL     1       1.201   0.899  23.850  0.00  0.00    +0.123 HD
BRANCH   4   8
ATOM      8  C   UNL     1      -0.409   1.737  24.795  0.00  0.00    +0.054 C 
ATOM     10  C   UNL     1      -0.408   2.371  26.192  0.00  0.00    +0.019 C 
ATOM     11  C   UNL     1      -0.232   2.799  23.706  0.00  0.00    +0.019 C 
ATOM     14  C   UNL     1      -1.464   3.469  26.304  0.00  0.00    +0.002 C 
ATOM     15  C   UNL     1      -1.289   3.897  23.821  0.00  0.00    +0.002 C 
ATOM     16  C   UNL     1      -1.299   4.523  25.214  0.00  0.00    +0.000 C 
ENDBRANCH   4   8
ENDBRANCH   7   4
BRANCH  12  17
ATOM     17  C   UNL     1      -3.253  -2.127  25.040  0.00  0.00    +0.138 C 
BRANCH  17   5
ATOM      3  O   UNL     1      -3.826  -0.035  23.161  0.00  0.00    -0.270 OA
ATOM      5  N   UNL     1      -3.843  -0.853  25.330  0.00  0.00    -0.309 N 
ATOM     18  C   UNL     1      -4.086   0.105  24.352  0.00  0.00    +0.244 C 
ATOM     26  H   UNL     1      -4.021  -0.647  26.308  0.00  0.00    +0.149 HD
BRANCH  18  19
ATOM      6  N   UNL     1      -5.794   3.792  25.703  0.00  0.00    -0.263 NA
ATOM     19  C   UNL     1      -4.680   1.384  24.819  0.00  0.00    +0.040 A 
ATOM     20  C   UNL     1      -4.250   2.591  24.280  0.00  0.00    +0.033 A 
ATOM     21  C   UNL     1      -5.666   1.379  25.800  0.00  0.00    +0.033 A 
ATOM     22  C   UNL     1      -4.832   3.757  24.753  0.00  0.00    +0.111 A 
ATOM     23  C   UNL     1      -6.186   2.598  26.203  0.00  0.00    +0.111 A 
ENDBRANCH  18  19
ENDBRANCH  17   5
ENDBRANCH  12  17
TORSDOF 6
ENDMDL
MODEL 2
REMARK VINA RESULT:      -4.6      1.948      4.665
REMARK  Name = 75367110
REMARK  6 active torsions:
REMARK  status: ('A' for Active; 'I' for Inactive)
REMARK    1  A    between atoms: O_2  and  C_9
REMARK    2  A    between atoms: N_4  and  C_7
REMARK    3  A    between atoms: N_4  and  C_8
REMARK    4  A    between atoms: N_5  and  C_17
REMARK    5  A    between atoms: C_12  and  C_17
REMARK    6  A    between atoms: C_18  and  C_19
REMARK                            x       y       z     vdW  Elec       q    Type
REMARK                         _______ _______ _______ _____ _____    ______ ____
ROOT
ATOM      1  O   UNL     1       0.350   3.404  23.524  0.00  0.00    -0.371 OA
ATOM      7  C   UNL     1      -0.933   4.108  25.395  0.00  0.00    +0.111 C 
ATOM      9  C   UNL     1      -0.645   2.624  25.522  0.00  0.00    +0.164 C 
ATOM     12  C   UNL     1       0.559   2.478  24.603  0.00  0.00    +0.165 C 
ATOM     13  C   UNL     1      -0.671   4.340  23.916  0.00  0.00    +0.181 C 
ENDROOT
BRANCH   9   2
ATOM      2  O   UNL     1      -0.346   2.238  26.849  0.00  0.00    -0.388 OA
ATOM     25  H   UNL     1      -1.182   2.130  27.333  0.00  0.00    +0.210 HD
ENDBRANCH   9   2
BRANCH   7   4
ATOM      4  N   UNL     1      -2.281   4.477  25.795  0.00  0.00    -0.306 NA
ATOM     24  H   UNL     1      -2.573   5.324  25.308  0.00  0.00    +0.123 HD
BRANCH   4   8
ATOM      8  C   UNL     1      -3.220   3.393  25.511  0.00  0.00    +0.054 C 
ATOM     10  C   UNL     1      -4.424   3.487  26.456  0.00  0.00    +0.019 C 
ATOM     11  C   UNL     1      -3.661   3.457  24.046  0.00  0.00    +0.019 C 
ATOM     14  C   UNL     1      -5.465   2.415  26.137  0.00  0.00    +0.002 C 
ATOM     15  C   UNL     1      -4.702   2.384  23.730  0.00  0.00    +0.002 C 
ATOM     16  C   UNL     1      -5.898   2.467  24.675  0.00  0.00    +0.000 C 
ENDBRANCH   4   8
ENDBRANCH   7   4
BRANCH  12  17
ATOM     17  C   UNL     1       0.728   1.075  24.050  0.00  0.00    +0.138 C 
BRANCH  17   5
ATOM      3  O   UNL     1       0.048  -1.407  25.321  0.00  0.00    -0.270 OA
ATOM      5  N   UNL     1      -0.529   0.389  23.972  0.00  0.00    -0.309 N 
ATOM     18  C   UNL     1      -0.771  -0.816  24.624  0.00  0.00    +0.244 C 
ATOM     26  H   UNL     1      -1.229   0.790  23.357  0.00  0.00    +0.149 HD
BRANCH  18  19
ATOM      6  N   UNL     1      -4.650  -2.535  24.049  0.00  0.00    -0.263 NA
ATOM     19  C   UNL     1      -2.117  -1.412  24.422  0.00  0.00    +0.040 A 
ATOM     20  C   UNL     1      -3.218  -0.592  24.204  0.00  0.00    +0.033 A 
ATOM     21  C   UNL     1      -2.281  -2.793  24.455  0.00  0.00    +0.033 A 
ATOM     22  C   UNL     1      -4.452  -1.197  24.026  0.00  0.00    +0.111 A 
ATOM     23  C   UNL     1      -3.556  -3.300  24.264  0.00  0.00    +0.111 A 
ENDBRANCH  18  19
ENDBRANCH  17   5
ENDBRANCH  12  17
TORSDOF 6
ENDMDL
MODEL 3
REMARK VINA RESULT:      -4.4      2.307      6.243
REMARK  Name = 75367110
REMARK  6 active torsions:
REMARK  status: ('A' for Active; 'I' for Inactive)
REMARK    1  A    between atoms: O_2  and  C_9
REMARK    2  A    between atoms: N_4  and  C_7
REMARK    3  A    between atoms: N_4  and  C_8
REMARK    4  A    between atoms: N_5  and  C_17
REMARK    5  A    between atoms: C_12  and  C_17
REMARK    6  A    between atoms: C_18  and  C_19
REMARK                            x       y       z     vdW  Elec       q    Type
REMARK                         _______ _______ _______ _____ _____    ______ ____
ROOT
ATOM      1  O   UNL     1      -2.720   3.590  23.379  0.00  0.00    -0.371 OA
ATOM      7  C   UNL     1      -4.289   2.596  24.859  0.00  0.00    +0.111 C 
ATOM      9  C   UNL     1      -3.096   3.088  25.659  0.00  0.00    +0.164 C 
ATOM     12  C   UNL     1      -2.503   4.110  24.701  0.00  0.00    +0.165 C 
ATOM     13  C   UNL     1      -3.711   2.549  23.454  0.00  0.00    +0.181 C 
ENDROOT
BRANCH   9   2
ATOM      2  O   UNL     1      -3.469   3.673  26.891  0.00  0.00    -0.388 OA
ATOM     25  H   UNL     1      -2.990   3.219  27.604  0.00  0.00    +0.210 HD
ENDBRANCH   9   2
BRANCH   7   4
ATOM      4  N   UNL     1      -4.799   1.309  25.304  0.00  0.00    -0.306 NA
ATOM     24  H   UNL     1      -5.775   1.204  25.030  0.00  0.00    +0.123 HD
BRANCH   4   8
ATOM      8  C   UNL     1      -4.006   0.217  24.744  0.00  0.00    +0.054 C 
ATOM     10  C   UNL     1      -3.037  -0.320  25.804  0.00  0.00    +0.019 C 
ATOM     11  C   UNL     1      -4.932  -0.890  24.230  0.00  0.00    +0.019 C 
ATOM     14  C   UNL     1      -2.244  -1.515  25.278  0.00  0.00    +0.002 C 
ATOM     15  C   UNL     1      -4.136  -2.084  23.706  0.00  0.00    +0.002 C 
ATOM     16  C   UNL     1      -3.162  -2.615  24.755  0.00  0.00    +0.000 C 
ENDBRANCH   4   8
ENDBRANCH   7   4
BRANCH  12  17
ATOM     17  C   UNL     1      -1.019   4.350  24.920  0.00  0.00    +0.138 C 
BRANCH  17   5
ATOM      3  O   UNL     1      -0.150   1.757  25.791  0.00  0.00    -0.270 OA
ATOM      5  N   UNL     1      -0.224   3.419  24.175  0.00  0.00    -0.309 N 
ATOM     18  C   UNL     1       0.154   2.178  24.679  0.00  0.00    +0.244 C 
ATOM     26  H   UNL     1       0.118   3.732  23.273  0.00  0.00    +0.149 HD
BRANCH  18  19
ATOM      6  N   UNL     1       2.593  -0.236  22.118  0.00  0.00    -0.263 NA
ATOM     19  C   UNL     1       1.000   1.339  23.792  0.00  0.00    +0.040 A 
ATOM     20  C   UNL     1       2.333   1.673  23.580  0.00  0.00    +0.033 A 
ATOM     21  C   UNL     1       0.462   0.219  23.167  0.00  0.00    +0.033 A 
ATOM     22  C   UNL     1       3.080   0.861  22.741  0.00  0.00    +0.111 A 
ATOM     23  C   UNL     1       1.292  -0.528  22.348  0.00  0.00    +0.111 A 
ENDBRANCH  18  19
ENDBRANCH  17   5
ENDBRANCH  12  17
TORSDOF 6
ENDMDL
MODEL 4
REMARK VINA RESULT:      -4.1     14.610     16.940
REMARK  Name = 75367110
REMARK  6 active torsions:
REMARK  status: ('A' for Active; 'I' for Inactive)
REMARK    1  A    between atoms: O_2  and  C_9
REMARK    2  A    between atoms: N_4  and  C_7
REMARK    3  A    between atoms: N_4  and  C_8
REMARK    4  A    between atoms: N_5  and  C_17
REMARK    5  A    between atoms: C_12  and  C_17
REMARK    6  A    between atoms: C_18  and  C_19
REMARK                            x       y       z     vdW  Elec       q    Type
REMARK                         _______ _______ _______ _____ _____    ______ ____
ROOT
ATOM      1  O   UNL     1      -2.429 -10.472  14.708  0.00  0.00    -0.371 OA
ATOM      7  C   UNL     1      -4.547 -10.309  15.770  0.00  0.00    +0.111 C 
ATOM      9  C   UNL     1      -4.729 -10.133  14.274  0.00  0.00    +0.164 C 
ATOM     12  C   UNL     1      -3.453 -10.774  13.746  0.00  0.00    +0.165 C 
ATOM     13  C   UNL     1      -3.060 -10.038  15.927  0.00  0.00    +0.181 C 
ENDROOT
BRANCH   9   2
ATOM      2  O   UNL     1      -5.886 -10.781  13.784  0.00  0.00    -0.388 OA
ATOM     25  H   UNL     1      -5.719 -11.739  13.772  0.00  0.00    +0.210 HD
ENDBRANCH   9   2
BRANCH   7   4
ATOM      4  N   UNL     1      -5.372  -9.415  16.566  0.00  0.00    -0.306 NA
ATOM     24  H   UNL     1      -5.589  -8.572  16.037  0.00  0.00    +0.123 HD
BRANCH   4   8
ATOM      8  C   UNL     1      -6.610 -10.078  16.972  0.00  0.00    +0.054 C 
ATOM     10  C   UNL     1      -6.693 -10.135  18.502  0.00  0.00    +0.019 C 
ATOM     11  C   UNL     1      -7.815  -9.340  16.381  0.00  0.00    +0.019 C 
ATOM     14  C   UNL     1      -8.011 -10.753  18.965  0.00  0.00    +0.002 C 
ATOM     15  C   UNL     1      -9.132  -9.959  16.845  0.00  0.00    +0.002 C 
ATOM     16  C   UNL     1      -9.214 -10.028  18.368  0.00  0.00    +0.000 C 
ENDBRANCH   4   8
ENDBRANCH   7   4
BRANCH  12  17
ATOM     17  C   UNL     1      -3.041 -10.257  12.379  0.00  0.00    +0.138 C 
BRANCH  17   5
ATOM      3  O   UNL     1      -3.201  -8.628  10.022  0.00  0.00    -0.270 OA
ATOM      5  N   UNL     1      -4.173 -10.117  11.510  0.00  0.00    -0.309 N 
ATOM     18  C   UNL     1      -4.162  -9.300  10.384  0.00  0.00    +0.244 C 
ATOM     26  H   UNL     1      -5.023 -10.595  11.790  0.00  0.00    +0.149 HD
BRANCH  18  19
ATOM      6  N   UNL     1      -7.801  -9.139   8.134  0.00  0.00    -0.263 NA
ATOM     19  C   UNL     1      -5.423  -9.244   9.601  0.00  0.00    +0.040 A 
ATOM     20  C   UNL     1      -6.038  -8.022   9.356  0.00  0.00    +0.033 A 
ATOM     21  C   UNL     1      -5.996 -10.414   9.115  0.00  0.00    +0.033 A 
ATOM     22  C   UNL     1      -7.215  -8.023   8.625  0.00  0.00    +0.111 A 
ATOM     23  C   UNL     1      -7.174 -10.309   8.393  0.00  0.00    +0.111 A 
ENDBRANCH  18  19
ENDBRANCH  17   5
ENDBRANCH  12  17
TORSDOF 6
ENDMDL
MODEL 5
REMARK VINA RESULT:      -3.6      2.058      4.845
REMARK  Name = 75367110
REMARK  6 active torsions:
REMARK  status: ('A' for Active; 'I' for Inactive)
REMARK    1  A    between atoms: O_2  and  C_9
REMARK    2  A    between atoms: N_4  and  C_7
REMARK    3  A    between atoms: N_4  and  C_8
REMARK    4  A    between atoms: N_5  and  C_17
REMARK    5  A    between atoms: C_12  and  C_17
REMARK    6  A    between atoms: C_18  and  C_19
REMARK                            x       y       z     vdW  Elec       q    Type
REMARK                         _______ _______ _______ _____ _____    ______ ____
ROOT
ATOM      1  O   UNL     1      -4.282   3.790  26.876  0.00  0.00    -0.371 OA
ATOM      7  C   UNL     1      -2.414   4.268  25.490  0.00  0.00    +0.111 C 
ATOM      9  C   UNL     1      -3.487   3.591  24.658  0.00  0.00    +0.164 C 
ATOM     12  C   UNL     1      -4.722   3.847  25.509  0.00  0.00    +0.165 C 
ATOM     13  C   UNL     1      -2.847   3.899  26.899  0.00  0.00    +0.181 C 
ENDROOT
BRANCH   9   2
ATOM      2  O   UNL     1      -3.611   4.152  23.366  0.00  0.00    -0.388 OA
ATOM     25  H   UNL     1      -3.611   3.430  22.716  0.00  0.00    +0.210 HD
ENDBRANCH   9   2
BRANCH   7   4
ATOM      4  N   UNL     1      -1.066   3.821  25.178  0.00  0.00    -0.306 NA
ATOM     24  H   UNL     1      -0.468   3.906  25.999  0.00  0.00    +0.123 HD
BRANCH   4   8
ATOM      8  C   UNL     1      -1.075   2.435  24.713  0.00  0.00    +0.054 C 
ATOM     10  C   UNL     1      -0.148   2.286  23.500  0.00  0.00    +0.019 C 
ATOM     11  C   UNL     1      -0.652   1.501  25.850  0.00  0.00    +0.019 C 
ATOM     14  C   UNL     1      -0.073   0.834  23.033  0.00  0.00    +0.002 C 
ATOM     15  C   UNL     1      -0.576   0.049  25.380  0.00  0.00    +0.002 C 
ATOM     16  C   UNL     1       0.337  -0.102  24.166  0.00  0.00    +0.000 C 
ENDBRANCH   4   8
ENDBRANCH   7   4
BRANCH  12  17
ATOM     17  C   UNL     1      -5.829   2.831  25.284  0.00  0.00    +0.138 C 
BRANCH  17   5
ATOM      3  O   UNL     1      -4.138   1.464  23.411  0.00  0.00    -0.270 OA
ATOM      5  N   UNL     1      -5.337   1.489  25.396  0.00  0.00    -0.309 N 
ATOM     18  C   UNL     1      -4.519   0.904  24.435  0.00  0.00    +0.244 C 
ATOM     26  H   UNL     1      -5.670   0.947  26.186  0.00  0.00    +0.149 HD
BRANCH  18  19
ATOM      6  N   UNL     1      -3.350  -3.152  25.153  0.00  0.00    -0.263 NA
ATOM     19  C   UNL     1      -4.115  -0.504  24.685  0.00  0.00    +0.040 A 
ATOM     20  C   UNL     1      -3.604  -0.873  25.923  0.00  0.00    +0.033 A 
ATOM     21  C   UNL     1      -4.245  -1.456  23.680  0.00  0.00    +0.033 A 
ATOM     22  C   UNL     1      -3.239  -2.198  26.105  0.00  0.00    +0.111 A 
ATOM     23  C   UNL     1      -3.852  -2.754  23.961  0.00  0.00    +0.111 A 
ENDBRANCH  18  19
ENDBRANCH  17   5
ENDBRANCH  12  17
TORSDOF 6
ENDMDL
MODEL 6
REMARK VINA RESULT:      -3.4      1.810      4.219
REMARK  Name = 75367110
REMARK  6 active torsions:
REMARK  status: ('A' for Active; 'I' for Inactive)
REMARK    1  A    between atoms: O_2  and  C_9
REMARK    2  A    between atoms: N_4  and  C_7
REMARK    3  A    between atoms: N_4  and  C_8
REMARK    4  A    between atoms: N_5  and  C_17
REMARK    5  A    between atoms: C_12  and  C_17
REMARK    6  A    between atoms: C_18  and  C_19
REMARK                            x       y       z     vdW  Elec       q    Type
REMARK                         _______ _______ _______ _____ _____    ______ ____
ROOT
ATOM      1  O   UNL     1      -0.396   1.604  26.123  0.00  0.00    -0.371 OA
ATOM      7  C   UNL     1       0.151  -0.209  24.689  0.00  0.00    +0.111 C 
ATOM      9  C   UNL     1       0.074   1.065  23.869  0.00  0.00    +0.164 C 
ATOM     12  C   UNL     1       0.253   2.121  24.950  0.00  0.00    +0.165 C 
ATOM     13  C   UNL     1      -0.611   0.192  25.941  0.00  0.00    +0.181 C 
ENDROOT
BRANCH   9   2
ATOM      2  O   UNL     1       1.085   1.142  22.884  0.00  0.00    -0.388 OA
ATOM     25  H   UNL     1       0.668   1.066  22.009  0.00  0.00    +0.210 HD
ENDBRANCH   9   2
BRANCH   7   4
ATOM      4  N   UNL     1      -0.424  -1.367  24.024  0.00  0.00    -0.306 NA
ATOM     24  H   UNL     1       0.132  -2.198  24.222  0.00  0.00    +0.123 HD
BRANCH   4   8
ATOM      8  C   UNL     1      -1.804  -1.579  24.457  0.00  0.00    +0.054 C 
ATOM     10  C   UNL     1      -2.752  -0.720  23.611  0.00  0.00    +0.019 C 
ATOM     11  C   UNL     1      -2.161  -3.065  24.350  0.00  0.00    +0.019 C 
ATOM     14  C   UNL     1      -4.212  -0.974  23.983  0.00  0.00    +0.002 C 
ATOM     15  C   UNL     1      -3.622  -3.316  24.722  0.00  0.00    +0.002 C 
ATOM     16  C   UNL     1      -4.568  -2.454  23.890  0.00  0.00    +0.000 C 
ENDBRANCH   4   8
ENDBRANCH   7   4
BRANCH  12  17
ATOM     17  C   UNL     1      -0.349   3.466  24.582  0.00  0.00    +0.138 C 
BRANCH  17   5
ATOM      3  O   UNL     1      -2.651   2.449  23.203  0.00  0.00    -0.270 OA
ATOM      5  N   UNL     1      -1.714   3.563  25.009  0.00  0.00    -0.309 N 
ATOM     18  C   UNL     1      -2.772   3.038  24.273  0.00  0.00    +0.244 C 
ATOM     26  H   UNL     1      -1.890   4.097  25.852  0.00  0.00    +0.149 HD
BRANCH  18  19
ATOM      6  N   UNL     1      -6.685   3.630  25.908  0.00  0.00    -0.263 NA
ATOM     19  C   UNL     1      -4.130   3.244  24.838  0.00  0.00    +0.040 A 
ATOM     20  C   UNL     1      -4.594   4.530  25.090  0.00  0.00    +0.033 A 
ATOM     21  C   UNL     1      -4.942   2.150  25.121  0.00  0.00    +0.033 A 
ATOM     22  C   UNL     1      -5.867   4.668  25.621  0.00  0.00    +0.111 A 
ATOM     23  C   UNL     1      -6.199   2.395  25.650  0.00  0.00    +0.111 A 
ENDBRANCH  18  19
ENDBRANCH  17   5
ENDBRANCH  12  17
TORSDOF 6
ENDMDL
MODEL 7
REMARK VINA RESULT:      -2.9      1.684      5.089
REMARK  Name = 75367110
REMARK  6 active torsions:
REMARK  status: ('A' for Active; 'I' for Inactive)
REMARK    1  A    between atoms: O_2  and  C_9
REMARK    2  A    between atoms: N_4  and  C_7
REMARK    3  A    between atoms: N_4  and  C_8
REMARK    4  A    between atoms: N_5  and  C_17
REMARK    5  A    between atoms: C_12  and  C_17
REMARK    6  A    between atoms: C_18  and  C_19
REMARK                            x       y       z     vdW  Elec       q    Type
REMARK                         _______ _______ _______ _____ _____    ______ ____
ROOT
ATOM      1  O   UNL     1      -6.239   1.795  26.057  0.00  0.00    -0.371 OA
ATOM      7  C   UNL     1      -5.002   3.730  25.451  0.00  0.00    +0.111 C 
ATOM      9  C   UNL     1      -4.605   2.583  24.540  0.00  0.00    +0.164 C 
ATOM     12  C   UNL     1      -5.803   1.658  24.694  0.00  0.00    +0.165 C 
ATOM     13  C   UNL     1      -5.647   2.986  26.608  0.00  0.00    +0.181 C 
ENDROOT
BRANCH   9   2
ATOM      2  O   UNL     1      -4.423   2.990  23.198  0.00  0.00    -0.388 OA
ATOM     25  H   UNL     1      -4.774   2.295  22.616  0.00  0.00    +0.210 HD
ENDBRANCH   9   2
BRANCH   7   4
ATOM      4  N   UNL     1      -3.882   4.559  25.866  0.00  0.00    -0.306 NA
ATOM     24  H   UNL     1      -3.867   4.647  26.881  0.00  0.00    +0.123 HD
BRANCH   4   8
ATOM      8  C   UNL     1      -2.618   3.993  25.398  0.00  0.00    +0.054 C 
ATOM     10  C   UNL     1      -1.664   5.120  24.984  0.00  0.00    +0.019 C 
ATOM     11  C   UNL     1      -2.000   3.120  26.495  0.00  0.00    +0.019 C 
ATOM     14  C   UNL     1      -0.304   4.569  24.562  0.00  0.00    +0.002 C 
ATOM     15  C   UNL     1      -0.639   2.572  26.071  0.00  0.00    +0.002 C 
ATOM     16  C   UNL     1       0.310   3.690  25.648  0.00  0.00    +0.000 C 
ENDBRANCH   4   8
ENDBRANCH   7   4
BRANCH  12  17
ATOM     17  C   UNL     1      -5.482   0.203  24.403  0.00  0.00    +0.138 C 
BRANCH  17   5
ATOM      3  O   UNL     1      -3.565  -1.010  26.161  0.00  0.00    -0.270 OA
ATOM      5  N   UNL     1      -4.083   0.018  24.148  0.00  0.00    -0.309 N 
ATOM     18  C   UNL     1      -3.224  -0.583  25.062  0.00  0.00    +0.244 C 
ATOM     26  H   UNL     1      -3.723   0.409  23.284  0.00  0.00    +0.149 HD
BRANCH  18  19
ATOM      6  N   UNL     1       0.889  -0.850  23.903  0.00  0.00    -0.263 NA
ATOM     19  C   UNL     1      -1.797  -0.677  24.658  0.00  0.00    +0.040 A 
ATOM     20  C   UNL     1      -1.005  -1.716  25.133  0.00  0.00    +0.033 A 
ATOM     21  C   UNL     1      -1.248   0.275  23.807  0.00  0.00    +0.033 A 
ATOM     22  C   UNL     1       0.321  -1.757  24.730  0.00  0.00    +0.111 A 
ATOM     23  C   UNL     1       0.087   0.145  23.462  0.00  0.00    +0.111 A 
ENDBRANCH  18  19
ENDBRANCH  17   5
ENDBRANCH  12  17
TORSDOF 6
ENDMDL
MODEL 8
REMARK VINA RESULT:      -2.8      2.110      3.362
REMARK  Name = 75367110
REMARK  6 active torsions:
REMARK  status: ('A' for Active; 'I' for Inactive)
REMARK    1  A    between atoms: O_2  and  C_9
REMARK    2  A    between atoms: N_4  and  C_7
REMARK    3  A    between atoms: N_4  and  C_8
REMARK    4  A    between atoms: N_5  and  C_17
REMARK    5  A    between atoms: C_12  and  C_17
REMARK    6  A    between atoms: C_18  and  C_19
REMARK                            x       y       z     vdW  Elec       q    Type
REMARK                         _______ _______ _______ _____ _____    ______ ____
ROOT
ATOM      1  O   UNL     1      -1.596  -2.656  23.897  0.00  0.00    -0.371 OA
ATOM      7  C   UNL     1       0.097  -1.004  24.113  0.00  0.00    +0.111 C 
ATOM      9  C   UNL     1      -1.030  -0.688  25.079  0.00  0.00    +0.164 C 
ATOM     12  C   UNL     1      -1.708  -2.045  25.193  0.00  0.00    +0.165 C 
ATOM     13  C   UNL     1      -0.594  -1.949  23.144  0.00  0.00    +0.181 C 
ENDROOT
BRANCH   9   2
ATOM      2  O   UNL     1      -0.561  -0.225  26.331  0.00  0.00    -0.388 OA
ATOM     25  H   UNL     1       0.290   0.223  26.193  0.00  0.00    +0.210 HD
ENDBRANCH   9   2
BRANCH   7   4
ATOM      4  N   UNL     1       0.651   0.170  23.460  0.00  0.00    -0.306 NA
ATOM     24  H   UNL     1       0.641   0.965  24.098  0.00  0.00    +0.123 HD
BRANCH   4   8
ATOM      8  C   UNL     1       2.018  -0.086  23.009  0.00  0.00    +0.054 C 
ATOM     10  C   UNL     1       2.799   1.232  22.938  0.00  0.00    +0.019 C 
ATOM     11  C   UNL     1       2.700  -1.082  23.953  0.00  0.00    +0.019 C 
ATOM     14  C   UNL     1       4.255   0.995  22.545  0.00  0.00    +0.002 C 
ATOM     15  C   UNL     1       4.157  -1.316  23.557  0.00  0.00    +0.002 C 
ATOM     16  C   UNL     1       4.935  -0.005  23.475  0.00  0.00    +0.000 C 
ENDBRANCH   4   8
ENDBRANCH   7   4
BRANCH  12  17
ATOM     17  C   UNL     1      -3.170  -1.956  25.593  0.00  0.00    +0.138 C 
BRANCH  17   5
ATOM      3  O   UNL     1      -4.081  -0.310  23.426  0.00  0.00    -0.270 OA
ATOM      5  N   UNL     1      -3.607  -0.593  25.678  0.00  0.00    -0.309 N 
ATOM     18  C   UNL     1      -4.033   0.132  24.570  0.00  0.00    +0.244 C 
ATOM     26  H   UNL     1      -3.528  -0.146  26.585  0.00  0.00    +0.149 HD
BRANCH  18  19
ATOM      6  N   UNL     1      -5.178   4.195  25.285  0.00  0.00    -0.263 NA
ATOM     19  C   UNL     1      -4.429   1.541  24.820  0.00  0.00    +0.040 A 
ATOM     20  C   UNL     1      -5.598   1.825  25.518  0.00  0.00    +0.033 A 
ATOM     21  C   UNL     1      -3.635   2.583  24.353  0.00  0.00    +0.033 A 
ATOM     22  C   UNL     1      -5.925   3.156  25.722  0.00  0.00    +0.111 A 
ATOM     23  C   UNL     1      -4.049   3.880  24.610  0.00  0.00    +0.111 A 
ENDBRANCH  18  19
ENDBRANCH  17   5
ENDBRANCH  12  17
TORSDOF 6
ENDMDL
MODEL 9
REMARK VINA RESULT:      -2.7      2.173      4.319
REMARK  Name = 75367110
REMARK  6 active torsions:
REMARK  status: ('A' for Active; 'I' for Inactive)
REMARK    1  A    between atoms: O_2  and  C_9
REMARK    2  A    between atoms: N_4  and  C_7
REMARK    3  A    between atoms: N_4  and  C_8
REMARK    4  A    between atoms: N_5  and  C_17
REMARK    5  A    between atoms: C_12  and  C_17
REMARK    6  A    between atoms: C_18  and  C_19
REMARK                            x       y       z     vdW  Elec       q    Type
REMARK                         _______ _______ _______ _____ _____    ______ ____
ROOT
ATOM      1  O   UNL     1      -0.254   3.282  26.429  0.00  0.00    -0.371 OA
ATOM      7  C   UNL     1       0.529   1.976  24.607  0.00  0.00    +0.111 C 
ATOM      9  C   UNL     1      -0.399   3.055  24.080  0.00  0.00    +0.164 C 
ATOM     12  C   UNL     1      -0.362   4.057  25.224  0.00  0.00    +0.165 C 
ATOM     13  C   UNL     1       0.152   1.946  26.078  0.00  0.00    +0.181 C 
ENDROOT
BRANCH   9   2
ATOM      2  O   UNL     1       0.056   3.622  22.867  0.00  0.00    -0.388 OA
ATOM     25  H   UNL     1      -0.580   4.301  22.589  0.00  0.00    +0.210 HD
ENDBRANCH   9   2
BRANCH   7   4
ATOM      4  N   UNL     1       0.358   0.689  23.953  0.00  0.00    -0.306 NA
ATOM     24  H   UNL     1       1.230   0.163  23.978  0.00  0.00    +0.123 HD
BRANCH   4   8
ATOM      8  C   UNL     1      -0.705  -0.081  24.598  0.00  0.00    +0.054 C 
ATOM     10  C   UNL     1      -2.070   0.360  24.056  0.00  0.00    +0.019 C 
ATOM     11  C   UNL     1      -0.477  -1.578  24.368  0.00  0.00    +0.019 C 
ATOM     14  C   UNL     1      -3.201  -0.476  24.651  0.00  0.00    +0.002 C 
ATOM     15  C   UNL     1      -1.610  -2.413  24.963  0.00  0.00    +0.002 C 
ATOM     16  C   UNL     1      -2.972  -1.969  24.434  0.00  0.00    +0.000 C 
ENDBRANCH   4   8
ENDBRANCH   7   4
BRANCH  12  17
ATOM     17  C   UNL     1      -1.596   4.939  25.291  0.00  0.00    +0.138 C 
BRANCH  17   5
ATOM      3  O   UNL     1      -3.473   3.838  23.419  0.00  0.00    -0.270 OA
ATOM      5  N   UNL     1      -2.769   4.175  25.603  0.00  0.00    -0.309 N 
ATOM     18  C   UNL     1      -3.627   3.679  24.626  0.00  0.00    +0.244 C 
ATOM     26  H   UNL     1      -2.991   4.064  26.586  0.00  0.00    +0.149 HD
BRANCH  18  19
ATOM      6  N   UNL     1      -7.048   1.521  26.030  0.00  0.00    -0.263 NA
ATOM     19  C   UNL     1      -4.812   2.928  25.114  0.00  0.00    +0.040 A 
ATOM     20  C   UNL     1      -5.458   2.025  24.278  0.00  0.00    +0.033 A 
ATOM     21  C   UNL     1      -5.283   3.130  26.407  0.00  0.00    +0.033 A 
ATOM     22  C   UNL     1      -6.562   1.353  24.779  0.00  0.00    +0.111 A 
ATOM     23  C   UNL     1      -6.393   2.408  26.813  0.00  0.00    +0.111 A 
ENDBRANCH  18  19
ENDBRANCH  17   5
ENDBRANCH  12  17
TORSDOF 6
ENDMDL
MODEL 10
REMARK VINA RESULT:      -2.3      2.917      6.786
REMARK  Name = 75367110
REMARK  6 active torsions:
REMARK  status: ('A' for Active; 'I' for Inactive)
REMARK    1  A    between atoms: O_2  and  C_9
REMARK    2  A    between atoms: N_4  and  C_7
REMARK    3  A    between atoms: N_4  and  C_8
REMARK    4  A    between atoms: N_5  and  C_17
REMARK    5  A    between atoms: C_12  and  C_17
REMARK    6  A    between atoms: C_18  and  C_19
REMARK                            x       y       z     vdW  Elec       q    Type
REMARK                         _______ _______ _______ _____ _____    ______ ____
ROOT
ATOM      1  O   UNL     1      -0.899  -0.134  24.927  0.00  0.00    -0.371 OA
ATOM      7  C   UNL     1      -3.051  -0.115  23.924  0.00  0.00    +0.111 C 
ATOM      9  C   UNL     1      -2.255   1.069  23.409  0.00  0.00    +0.164 C 
ATOM     12  C   UNL     1      -0.832   0.616  23.703  0.00  0.00    +0.165 C 
ATOM     13  C   UNL     1      -2.273  -0.479  25.178  0.00  0.00    +0.181 C 
ENDROOT
BRANCH   9   2
ATOM      2  O   UNL     1      -2.459   1.306  22.030  0.00  0.00    -0.388 OA
ATOM     25  H   UNL     1      -3.131   2.001  21.934  0.00  0.00    +0.210 HD
ENDBRANCH   9   2
BRANCH   7   4
ATOM      4  N   UNL     1      -4.446   0.193  24.194  0.00  0.00    -0.306 NA
ATOM     24  H   UNL     1      -4.903  -0.603  24.637  0.00  0.00    +0.123 HD
BRANCH   4   8
ATOM      8  C   UNL     1      -4.558   1.370  25.054  0.00  0.00    +0.054 C 
ATOM     10  C   UNL     1      -4.157   2.627  24.271  0.00  0.00    +0.019 C 
ATOM     11  C   UNL     1      -5.987   1.488  25.593  0.00  0.00    +0.019 C 
ATOM     14  C   UNL     1      -4.335   3.887  25.115  0.00  0.00    +0.002 C 
ATOM     15  C   UNL     1      -6.163   2.750  26.436  0.00  0.00    +0.002 C 
ATOM     16  C   UNL     1      -5.754   4.003  25.664  0.00  0.00    +0.000 C 
ENDBRANCH   4   8
ENDBRANCH   7   4
BRANCH  12  17
ATOM     17  C   UNL     1       0.146   1.767  23.859  0.00  0.00    +0.138 C 
BRANCH  17   5
ATOM      3  O   UNL     1       1.454  -0.054  22.066  0.00  0.00    -0.270 OA
ATOM      5  N   UNL     1       1.497   1.296  23.952  0.00  0.00    -0.309 N 
ATOM     18  C   UNL     1       2.051   0.409  23.034  0.00  0.00    +0.244 C 
ATOM     26  H   UNL     1       2.025   1.587  24.767  0.00  0.00    +0.149 HD
BRANCH  18  19
ATOM      6  N   UNL     1       6.100  -0.782  23.751  0.00  0.00    -0.263 NA
ATOM     19  C   UNL     1       3.456  -0.003  23.285  0.00  0.00    +0.040 A 
ATOM     20  C   UNL     1       4.495   0.894  23.070  0.00  0.00    +0.033 A 
ATOM     21  C   UNL     1       3.736  -1.290  23.732  0.00  0.00    +0.033 A 
ATOM     22  C   UNL     1       5.788   0.460  23.315  0.00  0.00    +0.111 A 
ATOM     23  C   UNL     1       5.063  -1.627  23.948  0.00  0.00    +0.111 A 
ENDBRANCH  18  19
ENDBRANCH  17   5
ENDBRANCH  12  17
TORSDOF 6
ENDMDL
