MODEL 1
REMARK VINA RESULT:      -1.8      0.000      0.000
REMARK  Name = 71693206
REMARK  16 active torsions:
REMARK  status: ('A' for Active; 'I' for Inactive)
REMARK    1  A    between atoms: O_2  and  C_32
REMARK    2  A    between atoms: O_2  and  C_34
REMARK    3  A    between atoms: O_4  and  C_33
REMARK    4  A    between atoms: N_6  and  C_16
REMARK    5  A    between atoms: C_9  and  C_13
REMARK    6  A    between atoms: C_10  and  C_16
REMARK    7  A    between atoms: C_12  and  C_17
REMARK    8  A    between atoms: C_13  and  C_18
REMARK    9  A    between atoms: C_13  and  C_19
REMARK   10  A    between atoms: C_14  and  C_20
REMARK   11  A    between atoms: C_17  and  C_21
REMARK   12  A    between atoms: C_22  and  C_25
REMARK   13  A    between atoms: C_25  and  C_27
REMARK   14  A    between atoms: C_27  and  C_31
REMARK   15  A    between atoms: C_29  and  C_32
REMARK   16  A    between atoms: C_31  and  C_33
REMARK                            x       y       z     vdW  Elec       q    Type
REMARK                         _______ _______ _______ _____ _____    ______ ____
ROOT
ATOM      9  C   UNL     1      12.661  -8.736  31.196  0.00  0.00    +0.000 C 
ATOM     10  C   UNL     1      13.937  -8.085  31.787  0.00  0.00    +0.032 C 
ATOM     11  C   UNL     1      12.774 -10.268  31.233  0.00  0.00    +0.012 C 
ATOM     12  C   UNL     1      13.994 -10.781  30.445  0.00  0.00    +0.022 C 
ATOM     14  C   UNL     1      15.249 -10.001  30.780  0.00  0.00    -0.073 C 
ATOM     15  C   UNL     1      15.205  -8.805  31.391  0.00  0.00    -0.022 C 
ATOM     20  C   UNL     1      16.562 -10.651  30.436  0.00  0.00    +0.039 C 
ENDROOT
BRANCH   9  13
ATOM     13  C   UNL     1      11.399  -8.290  31.940  0.00  0.00    -0.013 C 
ATOM     18  C   UNL     1      10.850  -9.433  32.789  0.00  0.00    +0.007 C 
ATOM     19  C   UNL     1      11.694  -7.068  32.805  0.00  0.00    +0.007 C 
ENDBRANCH   9  13
BRANCH  10  16
ATOM     16  C   UNL     1      14.041  -6.609  31.385  0.00  0.00    +0.112 C 
BRANCH  16   6
ATOM      1  O   UNL     1      16.444  -5.311  30.502  0.00  0.00    -0.276 OA
ATOM      6  N   UNL     1      14.990  -5.926  32.206  0.00  0.00    -0.315 N 
ATOM     22  C   UNL     1      16.137  -5.320  31.691  0.00  0.00    +0.213 C 
ATOM     35  H   UNL     1      14.787  -5.827  33.197  0.00  0.00    +0.149 HD
BRANCH  22  25
ATOM     25  C   UNL     1      16.989  -4.690  32.779  0.00  0.00    +0.096 C 
BRANCH  25  27
ATOM     27  C   UNL     1      17.225  -3.192  32.585  0.00  0.00    +0.020 C 
BRANCH  27  31
ATOM     31  C   UNL     1      16.078  -2.514  31.835  0.00  0.00    +0.121 C 
BRANCH  31  33
ATOM      5  O   UNL     1      16.369  -1.833  29.516  0.00  0.00    -0.251 OA
ATOM     33  C   UNL     1      16.581  -1.644  30.705  0.00  0.00    +0.305 C 
BRANCH  33   4
ATOM      4  O   UNL     1      17.312  -0.599  31.172  0.00  0.00    -0.481 OA
ATOM     37  H   UNL     1      16.778  -0.006  31.742  0.00  0.00    +0.295 HD
ENDBRANCH  33   4
ENDBRANCH  31  33
ENDBRANCH  27  31
ENDBRANCH  25  27
ENDBRANCH  22  25
ENDBRANCH  16   6
ENDBRANCH  10  16
BRANCH  12  17
ATOM     17  C   UNL     1      13.724 -10.765  28.937  0.00  0.00    +0.082 C 
BRANCH  17  21
ATOM      7  N   UNL     1      14.236  -8.422  28.224  0.00  0.00    -0.342 N 
ATOM      8  N   UNL     1      15.697  -9.970  27.588  0.00  0.00    -0.232 NA
ATOM     21  C   UNL     1      14.578  -9.745  28.238  0.00  0.00    +0.109 A 
ATOM     23  C   UNL     1      15.199  -7.748  27.517  0.00  0.00    +0.067 A 
ATOM     24  C   UNL     1      16.099  -8.736  27.131  0.00  0.00    +0.089 A 
ATOM     26  C   UNL     1      15.354  -6.400  27.192  0.00  0.00    +0.042 A 
ATOM     28  C   UNL     1      17.229  -8.377  26.375  0.00  0.00    +0.030 A 
ATOM     29  C   UNL     1      16.483  -6.060  26.440  0.00  0.00    +0.061 A 
ATOM     30  C   UNL     1      17.405  -7.030  26.038  0.00  0.00    +0.017 A 
ATOM     36  H   UNL     1      13.417  -8.010  28.654  0.00  0.00    +0.167 HD
BRANCH  29  32
ATOM      3  O   UNL     1      17.117  -3.797  26.841  0.00  0.00    -0.245 OA
ATOM     32  C   UNL     1      16.700  -4.669  26.069  0.00  0.00    +0.339 C 
BRANCH  32   2
ATOM      2  O   UNL     1      16.383  -4.444  24.757  0.00  0.00    -0.464 OA
ATOM     34  C   UNL     1      16.480  -3.094  24.293  0.00  0.00    +0.280 C 
ENDBRANCH  32   2
ENDBRANCH  29  32
ENDBRANCH  17  21
ENDBRANCH  12  17
TORSDOF 12
ENDMDL
MODEL 2
REMARK VINA RESULT:      -1.5     18.081     20.011
REMARK  Name = 71693206
REMARK  16 active torsions:
REMARK  status: ('A' for Active; 'I' for Inactive)
REMARK    1  A    between atoms: O_2  and  C_32
REMARK    2  A    between atoms: O_2  and  C_34
REMARK    3  A    between atoms: O_4  and  C_33
REMARK    4  A    between atoms: N_6  and  C_16
REMARK    5  A    between atoms: C_9  and  C_13
REMARK    6  A    between atoms: C_10  and  C_16
REMARK    7  A    between atoms: C_12  and  C_17
REMARK    8  A    between atoms: C_13  and  C_18
REMARK    9  A    between atoms: C_13  and  C_19
REMARK   10  A    between atoms: C_14  and  C_20
REMARK   11  A    between atoms: C_17  and  C_21
REMARK   12  A    between atoms: C_22  and  C_25
REMARK   13  A    between atoms: C_25  and  C_27
REMARK   14  A    between atoms: C_27  and  C_31
REMARK   15  A    between atoms: C_29  and  C_32
REMARK   16  A    between atoms: C_31  and  C_33
REMARK                            x       y       z     vdW  Elec       q    Type
REMARK                         _______ _______ _______ _____ _____    ______ ____
ROOT
ATOM      9  C   UNL     1      -4.275   3.143  25.380  0.00  0.00    +0.000 C 
ATOM     10  C   UNL     1      -3.974   3.664  23.954  0.00  0.00    +0.032 C 
ATOM     11  C   UNL     1      -3.698   4.100  26.435  0.00  0.00    +0.012 C 
ATOM     12  C   UNL     1      -2.175   4.275  26.291  0.00  0.00    +0.022 C 
ATOM     14  C   UNL     1      -1.771   4.528  24.852  0.00  0.00    -0.073 C 
ATOM     15  C   UNL     1      -2.592   4.262  23.822  0.00  0.00    -0.022 C 
ATOM     20  C   UNL     1      -0.415   5.139  24.628  0.00  0.00    +0.039 C 
ENDROOT
BRANCH   9  13
ATOM     13  C   UNL     1      -5.778   2.960  25.613  0.00  0.00    -0.013 C 
ATOM     18  C   UNL     1      -6.024   2.027  26.795  0.00  0.00    +0.007 C 
ATOM     19  C   UNL     1      -6.450   4.310  25.841  0.00  0.00    +0.007 C 
ENDBRANCH   9  13
BRANCH  10  16
ATOM     16  C   UNL     1      -4.151   2.554  22.910  0.00  0.00    +0.112 C 
BRANCH  16   6
ATOM      1  O   UNL     1      -5.539   0.314  24.046  0.00  0.00    -0.276 OA
ATOM      6  N   UNL     1      -3.566   1.333  23.364  0.00  0.00    -0.315 N 
ATOM     22  C   UNL     1      -4.319   0.290  23.906  0.00  0.00    +0.213 C 
ATOM     35  H   UNL     1      -2.568   1.197  23.229  0.00  0.00    +0.149 HD
BRANCH  22  25
ATOM     25  C   UNL     1      -3.451  -0.880  24.336  0.00  0.00    +0.096 C 
BRANCH  25  27
ATOM     27  C   UNL     1      -3.475  -1.144  25.841  0.00  0.00    +0.020 C 
BRANCH  27  31
ATOM     31  C   UNL     1      -2.074  -1.346  26.420  0.00  0.00    +0.121 C 
BRANCH  31  33
ATOM      5  O   UNL     1      -1.543  -2.819  24.556  0.00  0.00    -0.251 OA
ATOM     33  C   UNL     1      -1.170  -2.086  25.460  0.00  0.00    +0.305 C 
BRANCH  33   4
ATOM      4  O   UNL     1       0.140  -1.836  25.720  0.00  0.00    -0.481 OA
ATOM     37  H   UNL     1       0.603  -1.464  24.940  0.00  0.00    +0.295 HD
ENDBRANCH  33   4
ENDBRANCH  31  33
ENDBRANCH  27  31
ENDBRANCH  25  27
ENDBRANCH  22  25
ENDBRANCH  16   6
ENDBRANCH  10  16
BRANCH  12  17
ATOM     17  C   UNL     1      -1.423   3.071  26.868  0.00  0.00    +0.082 C 
BRANCH  17  21
ATOM      7  N   UNL     1       0.639   2.410  25.614  0.00  0.00    -0.342 N 
ATOM      8  N   UNL     1      -1.256   1.473  24.927  0.00  0.00    -0.232 NA
ATOM     21  C   UNL     1      -0.712   2.301  25.791  0.00  0.00    +0.109 A 
ATOM     23  C   UNL     1       0.990   1.597  24.566  0.00  0.00    +0.067 A 
ATOM     24  C   UNL     1      -0.210   1.024  24.156  0.00  0.00    +0.089 A 
ATOM     26  C   UNL     1       2.217   1.323  23.962  0.00  0.00    +0.042 A 
ATOM     28  C   UNL     1      -0.205   0.121  23.079  0.00  0.00    +0.030 A 
ATOM     29  C   UNL     1       2.204   0.422  22.892  0.00  0.00    +0.061 A 
ATOM     30  C   UNL     1       1.016  -0.170  22.456  0.00  0.00    +0.017 A 
ATOM     36  H   UNL     1       1.269   2.988  26.155  0.00  0.00    +0.167 HD
BRANCH  29  32
ATOM      3  O   UNL     1       3.716   0.394  21.048  0.00  0.00    -0.245 OA
ATOM     32  C   UNL     1       3.454   0.096  22.220  0.00  0.00    +0.339 C 
BRANCH  32   2
ATOM      2  O   UNL     1       4.307  -0.582  23.048  0.00  0.00    -0.464 OA
ATOM     34  C   UNL     1       5.525   0.081  23.403  0.00  0.00    +0.280 C 
ENDBRANCH  32   2
ENDBRANCH  29  32
ENDBRANCH  17  21
ENDBRANCH  12  17
TORSDOF 12
ENDMDL
MODEL 3
REMARK VINA RESULT:      -1.3     17.854     19.524
REMARK  Name = 71693206
REMARK  16 active torsions:
REMARK  status: ('A' for Active; 'I' for Inactive)
REMARK    1  A    between atoms: O_2  and  C_32
REMARK    2  A    between atoms: O_2  and  C_34
REMARK    3  A    between atoms: O_4  and  C_33
REMARK    4  A    between atoms: N_6  and  C_16
REMARK    5  A    between atoms: C_9  and  C_13
REMARK    6  A    between atoms: C_10  and  C_16
REMARK    7  A    between atoms: C_12  and  C_17
REMARK    8  A    between atoms: C_13  and  C_18
REMARK    9  A    between atoms: C_13  and  C_19
REMARK   10  A    between atoms: C_14  and  C_20
REMARK   11  A    between atoms: C_17  and  C_21
REMARK   12  A    between atoms: C_22  and  C_25
REMARK   13  A    between atoms: C_25  and  C_27
REMARK   14  A    between atoms: C_27  and  C_31
REMARK   15  A    between atoms: C_29  and  C_32
REMARK   16  A    between atoms: C_31  and  C_33
REMARK                            x       y       z     vdW  Elec       q    Type
REMARK                         _______ _______ _______ _____ _____    ______ ____
ROOT
ATOM      9  C   UNL     1      -3.537   2.343  24.152  0.00  0.00    +0.000 C 
ATOM     10  C   UNL     1      -4.271   3.473  24.915  0.00  0.00    +0.032 C 
ATOM     11  C   UNL     1      -4.500   1.184  23.852  0.00  0.00    +0.012 C 
ATOM     12  C   UNL     1      -5.113   0.590  25.133  0.00  0.00    +0.022 C 
ATOM     14  C   UNL     1      -5.621   1.669  26.068  0.00  0.00    -0.073 C 
ATOM     15  C   UNL     1      -5.245   2.954  25.947  0.00  0.00    -0.022 C 
ATOM     20  C   UNL     1      -6.611   1.244  27.118  0.00  0.00    +0.039 C 
ENDROOT
BRANCH   9  13
ATOM     13  C   UNL     1      -2.913   2.850  22.848  0.00  0.00    -0.013 C 
ATOM     18  C   UNL     1      -2.446   1.677  21.991  0.00  0.00    +0.007 C 
ATOM     19  C   UNL     1      -3.909   3.716  22.083  0.00  0.00    +0.007 C 
ENDBRANCH   9  13
BRANCH  10  16
ATOM     16  C   UNL     1      -3.274   4.424  25.588  0.00  0.00    +0.112 C 
BRANCH  16   6
ATOM      1  O   UNL     1      -0.629   5.135  24.730  0.00  0.00    -0.276 OA
ATOM      6  N   UNL     1      -2.062   3.742  25.913  0.00  0.00    -0.315 N 
ATOM     22  C   UNL     1      -0.812   4.158  25.450  0.00  0.00    +0.213 C 
ATOM     35  H   UNL     1      -2.108   2.957  26.557  0.00  0.00    +0.149 HD
BRANCH  22  25
ATOM     25  C   UNL     1       0.306   3.242  25.918  0.00  0.00    +0.096 C 
BRANCH  25  27
ATOM     27  C   UNL     1       0.180   2.816  27.380  0.00  0.00    +0.020 C 
BRANCH  27  31
ATOM     31  C   UNL     1       1.539   2.711  28.075  0.00  0.00    +0.121 C 
BRANCH  31  33
ATOM      5  O   UNL     1       0.584   2.916  30.304  0.00  0.00    -0.251 OA
ATOM     33  C   UNL     1       1.396   2.403  29.548  0.00  0.00    +0.305 C 
BRANCH  33   4
ATOM      4  O   UNL     1       2.295   1.466  29.948  0.00  0.00    -0.481 OA
ATOM     37  H   UNL     1       1.912   0.852  30.610  0.00  0.00    +0.295 HD
ENDBRANCH  33   4
ENDBRANCH  31  33
ENDBRANCH  27  31
ENDBRANCH  25  27
ENDBRANCH  22  25
ENDBRANCH  16   6
ENDBRANCH  10  16
BRANCH  12  17
ATOM     17  C   UNL     1      -4.116  -0.329  25.848  0.00  0.00    +0.082 C 
BRANCH  17  21
ATOM      7  N   UNL     1      -1.836   0.539  25.296  0.00  0.00    -0.342 N 
ATOM      8  N   UNL     1      -2.449  -1.317  24.239  0.00  0.00    -0.232 NA
ATOM     21  C   UNL     1      -2.810  -0.401  25.110  0.00  0.00    +0.109 A 
ATOM     23  C   UNL     1      -0.774   0.207  24.492  0.00  0.00    +0.067 A 
ATOM     24  C   UNL     1      -1.182  -0.955  23.844  0.00  0.00    +0.089 A 
ATOM     26  C   UNL     1       0.469   0.806  24.284  0.00  0.00    +0.042 A 
ATOM     28  C   UNL     1      -0.311  -1.571  22.929  0.00  0.00    +0.030 A 
ATOM     29  C   UNL     1       1.323   0.180  23.370  0.00  0.00    +0.061 A 
ATOM     30  C   UNL     1       0.942  -0.988  22.704  0.00  0.00    +0.017 A 
ATOM     36  H   UNL     1      -1.886   1.340  25.912  0.00  0.00    +0.167 HD
BRANCH  29  32
ATOM      3  O   UNL     1       2.864   1.971  23.057  0.00  0.00    -0.245 OA
ATOM     32  C   UNL     1       2.634   0.758  23.110  0.00  0.00    +0.339 C 
BRANCH  32   2
ATOM      2  O   UNL     1       3.583  -0.212  22.932  0.00  0.00    -0.464 OA
ATOM     34  C   UNL     1       4.939   0.154  23.206  0.00  0.00    +0.280 C 
ENDBRANCH  32   2
ENDBRANCH  29  32
ENDBRANCH  17  21
ENDBRANCH  12  17
TORSDOF 12
ENDMDL
MODEL 4
REMARK VINA RESULT:      -0.0     17.862     20.000
REMARK  Name = 71693206
REMARK  16 active torsions:
REMARK  status: ('A' for Active; 'I' for Inactive)
REMARK    1  A    between atoms: O_2  and  C_32
REMARK    2  A    between atoms: O_2  and  C_34
REMARK    3  A    between atoms: O_4  and  C_33
REMARK    4  A    between atoms: N_6  and  C_16
REMARK    5  A    between atoms: C_9  and  C_13
REMARK    6  A    between atoms: C_10  and  C_16
REMARK    7  A    between atoms: C_12  and  C_17
REMARK    8  A    between atoms: C_13  and  C_18
REMARK    9  A    between atoms: C_13  and  C_19
REMARK   10  A    between atoms: C_14  and  C_20
REMARK   11  A    between atoms: C_17  and  C_21
REMARK   12  A    between atoms: C_22  and  C_25
REMARK   13  A    between atoms: C_25  and  C_27
REMARK   14  A    between atoms: C_27  and  C_31
REMARK   15  A    between atoms: C_29  and  C_32
REMARK   16  A    between atoms: C_31  and  C_33
REMARK                            x       y       z     vdW  Elec       q    Type
REMARK                         _______ _______ _______ _____ _____    ______ ____
ROOT
ATOM      9  C   UNL     1      -2.757   2.737  23.799  0.00  0.00    +0.000 C 
ATOM     10  C   UNL     1      -1.526   3.147  24.645  0.00  0.00    +0.032 C 
ATOM     11  C   UNL     1      -3.849   3.813  23.883  0.00  0.00    +0.012 C 
ATOM     12  C   UNL     1      -4.313   4.061  25.330  0.00  0.00    +0.022 C 
ATOM     14  C   UNL     1      -3.141   4.210  26.279  0.00  0.00    -0.073 C 
ATOM     15  C   UNL     1      -1.901   3.808  25.951  0.00  0.00    -0.022 C 
ATOM     20  C   UNL     1      -3.419   4.874  27.600  0.00  0.00    +0.039 C 
ENDROOT
BRANCH   9  13
ATOM     13  C   UNL     1      -2.383   2.490  22.334  0.00  0.00    -0.013 C 
ATOM     18  C   UNL     1      -2.303   0.993  22.050  0.00  0.00    +0.007 C 
ATOM     19  C   UNL     1      -3.390   3.164  21.407  0.00  0.00    +0.007 C 
ENDBRANCH   9  13
BRANCH  10  16
ATOM     16  C   UNL     1      -0.620   1.942  24.924  0.00  0.00    +0.112 C 
BRANCH  16   6
ATOM      1  O   UNL     1       0.746   0.058  23.244  0.00  0.00    -0.276 OA
ATOM      6  N   UNL     1       0.660   2.118  24.314  0.00  0.00    -0.315 N 
ATOM     22  C   UNL     1       1.252   1.145  23.508  0.00  0.00    +0.213 C 
ATOM     35  H   UNL     1       1.128   3.013  24.424  0.00  0.00    +0.149 HD
BRANCH  22  25
ATOM     25  C   UNL     1       2.623   1.571  23.010  0.00  0.00    +0.096 C 
BRANCH  25  27
ATOM     27  C   UNL     1       3.428   0.435  22.378  0.00  0.00    +0.020 C 
BRANCH  27  31
ATOM     31  C   UNL     1       4.854   0.359  22.923  0.00  0.00    +0.121 C 
BRANCH  31  33
ATOM      5  O   UNL     1       5.871  -0.742  24.841  0.00  0.00    -0.251 OA
ATOM     33  C   UNL     1       4.992  -0.701  23.992  0.00  0.00    +0.305 C 
BRANCH  33   4
ATOM      4  O   UNL     1       4.002  -1.627  23.903  0.00  0.00    -0.481 OA
ATOM     37  H   UNL     1       3.607  -1.654  23.005  0.00  0.00    +0.295 HD
ENDBRANCH  33   4
ENDBRANCH  31  33
ENDBRANCH  27  31
ENDBRANCH  25  27
ENDBRANCH  22  25
ENDBRANCH  16   6
ENDBRANCH  10  16
BRANCH  12  17
ATOM     17  C   UNL     1      -5.264   2.956  25.803  0.00  0.00    +0.082 C 
BRANCH  17  21
ATOM      7  N   UNL     1      -3.557   1.134  25.644  0.00  0.00    -0.342 N 
ATOM      8  N   UNL     1      -5.494   0.740  24.629  0.00  0.00    -0.232 NA
ATOM     21  C   UNL     1      -4.804   1.603  25.341  0.00  0.00    +0.109 A 
ATOM     23  C   UNL     1      -3.433  -0.115  25.090  0.00  0.00    +0.067 A 
ATOM     24  C   UNL     1      -4.655  -0.337  24.463  0.00  0.00    +0.089 A 
ATOM     26  C   UNL     1      -2.388  -1.039  25.085  0.00  0.00    +0.042 A 
ATOM     28  C   UNL     1      -4.865  -1.550  23.784  0.00  0.00    +0.030 A 
ATOM     29  C   UNL     1      -2.614  -2.240  24.405  0.00  0.00    +0.061 A 
ATOM     30  C   UNL     1      -3.831  -2.494  23.766  0.00  0.00    +0.017 A 
ATOM     36  H   UNL     1      -2.847   1.621  26.177  0.00  0.00    +0.167 HD
BRANCH  29  32
ATOM      3  O   UNL     1      -1.378  -4.027  23.424  0.00  0.00    -0.245 OA
ATOM     32  C   UNL     1      -1.561  -3.245  24.364  0.00  0.00    +0.339 C 
BRANCH  32   2
ATOM      2  O   UNL     1      -0.797  -3.217  25.498  0.00  0.00    -0.464 OA
ATOM     34  C   UNL     1       0.474  -2.565  25.404  0.00  0.00    +0.280 C 
ENDBRANCH  32   2
ENDBRANCH  29  32
ENDBRANCH  17  21
ENDBRANCH  12  17
TORSDOF 12
ENDMDL
