MODEL 1
REMARK VINA RESULT:      -4.1      0.000      0.000
REMARK  Name = 75536987
REMARK  3 active torsions:
REMARK  status: ('A' for Active; 'I' for Inactive)
REMARK    1  A    between atoms: N_5  and  C_13
REMARK    2  A    between atoms: C_13  and  C_15
REMARK    3  A    between atoms: C_14  and  C_16
REMARK                            x       y       z     vdW  Elec       q    Type
REMARK                         _______ _______ _______ _____ _____    ______ ____
ROOT
ATOM      2  O   UNL     1      -8.604  -9.220   9.952  0.00  0.00    -0.252 OA
ATOM      3  O   UNL     1      -1.757 -10.031  11.083  0.00  0.00    -0.270 OA
ATOM      4  N   UNL     1      -6.574  -9.439  11.116  0.00  0.00    -0.278 N 
ATOM      5  N   UNL     1      -8.491  -9.592  12.278  0.00  0.00    -0.279 N 
ATOM      6  N   UNL     1      -4.003 -10.351  11.644  0.00  0.00    -0.294 N 
ATOM      7  C   UNL     1      -6.155  -9.546  12.503  0.00  0.00    +0.112 C 
ATOM      8  C   UNL     1      -7.447  -9.863  13.250  0.00  0.00    +0.133 C 
ATOM      9  C   UNL     1      -5.061 -10.599  12.643  0.00  0.00    +0.132 C 
ATOM     10  C   UNL     1      -5.578  -9.292  10.068  0.00  0.00    +0.128 C 
ATOM     11  C   UNL     1      -4.471 -10.328  10.251  0.00  0.00    +0.127 C 
ATOM     12  C   UNL     1      -7.969  -9.391  10.985  0.00  0.00    +0.306 C 
ATOM     14  C   UNL     1      -2.644 -10.194  11.919  0.00  0.00    +0.247 C 
ENDROOT
BRANCH  14  16
ATOM     16  C   UNL     1      -2.217 -10.209  13.325  0.00  0.00    +0.037 A 
ATOM     19  C   UNL     1      -0.941  -9.766  13.671  0.00  0.00    +0.013 A 
ATOM     20  C   UNL     1      -3.089 -10.665  14.313  0.00  0.00    +0.013 A 
ATOM     24  C   UNL     1      -0.536  -9.779  15.007  0.00  0.00    +0.001 A 
ATOM     25  C   UNL     1      -2.685 -10.679  15.648  0.00  0.00    +0.001 A 
ATOM     26  C   UNL     1      -1.409 -10.236  15.994  0.00  0.00    +0.000 A 
ENDBRANCH  14  16
BRANCH   5  13
ATOM     13  C   UNL     1      -9.895  -9.667  12.621  0.00  0.00    +0.144 C 
BRANCH  13  15
ATOM      1  F   UNL     1     -10.719  -9.397  18.183  0.00  0.00    -0.205 F 
ATOM     15  C   UNL     1     -10.115  -9.595  14.103  0.00  0.00    -0.030 A 
ATOM     17  C   UNL     1     -10.319  -8.360  14.719  0.00  0.00    +0.008 A 
ATOM     18  C   UNL     1     -10.114 -10.762  14.866  0.00  0.00    +0.008 A 
ATOM     21  C   UNL     1     -10.523  -8.294  16.098  0.00  0.00    +0.038 A 
ATOM     22  C   UNL     1     -10.318 -10.696  16.244  0.00  0.00    +0.038 A 
ATOM     23  C   UNL     1     -10.522  -9.462  16.860  0.00  0.00    +0.123 A 
ENDBRANCH  13  15
ENDBRANCH   5  13
TORSDOF 3
ENDMDL
MODEL 2
REMARK VINA RESULT:      -2.3     24.690     26.899
REMARK  Name = 75536987
REMARK  3 active torsions:
REMARK  status: ('A' for Active; 'I' for Inactive)
REMARK    1  A    between atoms: N_5  and  C_13
REMARK    2  A    between atoms: C_13  and  C_15
REMARK    3  A    between atoms: C_14  and  C_16
REMARK                            x       y       z     vdW  Elec       q    Type
REMARK                         _______ _______ _______ _____ _____    ______ ____
ROOT
ATOM      2  O   UNL     1      17.293  -5.788  23.946  0.00  0.00    -0.252 OA
ATOM      3  O   UNL     1      15.402 -10.781  28.452  0.00  0.00    -0.270 OA
ATOM      4  N   UNL     1      16.851  -6.857  25.991  0.00  0.00    -0.278 N 
ATOM      5  N   UNL     1      17.185  -4.635  26.000  0.00  0.00    -0.279 N 
ATOM      6  N   UNL     1      15.561  -8.550  27.777  0.00  0.00    -0.294 N 
ATOM      7  C   UNL     1      16.836  -6.489  27.397  0.00  0.00    +0.112 C 
ATOM      8  C   UNL     1      16.847  -4.963  27.373  0.00  0.00    +0.133 C 
ATOM      9  C   UNL     1      15.627  -7.109  28.090  0.00  0.00    +0.132 C 
ATOM     10  C   UNL     1      16.691  -8.249  25.606  0.00  0.00    +0.128 C 
ATOM     11  C   UNL     1      15.502  -8.862  26.343  0.00  0.00    +0.127 C 
ATOM     12  C   UNL     1      17.134  -5.765  25.160  0.00  0.00    +0.306 C 
ATOM     14  C   UNL     1      15.502  -9.584  28.713  0.00  0.00    +0.247 C 
ENDROOT
BRANCH  14  16
ATOM     16  C   UNL     1      15.576  -9.232  30.137  0.00  0.00    +0.037 A 
ATOM     19  C   UNL     1      14.413  -8.923  30.841  0.00  0.00    +0.013 A 
ATOM     20  C   UNL     1      16.810  -9.209  30.786  0.00  0.00    +0.013 A 
ATOM     24  C   UNL     1      14.483  -8.592  32.195  0.00  0.00    +0.001 A 
ATOM     25  C   UNL     1      16.882  -8.877  32.139  0.00  0.00    +0.001 A 
ATOM     26  C   UNL     1      15.718  -8.568  32.843  0.00  0.00    +0.000 A 
ENDBRANCH  14  16
BRANCH   5  13
ATOM     13  C   UNL     1      17.405  -3.271  25.570  0.00  0.00    +0.144 C 
BRANCH  13  15
ATOM      1  F   UNL     1      14.001  -1.822  21.326  0.00  0.00    -0.205 F 
ATOM     15  C   UNL     1      16.498  -2.885  24.439  0.00  0.00    -0.030 A 
ATOM     17  C   UNL     1      16.998  -2.152  23.363  0.00  0.00    +0.008 A 
ATOM     18  C   UNL     1      15.154  -3.258  24.464  0.00  0.00    +0.008 A 
ATOM     21  C   UNL     1      16.154  -1.793  22.311  0.00  0.00    +0.038 A 
ATOM     22  C   UNL     1      14.310  -2.900  23.412  0.00  0.00    +0.038 A 
ATOM     23  C   UNL     1      14.811  -2.167  22.336  0.00  0.00    +0.123 A 
ENDBRANCH  13  15
ENDBRANCH   5  13
TORSDOF 3
ENDMDL
