MODEL 1
REMARK VINA RESULT:      -3.1      0.000      0.000
REMARK  Name = 45784268
REMARK  4 active torsions:
REMARK  status: ('A' for Active; 'I' for Inactive)
REMARK    1  A    between atoms: N_4  and  C_13
REMARK    2  A    between atoms: C_8  and  C_12
REMARK    3  A    between atoms: C_13  and  C_16
REMARK    4  A    between atoms: C_19  and  C_22
REMARK                            x       y       z     vdW  Elec       q    Type
REMARK                         _______ _______ _______ _____ _____    ______ ____
ROOT
ATOM      5  N   UNL     1       0.923   1.927  24.443  0.00  0.00    -0.342 N 
ATOM      6  N   UNL     1      -0.142   0.827  22.832  0.00  0.00    -0.232 NA
ATOM     12  C   UNL     1      -0.273   1.667  23.834  0.00  0.00    +0.113 A 
ATOM     14  C   UNL     1       1.891   1.209  23.791  0.00  0.00    +0.067 A 
ATOM     15  C   UNL     1       1.201   0.530  22.789  0.00  0.00    +0.089 A 
ATOM     17  C   UNL     1       3.268   1.097  23.985  0.00  0.00    +0.040 A 
ATOM     18  C   UNL     1       1.913  -0.315  21.921  0.00  0.00    +0.030 A 
ATOM     19  C   UNL     1       3.960   0.251  23.111  0.00  0.00    +0.057 A 
ATOM     21  C   UNL     1       3.296  -0.443  22.096  0.00  0.00    +0.014 A 
ATOM     26  H   UNL     1       1.071   2.540  25.234  0.00  0.00    +0.167 HD
ENDROOT
BRANCH  12   8
ATOM      4  N   UNL     1      -3.787   1.835  24.859  0.00  0.00    -0.296 NA
ATOM      8  C   UNL     1      -1.556   2.307  24.314  0.00  0.00    +0.070 C 
ATOM      9  C   UNL     1      -2.478   2.822  23.196  0.00  0.00    +0.028 C 
ATOM     10  C   UNL     1      -2.433   1.349  25.131  0.00  0.00    +0.096 C 
ATOM     11  C   UNL     1      -3.807   2.113  23.422  0.00  0.00    +0.085 C 
BRANCH   4  13
ATOM     13  C   UNL     1      -4.811   0.878  25.253  0.00  0.00    +0.139 C 
BRANCH  13  16
ATOM      7  N   UNL     1      -4.702  -1.115  23.862  0.00  0.00    -0.259 NA
ATOM     16  C   UNL     1      -4.361  -0.542  25.039  0.00  0.00    +0.055 A 
ATOM     20  C   UNL     1      -3.637  -1.183  26.031  0.00  0.00    +0.024 A 
ATOM     23  C   UNL     1      -3.235  -2.494  25.801  0.00  0.00    +0.003 A 
ATOM     24  C   UNL     1      -4.295  -2.390  23.674  0.00  0.00    +0.111 A 
ATOM     25  C   UNL     1      -3.566  -3.117  24.602  0.00  0.00    +0.020 A 
ENDBRANCH  13  16
ENDBRANCH   4  13
ENDBRANCH  12   8
BRANCH  19  22
ATOM      1  F   UNL     1       5.763  -0.900  24.149  0.00  0.00    -0.166 F 
ATOM      2  F   UNL     1       6.076  -0.230  22.104  0.00  0.00    -0.166 F 
ATOM      3  F   UNL     1       6.062   1.213  23.724  0.00  0.00    -0.166 F 
ATOM     22  C   UNL     1       5.436   0.089  23.268  0.00  0.00    +0.417 C 
ENDBRANCH  19  22
TORSDOF 4
ENDMDL
MODEL 2
REMARK VINA RESULT:      -2.4      1.515      3.334
REMARK  Name = 45784268
REMARK  4 active torsions:
REMARK  status: ('A' for Active; 'I' for Inactive)
REMARK    1  A    between atoms: N_4  and  C_13
REMARK    2  A    between atoms: C_8  and  C_12
REMARK    3  A    between atoms: C_13  and  C_16
REMARK    4  A    between atoms: C_19  and  C_22
REMARK                            x       y       z     vdW  Elec       q    Type
REMARK                         _______ _______ _______ _____ _____    ______ ____
ROOT
ATOM      5  N   UNL     1       0.447  -1.458  24.084  0.00  0.00    -0.342 N 
ATOM      6  N   UNL     1      -0.427   0.522  23.582  0.00  0.00    -0.232 NA
ATOM     12  C   UNL     1      -0.689  -0.709  23.960  0.00  0.00    +0.113 A 
ATOM     14  C   UNL     1       1.514  -0.659  23.767  0.00  0.00    +0.067 A 
ATOM     15  C   UNL     1       0.942   0.573  23.456  0.00  0.00    +0.089 A 
ATOM     17  C   UNL     1       2.888  -0.899  23.724  0.00  0.00    +0.040 A 
ATOM     18  C   UNL     1       1.777   1.639  23.080  0.00  0.00    +0.030 A 
ATOM     19  C   UNL     1       3.703   0.174  23.347  0.00  0.00    +0.057 A 
ATOM     21  C   UNL     1       3.159   1.422  23.031  0.00  0.00    +0.014 A 
ATOM     26  H   UNL     1       0.496  -2.430  24.362  0.00  0.00    +0.167 HD
ENDROOT
BRANCH  12   8
ATOM      4  N   UNL     1      -4.290  -0.717  24.636  0.00  0.00    -0.296 NA
ATOM      8  C   UNL     1      -2.053  -1.296  24.240  0.00  0.00    +0.070 C 
ATOM      9  C   UNL     1      -2.379  -1.492  25.731  0.00  0.00    +0.028 C 
ATOM     10  C   UNL     1      -3.200  -0.431  23.702  0.00  0.00    +0.096 C 
ATOM     11  C   UNL     1      -3.665  -0.709  25.960  0.00  0.00    +0.085 C 
BRANCH   4  13
ATOM     13  C   UNL     1      -5.379   0.245  24.532  0.00  0.00    +0.139 C 
BRANCH  13  16
ATOM      7  N   UNL     1      -3.900   2.075  23.912  0.00  0.00    -0.259 NA
ATOM     16  C   UNL     1      -4.897   1.658  24.725  0.00  0.00    +0.055 A 
ATOM     20  C   UNL     1      -5.482   2.447  25.701  0.00  0.00    +0.024 A 
ATOM     23  C   UNL     1      -5.015   3.749  25.853  0.00  0.00    +0.003 A 
ATOM     24  C   UNL     1      -3.473   3.345  24.088  0.00  0.00    +0.111 A 
ATOM     25  C   UNL     1      -3.992   4.214  25.034  0.00  0.00    +0.020 A 
ENDBRANCH  13  16
ENDBRANCH   4  13
ENDBRANCH  12   8
BRANCH  19  22
ATOM      1  F   UNL     1       5.866   0.940  23.969  0.00  0.00    -0.166 F 
ATOM      2  F   UNL     1       5.599  -1.212  23.802  0.00  0.00    -0.166 F 
ATOM      3  F   UNL     1       5.680   0.010  22.012  0.00  0.00    -0.166 F 
ATOM     22  C   UNL     1       5.182  -0.020  23.283  0.00  0.00    +0.417 C 
ENDBRANCH  19  22
TORSDOF 4
ENDMDL
MODEL 3
REMARK VINA RESULT:      -1.5     14.962     17.426
REMARK  Name = 45784268
REMARK  4 active torsions:
REMARK  status: ('A' for Active; 'I' for Inactive)
REMARK    1  A    between atoms: N_4  and  C_13
REMARK    2  A    between atoms: C_8  and  C_12
REMARK    3  A    between atoms: C_13  and  C_16
REMARK    4  A    between atoms: C_19  and  C_22
REMARK                            x       y       z     vdW  Elec       q    Type
REMARK                         _______ _______ _______ _____ _____    ______ ____
ROOT
ATOM      5  N   UNL     1      -8.438 -10.181  13.376  0.00  0.00    -0.342 N 
ATOM      6  N   UNL     1      -6.260  -9.946  13.749  0.00  0.00    -0.232 NA
ATOM     12  C   UNL     1      -7.186 -10.112  12.832  0.00  0.00    +0.113 A 
ATOM     14  C   UNL     1      -8.312 -10.049  14.735  0.00  0.00    +0.067 A 
ATOM     15  C   UNL     1      -6.943  -9.904  14.942  0.00  0.00    +0.089 A 
ATOM     17  C   UNL     1      -9.249 -10.046  15.768  0.00  0.00    +0.040 A 
ATOM     18  C   UNL     1      -6.463  -9.744  16.254  0.00  0.00    +0.030 A 
ATOM     19  C   UNL     1      -8.753  -9.887  17.067  0.00  0.00    +0.057 A 
ATOM     21  C   UNL     1      -7.385  -9.738  17.307  0.00  0.00    +0.014 A 
ATOM     26  H   UNL     1      -9.305 -10.306  12.870  0.00  0.00    +0.167 HD
ENDROOT
BRANCH  12   8
ATOM      4  N   UNL     1      -5.430  -9.754   9.636  0.00  0.00    -0.296 NA
ATOM      8  C   UNL     1      -6.970 -10.224  11.340  0.00  0.00    +0.070 C 
ATOM      9  C   UNL     1      -7.459  -9.014  10.524  0.00  0.00    +0.028 C 
ATOM     10  C   UNL     1      -5.492 -10.379  10.958  0.00  0.00    +0.096 C 
ATOM     11  C   UNL     1      -6.234  -8.537   9.755  0.00  0.00    +0.085 C 
BRANCH   4  13
ATOM     13  C   UNL     1      -4.063  -9.476   9.216  0.00  0.00    +0.139 C 
BRANCH  13  16
ATOM      7  N   UNL     1      -2.002  -8.850  10.346  0.00  0.00    -0.259 NA
ATOM     16  C   UNL     1      -3.083  -9.664  10.342  0.00  0.00    +0.055 A 
ATOM     20  C   UNL     1      -3.324 -10.635  11.299  0.00  0.00    +0.024 A 
ATOM     23  C   UNL     1      -2.399 -10.781  12.328  0.00  0.00    +0.003 A 
ATOM     24  C   UNL     1      -1.125  -9.021  11.361  0.00  0.00    +0.111 A 
ATOM     25  C   UNL     1      -1.276  -9.963  12.366  0.00  0.00    +0.020 A 
ENDBRANCH  13  16
ENDBRANCH   4  13
ENDBRANCH  12   8
BRANCH  19  22
ATOM      1  F   UNL     1      -9.098 -10.161  19.403  0.00  0.00    -0.166 F 
ATOM      2  F   UNL     1     -10.324  -8.671  18.401  0.00  0.00    -0.166 F 
ATOM      3  F   UNL     1     -10.720 -10.781  18.093  0.00  0.00    -0.166 F 
ATOM     22  C   UNL     1      -9.706  -9.875  18.216  0.00  0.00    +0.417 C 
ENDBRANCH  19  22
TORSDOF 4
ENDMDL
MODEL 4
REMARK VINA RESULT:      -1.1      1.915      3.793
REMARK  Name = 45784268
REMARK  4 active torsions:
REMARK  status: ('A' for Active; 'I' for Inactive)
REMARK    1  A    between atoms: N_4  and  C_13
REMARK    2  A    between atoms: C_8  and  C_12
REMARK    3  A    between atoms: C_13  and  C_16
REMARK    4  A    between atoms: C_19  and  C_22
REMARK                            x       y       z     vdW  Elec       q    Type
REMARK                         _______ _______ _______ _____ _____    ______ ____
ROOT
ATOM      5  N   UNL     1      -0.874   0.466  23.436  0.00  0.00    -0.342 N 
ATOM      6  N   UNL     1      -0.769  -1.584  24.288  0.00  0.00    -0.232 NA
ATOM     12  C   UNL     1      -1.566  -0.597  23.945  0.00  0.00    +0.113 A 
ATOM     14  C   UNL     1       0.459   0.145  23.450  0.00  0.00    +0.067 A 
ATOM     15  C   UNL     1       0.498  -1.140  23.987  0.00  0.00    +0.089 A 
ATOM     17  C   UNL     1       1.598   0.845  23.054  0.00  0.00    +0.040 A 
ATOM     18  C   UNL     1       1.740  -1.778  24.143  0.00  0.00    +0.030 A 
ATOM     19  C   UNL     1       2.825   0.195  23.217  0.00  0.00    +0.057 A 
ATOM     21  C   UNL     1       2.898  -1.094  23.752  0.00  0.00    +0.014 A 
ATOM     26  H   UNL     1      -1.271   1.336  23.106  0.00  0.00    +0.167 HD
ENDROOT
BRANCH  12   8
ATOM      4  N   UNL     1      -4.866   0.800  24.708  0.00  0.00    -0.296 NA
ATOM      8  C   UNL     1      -3.072  -0.568  24.069  0.00  0.00    +0.070 C 
ATOM      9  C   UNL     1      -3.617  -1.036  25.430  0.00  0.00    +0.028 C 
ATOM     10  C   UNL     1      -3.662   0.836  23.877  0.00  0.00    +0.096 C 
ATOM     11  C   UNL     1      -4.455   0.129  25.941  0.00  0.00    +0.085 C 
BRANCH   4  13
ATOM     13  C   UNL     1      -5.411   2.128  24.954  0.00  0.00    +0.139 C 
BRANCH  13  16
ATOM      7  N   UNL     1      -3.956   3.472  26.367  0.00  0.00    -0.259 NA
ATOM     16  C   UNL     1      -4.325   3.159  25.104  0.00  0.00    +0.055 A 
ATOM     20  C   UNL     1      -3.767   3.727  23.971  0.00  0.00    +0.024 A 
ATOM     23  C   UNL     1      -2.764   4.676  24.143  0.00  0.00    +0.003 A 
ATOM     24  C   UNL     1      -2.979   4.398  26.496  0.00  0.00    +0.111 A 
ATOM     25  C   UNL     1      -2.357   5.023  25.426  0.00  0.00    +0.020 A 
ENDBRANCH  13  16
ENDBRANCH   4  13
ENDBRANCH  12   8
BRANCH  19  22
ATOM      1  F   UNL     1       5.040   0.851  23.781  0.00  0.00    -0.166 F 
ATOM      2  F   UNL     1       4.664   0.363  21.695  0.00  0.00    -0.166 F 
ATOM      3  F   UNL     1       3.902   2.216  22.526  0.00  0.00    -0.166 F 
ATOM     22  C   UNL     1       4.082   0.893  22.811  0.00  0.00    +0.417 C 
ENDBRANCH  19  22
TORSDOF 4
ENDMDL
MODEL 5
REMARK VINA RESULT:      -0.9      5.046      8.511
REMARK  Name = 45784268
REMARK  4 active torsions:
REMARK  status: ('A' for Active; 'I' for Inactive)
REMARK    1  A    between atoms: N_4  and  C_13
REMARK    2  A    between atoms: C_8  and  C_12
REMARK    3  A    between atoms: C_13  and  C_16
REMARK    4  A    between atoms: C_19  and  C_22
REMARK                            x       y       z     vdW  Elec       q    Type
REMARK                         _______ _______ _______ _____ _____    ______ ____
ROOT
ATOM      5  N   UNL     1      -2.409   0.162  24.183  0.00  0.00    -0.342 N 
ATOM      6  N   UNL     1      -0.949   1.819  24.431  0.00  0.00    -0.232 NA
ATOM     12  C   UNL     1      -1.110   0.570  24.058  0.00  0.00    +0.113 A 
ATOM     14  C   UNL     1      -3.135   1.219  24.668  0.00  0.00    +0.067 A 
ATOM     15  C   UNL     1      -2.201   2.241  24.815  0.00  0.00    +0.089 A 
ATOM     17  C   UNL     1      -4.487   1.363  24.983  0.00  0.00    +0.040 A 
ATOM     18  C   UNL     1      -2.625   3.489  25.302  0.00  0.00    +0.030 A 
ATOM     19  C   UNL     1      -4.889   2.612  25.468  0.00  0.00    +0.057 A 
ATOM     21  C   UNL     1      -3.976   3.658  25.625  0.00  0.00    +0.014 A 
ATOM     26  H   UNL     1      -2.773  -0.755  23.959  0.00  0.00    +0.167 HD
ENDROOT
BRANCH  12   8
ATOM      4  N   UNL     1       2.022  -0.408  22.427  0.00  0.00    -0.296 NA
ATOM      8  C   UNL     1      -0.039  -0.365  23.544  0.00  0.00    +0.070 C 
ATOM      9  C   UNL     1      -0.246  -0.854  22.101  0.00  0.00    +0.028 C 
ATOM     10  C   UNL     1       1.359   0.269  23.543  0.00  0.00    +0.096 C 
ATOM     11  C   UNL     1       1.021  -0.448  21.360  0.00  0.00    +0.085 C 
BRANCH   4  13
ATOM     13  C   UNL     1       3.245   0.267  22.016  0.00  0.00    +0.139 C 
BRANCH  13  16
ATOM      7  N   UNL     1       4.497  -1.272  23.423  0.00  0.00    -0.259 NA
ATOM     16  C   UNL     1       4.382  -0.006  22.963  0.00  0.00    +0.055 A 
ATOM     20  C   UNL     1       5.237   1.026  23.313  0.00  0.00    +0.024 A 
ATOM     23  C   UNL     1       6.279   0.740  24.189  0.00  0.00    +0.003 A 
ATOM     24  C   UNL     1       5.520  -1.513  24.273  0.00  0.00    +0.111 A 
ATOM     25  C   UNL     1       6.430  -0.551  24.682  0.00  0.00    +0.020 A 
ENDBRANCH  13  16
ENDBRANCH   4  13
ENDBRANCH  12   8
BRANCH  19  22
ATOM      1  F   UNL     1      -6.681   4.146  25.771  0.00  0.00    -0.166 F 
ATOM      2  F   UNL     1      -7.195   2.179  24.997  0.00  0.00    -0.166 F 
ATOM      3  F   UNL     1      -6.643   2.410  27.082  0.00  0.00    -0.166 F 
ATOM     22  C   UNL     1      -6.324   2.830  25.822  0.00  0.00    +0.417 C 
ENDBRANCH  19  22
TORSDOF 4
ENDMDL
MODEL 6
REMARK VINA RESULT:      -0.1     14.135     16.016
REMARK  Name = 45784268
REMARK  4 active torsions:
REMARK  status: ('A' for Active; 'I' for Inactive)
REMARK    1  A    between atoms: N_4  and  C_13
REMARK    2  A    between atoms: C_8  and  C_12
REMARK    3  A    between atoms: C_13  and  C_16
REMARK    4  A    between atoms: C_19  and  C_22
REMARK                            x       y       z     vdW  Elec       q    Type
REMARK                         _______ _______ _______ _____ _____    ______ ____
ROOT
ATOM      5  N   UNL     1      -2.408  -9.303  13.195  0.00  0.00    -0.342 N 
ATOM      6  N   UNL     1      -2.502 -10.322  11.222  0.00  0.00    -0.232 NA
ATOM     12  C   UNL     1      -3.103 -10.151  12.378  0.00  0.00    +0.113 A 
ATOM     14  C   UNL     1      -1.284  -8.899  12.521  0.00  0.00    +0.067 A 
ATOM     15  C   UNL     1      -1.366  -9.549  11.292  0.00  0.00    +0.089 A 
ATOM     17  C   UNL     1      -0.235  -8.048  12.870  0.00  0.00    +0.040 A 
ATOM     18  C   UNL     1      -0.349  -9.347  10.343  0.00  0.00    +0.030 A 
ATOM     19  C   UNL     1       0.768  -7.861  11.914  0.00  0.00    +0.057 A 
ATOM     21  C   UNL     1       0.713  -8.498  10.672  0.00  0.00    +0.014 A 
ATOM     26  H   UNL     1      -2.672  -9.021  14.130  0.00  0.00    +0.167 HD
ENDROOT
BRANCH  12   8
ATOM      4  N   UNL     1      -6.698 -10.363  13.049  0.00  0.00    -0.296 NA
ATOM      8  C   UNL     1      -4.403 -10.781  12.823  0.00  0.00    +0.070 C 
ATOM      9  C   UNL     1      -4.744 -10.576  14.309  0.00  0.00    +0.028 C 
ATOM     10  C   UNL     1      -5.622 -10.238  12.066  0.00  0.00    +0.096 C 
ATOM     11  C   UNL     1      -6.113  -9.908  14.311  0.00  0.00    +0.085 C 
BRANCH   4  13
ATOM     13  C   UNL     1      -7.881  -9.598  12.680  0.00  0.00    +0.139 C 
BRANCH  13  16
ATOM      7  N   UNL     1      -7.624  -8.662  10.449  0.00  0.00    -0.259 NA
ATOM     16  C   UNL     1      -8.147  -9.658  11.199  0.00  0.00    +0.055 A 
ATOM     20  C   UNL     1      -8.895 -10.704  10.685  0.00  0.00    +0.024 A 
ATOM     23  C   UNL     1      -9.120 -10.731   9.313  0.00  0.00    +0.003 A 
ATOM     24  C   UNL     1      -7.864  -8.721   9.120  0.00  0.00    +0.111 A 
ATOM     25  C   UNL     1      -8.599  -9.725   8.508  0.00  0.00    +0.020 A 
ENDBRANCH  13  16
ENDBRANCH   4  13
ENDBRANCH  12   8
BRANCH  19  22
ATOM      1  F   UNL     1       2.959  -7.121  11.361  0.00  0.00    -0.166 F 
ATOM      2  F   UNL     1       1.601  -5.634  12.181  0.00  0.00    -0.166 F 
ATOM      3  F   UNL     1       2.441  -7.161  13.473  0.00  0.00    -0.166 F 
ATOM     22  C   UNL     1       1.918  -6.961  12.228  0.00  0.00    +0.417 C 
ENDBRANCH  19  22
TORSDOF 4
ENDMDL
