MODEL 1
REMARK VINA RESULT:       4.1      0.000      0.000
REMARK  Name = 11941543
REMARK  7 active torsions:
REMARK  status: ('A' for Active; 'I' for Inactive)
REMARK    1  A    between atoms: O_6  and  C_24
REMARK    2  A    between atoms: O_6  and  C_29
REMARK    3  A    between atoms: O_7  and  C_33
REMARK    4  A    between atoms: N_10  and  C_12
REMARK    5  A    between atoms: C_20  and  C_24
REMARK    6  A    between atoms: C_23  and  C_26
REMARK    7  A    between atoms: C_29  and  C_33
REMARK                            x       y       z     vdW  Elec       q    Type
REMARK                         _______ _______ _______ _____ _____    ______ ____
ROOT
ATOM      3  O   UNL     1      -4.714  -1.145  25.093  0.00  0.00    -0.273 OA
ATOM      4  O   UNL     1      -1.304   1.371  21.963  0.00  0.00    -0.270 OA
ATOM      9  N   UNL     1      -2.862   1.161  23.642  0.00  0.00    -0.284 N 
ATOM     11  N   UNL     1      -2.511  -1.565  24.690  0.00  0.00    -0.283 N 
ATOM     12  C   UNL     1      -4.456   1.651  25.319  0.00  0.00    +0.104 C 
ATOM     13  C   UNL     1      -3.248   0.765  24.983  0.00  0.00    +0.183 C 
ATOM     14  C   UNL     1      -5.054   1.972  23.948  0.00  0.00    +0.043 C 
ATOM     15  C   UNL     1      -3.834   2.066  23.045  0.00  0.00    +0.111 C 
ATOM     16  C   UNL     1      -3.577  -0.713  24.894  0.00  0.00    +0.240 C 
ATOM     17  C   UNL     1      -1.656   0.880  23.036  0.00  0.00    +0.249 C 
ATOM     18  C   UNL     1      -0.746  -0.085  23.703  0.00  0.00    +0.059 A 
ATOM     19  C   UNL     1      -1.174  -1.241  24.377  0.00  0.00    +0.046 A 
ATOM     21  C   UNL     1       0.629   0.117  23.482  0.00  0.00    +0.023 A 
ATOM     22  C   UNL     1      -0.216  -2.200  24.754  0.00  0.00    +0.024 A 
ATOM     23  C   UNL     1       1.568  -0.823  23.905  0.00  0.00    -0.014 A 
ATOM     25  C   UNL     1       1.144  -1.989  24.530  0.00  0.00    +0.010 A 
ATOM     35  H   UNL     1      -2.700  -2.549  24.868  0.00  0.00    +0.155 HD
ENDROOT
BRANCH  23  26
ATOM      1  F   UNL     1       2.548   1.617  22.914  0.00  0.00    -0.205 F 
ATOM      2  F   UNL     1       7.003   0.035  23.008  0.00  0.00    -0.205 F 
ATOM     26  C   UNL     1       2.977  -0.596  23.672  0.00  0.00    +0.018 A 
ATOM     27  C   UNL     1       3.418   0.632  23.179  0.00  0.00    +0.134 A 
ATOM     28  C   UNL     1       3.896  -1.611  23.939  0.00  0.00    +0.014 A 
ATOM     30  C   UNL     1       4.778   0.846  22.955  0.00  0.00    +0.077 A 
ATOM     31  C   UNL     1       5.256  -1.397  23.715  0.00  0.00    +0.039 A 
ATOM     32  C   UNL     1       5.698  -0.168  23.223  0.00  0.00    +0.126 A 
ENDBRANCH  23  26
BRANCH  12  10
ATOM      5  O   UNL     1      -5.759   4.237  25.270  0.00  0.00    -0.273 OA
ATOM     10  N   UNL     1      -4.039   2.855  26.002  0.00  0.00    -0.308 N 
ATOM     20  C   UNL     1      -4.732   4.051  25.917  0.00  0.00    +0.239 C 
ATOM     34  H   UNL     1      -3.226   2.802  26.611  0.00  0.00    +0.149 HD
BRANCH  20  24
ATOM     24  C   UNL     1      -4.069   5.141  26.733  0.00  0.00    +0.256 C 
BRANCH  24   6
ATOM      6  O   UNL     1      -2.663   5.022  26.675  0.00  0.00    -0.359 OA
BRANCH   6  29
ATOM     29  C   UNL     1      -2.182   5.058  25.334  0.00  0.00    +0.280 C 
BRANCH  29  33
ATOM      8  O   UNL     1      -0.339   3.948  24.205  0.00  0.00    -0.248 OA
ATOM     33  C   UNL     1      -1.113   4.018  25.148  0.00  0.00    +0.331 C 
BRANCH  33   7
ATOM      7  O   UNL     1      -1.119   3.148  26.190  0.00  0.00    -0.479 OA
ATOM     36  H   UNL     1      -1.916   2.575  26.184  0.00  0.00    +0.295 HD
ENDBRANCH  33   7
ENDBRANCH  29  33
ENDBRANCH   6  29
ENDBRANCH  24   6
ENDBRANCH  20  24
ENDBRANCH  12  10
TORSDOF 7
ENDMDL
