MODEL 1
REMARK VINA RESULT:      19.8      0.000      0.000
REMARK  Name = 23983673
REMARK  6 active torsions:
REMARK  status: ('A' for Active; 'I' for Inactive)
REMARK    1  A    between atoms: O_4  and  C_30
REMARK    2  A    between atoms: O_4  and  C_31
REMARK    3  A    between atoms: N_5  and  C_13
REMARK    4  A    between atoms: N_6  and  C_14
REMARK    5  A    between atoms: N_9  and  C_21
REMARK    6  A    between atoms: C_19  and  C_20
REMARK                            x       y       z     vdW  Elec       q    Type
REMARK                         _______ _______ _______ _____ _____    ______ ____
ROOT
ATOM      3  O   UNL     1      -0.594  -0.588  23.469  0.00  0.00    -0.252 OA
ATOM      6  N   UNL     1      -1.022  -2.801  23.985  0.00  0.00    -0.292 N 
ATOM      9  N   UNL     1       1.158  -2.081  23.928  0.00  0.00    -0.269 N 
ATOM     18  C   UNL     1      -0.178  -1.706  23.764  0.00  0.00    +0.304 C 
ATOM     37  H   UNL     1      -0.603  -3.674  24.292  0.00  0.00    +0.151 HD
ATOM     38  H   UNL     1       1.333  -3.053  24.174  0.00  0.00    +0.156 HD
ENDROOT
BRANCH   6  14
ATOM      1  O   UNL     1      -4.233  -1.188  23.304  0.00  0.00    -0.370 OA
ATOM      2  O   UNL     1      -3.255  -2.252  26.074  0.00  0.00    -0.370 OA
ATOM     11  C   UNL     1      -3.111  -0.991  25.395  0.00  0.00    +0.175 C 
ATOM     12  C   UNL     1      -2.939  -1.295  23.919  0.00  0.00    +0.171 C 
ATOM     13  C   UNL     1      -4.409  -0.206  25.474  0.00  0.00    +0.166 C 
ATOM     14  C   UNL     1      -2.460  -2.728  23.890  0.00  0.00    +0.131 C 
ATOM     15  C   UNL     1      -5.189  -0.761  24.285  0.00  0.00    +0.190 C 
ATOM     16  C   UNL     1      -3.123  -3.317  25.122  0.00  0.00    +0.185 C 
BRANCH  13   5
ATOM      5  N   UNL     1      -4.155   1.290  25.449  0.00  0.00    -0.243 N 
ATOM      7  N   UNL     1      -5.142   2.158  25.719  0.00  0.00    -0.065 NA
ATOM      8  N   UNL     1      -4.630   3.380  25.622  0.00  0.00    -0.128 NA
ATOM     17  C   UNL     1      -2.986   1.929  25.171  0.00  0.00    +0.140 A 
ATOM     19  C   UNL     1      -3.310   3.257  25.287  0.00  0.00    +0.131 A 
BRANCH  19  20
ATOM     10  N   UNL     1      -1.139   4.020  24.797  0.00  0.00    -0.253 NA
ATOM     20  C   UNL     1      -2.416   4.353  25.091  0.00  0.00    +0.092 A 
ATOM     22  C   UNL     1      -2.872   5.656  25.205  0.00  0.00    +0.030 A 
ATOM     25  C   UNL     1      -1.958   6.685  25.004  0.00  0.00    +0.004 A 
ATOM     26  C   UNL     1      -0.280   5.047  24.609  0.00  0.00    +0.111 A 
ATOM     29  C   UNL     1      -0.635   6.382  24.700  0.00  0.00    +0.020 A 
ENDBRANCH  19  20
ENDBRANCH  13   5
ENDBRANCH   6  14
BRANCH   9  21
ATOM     21  C   UNL     1       2.310  -1.271  23.793  0.00  0.00    +0.035 A 
ATOM     23  C   UNL     1       2.206   0.006  23.241  0.00  0.00    +0.027 A 
ATOM     24  C   UNL     1       3.551  -1.749  24.214  0.00  0.00    +0.027 A 
ATOM     27  C   UNL     1       3.341   0.804  23.109  0.00  0.00    +0.048 A 
ATOM     28  C   UNL     1       4.688  -0.950  24.083  0.00  0.00    +0.048 A 
ATOM     30  C   UNL     1       4.582   0.326  23.530  0.00  0.00    +0.129 A 
BRANCH  30   4
ATOM      4  O   UNL     1       5.691   1.106  23.404  0.00  0.00    -0.456 OA
BRANCH   4  31
ATOM     31  C   UNL     1       6.905   0.471  23.202  0.00  0.00    +0.128 A 
ATOM     32  C   UNL     1       8.081   1.044  23.683  0.00  0.00    +0.046 A 
ATOM     33  C   UNL     1       6.951  -0.743  22.515  0.00  0.00    +0.046 A 
ATOM     34  C   UNL     1       9.304   0.405  23.477  0.00  0.00    +0.004 A 
ATOM     35  C   UNL     1       8.172  -1.383  22.311  0.00  0.00    +0.004 A 
ATOM     36  C   UNL     1       9.349  -0.809  22.791  0.00  0.00    +0.000 A 
ENDBRANCH   4  31
ENDBRANCH  30   4
ENDBRANCH   9  21
TORSDOF 6
ENDMDL
MODEL 2
REMARK VINA RESULT:      20.2      5.308     11.435
REMARK  Name = 23983673
REMARK  6 active torsions:
REMARK  status: ('A' for Active; 'I' for Inactive)
REMARK    1  A    between atoms: O_4  and  C_30
REMARK    2  A    between atoms: O_4  and  C_31
REMARK    3  A    between atoms: N_5  and  C_13
REMARK    4  A    between atoms: N_6  and  C_14
REMARK    5  A    between atoms: N_9  and  C_21
REMARK    6  A    between atoms: C_19  and  C_20
REMARK                            x       y       z     vdW  Elec       q    Type
REMARK                         _______ _______ _______ _____ _____    ______ ____
ROOT
ATOM      3  O   UNL     1       4.624   0.336  24.943  0.00  0.00    -0.252 OA
ATOM      6  N   UNL     1       5.914   0.068  23.042  0.00  0.00    -0.292 N 
ATOM      9  N   UNL     1       3.647   0.354  22.809  0.00  0.00    -0.269 N 
ATOM     18  C   UNL     1       4.704   0.262  23.719  0.00  0.00    +0.304 C 
ATOM     37  H   UNL     1       5.902   0.087  22.026  0.00  0.00    +0.151 HD
ATOM     38  H   UNL     1       3.884   0.272  21.823  0.00  0.00    +0.156 HD
ENDROOT
BRANCH   6  14
ATOM      1  O   UNL     1       9.087   1.256  24.418  0.00  0.00    -0.370 OA
ATOM      2  O   UNL     1       8.741  -0.767  22.062  0.00  0.00    -0.370 OA
ATOM     11  C   UNL     1       8.817   0.669  22.126  0.00  0.00    +0.175 C 
ATOM     12  C   UNL     1       8.096   1.099  23.389  0.00  0.00    +0.171 C 
ATOM     13  C   UNL     1      10.256   1.105  22.340  0.00  0.00    +0.166 C 
ATOM     14  C   UNL     1       7.186  -0.064  23.710  0.00  0.00    +0.131 C 
ATOM     15  C   UNL     1      10.389   1.027  23.859  0.00  0.00    +0.190 C 
ATOM     16  C   UNL     1       7.969  -1.248  23.172  0.00  0.00    +0.185 C 
BRANCH  13   5
ATOM      5  N   UNL     1      10.518   2.469  21.730  0.00  0.00    -0.243 N 
ATOM      7  N   UNL     1      10.550   2.629  20.397  0.00  0.00    -0.065 NA
ATOM      8  N   UNL     1      10.796   3.914  20.160  0.00  0.00    -0.128 NA
ATOM     17  C   UNL     1      10.743   3.642  22.382  0.00  0.00    +0.140 A 
ATOM     19  C   UNL     1      10.917   4.548  21.366  0.00  0.00    +0.131 A 
BRANCH  19  20
ATOM     10  N   UNL     1      12.366   6.372  21.034  0.00  0.00    -0.253 NA
ATOM     20  C   UNL     1      11.183   5.941  21.528  0.00  0.00    +0.092 A 
ATOM     22  C   UNL     1      10.259   6.760  22.157  0.00  0.00    +0.030 A 
ATOM     25  C   UNL     1      10.570   8.110  22.288  0.00  0.00    +0.004 A 
ATOM     26  C   UNL     1      12.632   7.689  21.180  0.00  0.00    +0.111 A 
ATOM     29  C   UNL     1      11.777   8.590  21.792  0.00  0.00    +0.020 A 
ENDBRANCH  19  20
ENDBRANCH  13   5
ENDBRANCH   6  14
BRANCH   9  21
ATOM     21  C   UNL     1       2.274   0.549  23.089  0.00  0.00    +0.035 A 
ATOM     23  C   UNL     1       1.857   1.688  23.779  0.00  0.00    +0.027 A 
ATOM     24  C   UNL     1       1.337  -0.398  22.675  0.00  0.00    +0.027 A 
ATOM     27  C   UNL     1       0.504   1.880  24.054  0.00  0.00    +0.048 A 
ATOM     28  C   UNL     1      -0.018  -0.205  22.950  0.00  0.00    +0.048 A 
ATOM     30  C   UNL     1      -0.434   0.934  23.639  0.00  0.00    +0.129 A 
BRANCH  30   4
ATOM      4  O   UNL     1      -1.755   1.123  23.906  0.00  0.00    -0.456 OA
BRANCH   4  31
ATOM     31  C   UNL     1      -2.498   0.019  24.291  0.00  0.00    +0.128 A 
ATOM     32  C   UNL     1      -2.163  -0.678  25.451  0.00  0.00    +0.046 A 
ATOM     33  C   UNL     1      -3.582  -0.397  23.517  0.00  0.00    +0.046 A 
ATOM     34  C   UNL     1      -2.911  -1.790  25.838  0.00  0.00    +0.004 A 
ATOM     35  C   UNL     1      -4.330  -1.508  23.903  0.00  0.00    +0.004 A 
ATOM     36  C   UNL     1      -3.994  -2.205  25.064  0.00  0.00    +0.000 A 
ENDBRANCH   4  31
ENDBRANCH  30   4
ENDBRANCH   9  21
TORSDOF 6
ENDMDL
MODEL 3
REMARK VINA RESULT:      20.4      2.247      5.381
REMARK  Name = 23983673
REMARK  6 active torsions:
REMARK  status: ('A' for Active; 'I' for Inactive)
REMARK    1  A    between atoms: O_4  and  C_30
REMARK    2  A    between atoms: O_4  and  C_31
REMARK    3  A    between atoms: N_5  and  C_13
REMARK    4  A    between atoms: N_6  and  C_14
REMARK    5  A    between atoms: N_9  and  C_21
REMARK    6  A    between atoms: C_19  and  C_20
REMARK                            x       y       z     vdW  Elec       q    Type
REMARK                         _______ _______ _______ _____ _____    ______ ____
ROOT
ATOM      3  O   UNL     1      -0.237   2.623  25.123  0.00  0.00    -0.252 OA
ATOM      6  N   UNL     1      -0.383   4.779  24.301  0.00  0.00    -0.292 N 
ATOM      9  N   UNL     1       1.303   3.418  23.541  0.00  0.00    -0.269 N 
ATOM     18  C   UNL     1       0.196   3.508  24.390  0.00  0.00    +0.304 C 
ATOM     37  H   UNL     1      -0.006   5.431  23.620  0.00  0.00    +0.151 HD
ATOM     38  H   UNL     1       1.530   4.247  22.997  0.00  0.00    +0.156 HD
ENDROOT
BRANCH   6  14
ATOM      1  O   UNL     1      -3.237   4.266  26.530  0.00  0.00    -0.370 OA
ATOM      2  O   UNL     1      -3.370   5.175  23.544  0.00  0.00    -0.370 OA
ATOM     11  C   UNL     1      -3.352   3.885  24.183  0.00  0.00    +0.175 C 
ATOM     12  C   UNL     1      -2.424   3.991  25.377  0.00  0.00    +0.171 C 
ATOM     13  C   UNL     1      -4.715   3.582  24.782  0.00  0.00    +0.166 C 
ATOM     14  C   UNL     1      -1.545   5.178  25.059  0.00  0.00    +0.131 C 
ATOM     15  C   UNL     1      -4.619   4.262  26.146  0.00  0.00    +0.190 C 
ATOM     16  C   UNL     1      -2.468   6.053  24.231  0.00  0.00    +0.185 C 
BRANCH  13   5
ATOM      5  N   UNL     1      -4.987   2.089  24.813  0.00  0.00    -0.243 N 
ATOM      7  N   UNL     1      -6.224   1.623  25.047  0.00  0.00    -0.065 NA
ATOM      8  N   UNL     1      -6.157   0.296  25.014  0.00  0.00    -0.128 NA
ATOM     17  C   UNL     1      -4.096   1.078  24.626  0.00  0.00    +0.140 A 
ATOM     19  C   UNL     1      -4.860  -0.054  24.758  0.00  0.00    +0.131 A 
BRANCH  19  20
ATOM     10  N   UNL     1      -4.817  -2.079  23.561  0.00  0.00    -0.253 NA
ATOM     20  C   UNL     1      -4.387  -1.396  24.646  0.00  0.00    +0.092 A 
ATOM     22  C   UNL     1      -3.544  -1.922  25.611  0.00  0.00    +0.030 A 
ATOM     25  C   UNL     1      -3.113  -3.235  25.453  0.00  0.00    +0.004 A 
ATOM     26  C   UNL     1      -4.378  -3.352  23.441  0.00  0.00    +0.111 A 
ATOM     29  C   UNL     1      -3.534  -3.970  24.350  0.00  0.00    +0.020 A 
ENDBRANCH  19  20
ENDBRANCH  13   5
ENDBRANCH   6  14
BRANCH   9  21
ATOM     21  C   UNL     1       2.155   2.307  23.340  0.00  0.00    +0.035 A 
ATOM     23  C   UNL     1       3.446   2.498  22.844  0.00  0.00    +0.027 A 
ATOM     24  C   UNL     1       1.707   1.021  23.639  0.00  0.00    +0.027 A 
ATOM     27  C   UNL     1       4.287   1.404  22.647  0.00  0.00    +0.048 A 
ATOM     28  C   UNL     1       2.549  -0.075  23.443  0.00  0.00    +0.048 A 
ATOM     30  C   UNL     1       3.839   0.117  22.947  0.00  0.00    +0.129 A 
BRANCH  30   4
ATOM      4  O   UNL     1       4.661  -0.951  22.757  0.00  0.00    -0.456 OA
BRANCH   4  31
ATOM     31  C   UNL     1       6.023  -0.746  22.892  0.00  0.00    +0.128 A 
ATOM     32  C   UNL     1       6.923  -1.541  22.183  0.00  0.00    +0.046 A 
ATOM     33  C   UNL     1       6.497   0.257  23.738  0.00  0.00    +0.046 A 
ATOM     34  C   UNL     1       8.295  -1.335  22.320  0.00  0.00    +0.004 A 
ATOM     35  C   UNL     1       7.869   0.464  23.875  0.00  0.00    +0.004 A 
ATOM     36  C   UNL     1       8.769  -0.332  23.166  0.00  0.00    +0.000 A 
ENDBRANCH   4  31
ENDBRANCH  30   4
ENDBRANCH   9  21
TORSDOF 6
ENDMDL
MODEL 4
REMARK VINA RESULT:      20.8      6.594     10.598
REMARK  Name = 23983673
REMARK  6 active torsions:
REMARK  status: ('A' for Active; 'I' for Inactive)
REMARK    1  A    between atoms: O_4  and  C_30
REMARK    2  A    between atoms: O_4  and  C_31
REMARK    3  A    between atoms: N_5  and  C_13
REMARK    4  A    between atoms: N_6  and  C_14
REMARK    5  A    between atoms: N_9  and  C_21
REMARK    6  A    between atoms: C_19  and  C_20
REMARK                            x       y       z     vdW  Elec       q    Type
REMARK                         _______ _______ _______ _____ _____    ______ ____
ROOT
ATOM      3  O   UNL     1      10.603   2.677  20.784  0.00  0.00    -0.252 OA
ATOM      6  N   UNL     1       9.906   2.274  22.952  0.00  0.00    -0.292 N 
ATOM      9  N   UNL     1      10.534   4.406  22.370  0.00  0.00    -0.269 N 
ATOM     18  C   UNL     1      10.375   3.093  21.917  0.00  0.00    +0.304 C 
ATOM     37  H   UNL     1       9.677   2.710  23.840  0.00  0.00    +0.151 HD
ATOM     38  H   UNL     1      10.300   4.585  23.344  0.00  0.00    +0.156 HD
ENDROOT
BRANCH   6  14
ATOM      1  O   UNL     1       8.045  -0.651  21.789  0.00  0.00    -0.370 OA
ATOM      2  O   UNL     1       8.532   0.160  24.766  0.00  0.00    -0.370 OA
ATOM     11  C   UNL     1       7.512   0.495  23.807  0.00  0.00    +0.175 C 
ATOM     12  C   UNL     1       8.191   0.613  22.456  0.00  0.00    +0.171 C 
ATOM     13  C   UNL     1       6.545  -0.666  23.648  0.00  0.00    +0.166 C 
ATOM     14  C   UNL     1       9.643   0.865  22.792  0.00  0.00    +0.131 C 
ATOM     15  C   UNL     1       7.251  -1.526  22.603  0.00  0.00    +0.190 C 
ATOM     16  C   UNL     1       9.805   0.123  24.106  0.00  0.00    +0.185 C 
BRANCH  13   5
ATOM      5  N   UNL     1       5.157  -0.183  23.270  0.00  0.00    -0.243 N 
ATOM      7  N   UNL     1       4.948   0.458  22.109  0.00  0.00    -0.065 NA
ATOM      8  N   UNL     1       3.654   0.756  22.051  0.00  0.00    -0.128 NA
ATOM     17  C   UNL     1       4.008  -0.314  23.986  0.00  0.00    +0.140 A 
ATOM     19  C   UNL     1       3.064   0.289  23.194  0.00  0.00    +0.131 A 
BRANCH  19  20
ATOM     10  N   UNL     1       1.280   1.643  23.914  0.00  0.00    -0.253 NA
ATOM     20  C   UNL     1       1.676   0.418  23.502  0.00  0.00    +0.092 A 
ATOM     22  C   UNL     1       0.828  -0.670  23.372  0.00  0.00    +0.030 A 
ATOM     25  C   UNL     1      -0.515  -0.489  23.686  0.00  0.00    +0.004 A 
ATOM     26  C   UNL     1      -0.033   1.780  24.209  0.00  0.00    +0.111 A 
ATOM     29  C   UNL     1      -0.961   0.757  24.113  0.00  0.00    +0.020 A 
ENDBRANCH  19  20
ENDBRANCH  13   5
ENDBRANCH   6  14
BRANCH   9  21
ATOM     21  C   UNL     1      10.985   5.528  21.638  0.00  0.00    +0.035 A 
ATOM     23  C   UNL     1      11.872   5.358  20.574  0.00  0.00    +0.027 A 
ATOM     24  C   UNL     1      10.542   6.807  21.977  0.00  0.00    +0.027 A 
ATOM     27  C   UNL     1      12.316   6.465  19.852  0.00  0.00    +0.048 A 
ATOM     28  C   UNL     1      10.985   7.914  21.254  0.00  0.00    +0.048 A 
ATOM     30  C   UNL     1      11.872   7.743  20.191  0.00  0.00    +0.129 A 
BRANCH  30   4
ATOM      4  O   UNL     1      12.303   8.824  19.484  0.00  0.00    -0.456 OA
BRANCH   4  31
ATOM     31  C   UNL     1      12.017   8.862  18.130  0.00  0.00    +0.128 A 
ATOM     32  C   UNL     1      10.703   8.705  17.689  0.00  0.00    +0.046 A 
ATOM     33  C   UNL     1      13.044   9.055  17.206  0.00  0.00    +0.046 A 
ATOM     34  C   UNL     1      10.416   8.742  16.325  0.00  0.00    +0.004 A 
ATOM     35  C   UNL     1      12.757   9.094  15.842  0.00  0.00    +0.004 A 
ATOM     36  C   UNL     1      11.443   8.936  15.401  0.00  0.00    +0.000 A 
ENDBRANCH   4  31
ENDBRANCH  30   4
ENDBRANCH   9  21
TORSDOF 6
ENDMDL
MODEL 5
REMARK VINA RESULT:      20.9      5.309     11.417
REMARK  Name = 23983673
REMARK  6 active torsions:
REMARK  status: ('A' for Active; 'I' for Inactive)
REMARK    1  A    between atoms: O_4  and  C_30
REMARK    2  A    between atoms: O_4  and  C_31
REMARK    3  A    between atoms: N_5  and  C_13
REMARK    4  A    between atoms: N_6  and  C_14
REMARK    5  A    between atoms: N_9  and  C_21
REMARK    6  A    between atoms: C_19  and  C_20
REMARK                            x       y       z     vdW  Elec       q    Type
REMARK                         _______ _______ _______ _____ _____    ______ ____
ROOT
ATOM      3  O   UNL     1       4.642   0.340  24.965  0.00  0.00    -0.252 OA
ATOM      6  N   UNL     1       5.970   0.062  23.093  0.00  0.00    -0.292 N 
ATOM      9  N   UNL     1       3.697   0.243  22.819  0.00  0.00    -0.269 N 
ATOM     18  C   UNL     1       4.743   0.228  23.746  0.00  0.00    +0.304 C 
ATOM     37  H   UNL     1       5.974   0.046  22.077  0.00  0.00    +0.151 HD
ATOM     38  H   UNL     1       3.953   0.137  21.840  0.00  0.00    +0.156 HD
ENDROOT
BRANCH   6  14
ATOM      1  O   UNL     1       9.092   1.422  24.428  0.00  0.00    -0.370 OA
ATOM      2  O   UNL     1       8.832  -0.753  22.201  0.00  0.00    -0.370 OA
ATOM     11  C   UNL     1       8.868   0.685  22.175  0.00  0.00    +0.175 C 
ATOM     12  C   UNL     1       8.119   1.173  23.400  0.00  0.00    +0.171 C 
ATOM     13  C   UNL     1      10.292   1.174  22.378  0.00  0.00    +0.166 C 
ATOM     14  C   UNL     1       7.236   0.008  23.782  0.00  0.00    +0.131 C 
ATOM     15  C   UNL     1      10.406   1.195  23.900  0.00  0.00    +0.190 C 
ATOM     16  C   UNL     1       8.059  -1.185  23.329  0.00  0.00    +0.185 C 
BRANCH  13   5
ATOM      5  N   UNL     1      10.526   2.504  21.686  0.00  0.00    -0.243 N 
ATOM      7  N   UNL     1      10.614   2.575  20.348  0.00  0.00    -0.065 NA
ATOM      8  N   UNL     1      10.816   3.850  20.033  0.00  0.00    -0.128 NA
ATOM     17  C   UNL     1      10.670   3.727  22.264  0.00  0.00    +0.140 A 
ATOM     19  C   UNL     1      10.853   4.569  21.196  0.00  0.00    +0.131 A 
BRANCH  19  20
ATOM     10  N   UNL     1      11.909   6.499  20.363  0.00  0.00    -0.253 NA
ATOM     20  C   UNL     1      11.053   5.980  21.272  0.00  0.00    +0.092 A 
ATOM     22  C   UNL     1      10.391   6.729  22.232  0.00  0.00    +0.030 A 
ATOM     25  C   UNL     1      10.623   8.100  22.261  0.00  0.00    +0.004 A 
ATOM     26  C   UNL     1      12.108   7.836  20.422  0.00  0.00    +0.111 A 
ATOM     29  C   UNL     1      11.496   8.671  21.342  0.00  0.00    +0.020 A 
ENDBRANCH  19  20
ENDBRANCH  13   5
ENDBRANCH   6  14
BRANCH   9  21
ATOM     21  C   UNL     1       2.314   0.389  23.073  0.00  0.00    +0.035 A 
ATOM     23  C   UNL     1       1.814   1.604  23.543  0.00  0.00    +0.027 A 
ATOM     24  C   UNL     1       1.447  -0.682  22.852  0.00  0.00    +0.027 A 
ATOM     27  C   UNL     1       0.450   1.748  23.792  0.00  0.00    +0.048 A 
ATOM     28  C   UNL     1       0.082  -0.539  23.102  0.00  0.00    +0.048 A 
ATOM     30  C   UNL     1      -0.417   0.676  23.572  0.00  0.00    +0.129 A 
BRANCH  30   4
ATOM      4  O   UNL     1      -1.749   0.817  23.813  0.00  0.00    -0.456 OA
BRANCH   4  31
ATOM     31  C   UNL     1      -2.173   1.990  24.414  0.00  0.00    +0.128 A 
ATOM     32  C   UNL     1      -1.506   2.481  25.536  0.00  0.00    +0.046 A 
ATOM     33  C   UNL     1      -3.270   2.681  23.898  0.00  0.00    +0.046 A 
ATOM     34  C   UNL     1      -1.935   3.662  26.142  0.00  0.00    +0.004 A 
ATOM     35  C   UNL     1      -3.698   3.862  24.503  0.00  0.00    +0.004 A 
ATOM     36  C   UNL     1      -3.031   4.352  25.625  0.00  0.00    +0.000 A 
ENDBRANCH   4  31
ENDBRANCH  30   4
ENDBRANCH   9  21
TORSDOF 6
ENDMDL
MODEL 6
REMARK VINA RESULT:      23.7      6.259     10.187
REMARK  Name = 23983673
REMARK  6 active torsions:
REMARK  status: ('A' for Active; 'I' for Inactive)
REMARK    1  A    between atoms: O_4  and  C_30
REMARK    2  A    between atoms: O_4  and  C_31
REMARK    3  A    between atoms: N_5  and  C_13
REMARK    4  A    between atoms: N_6  and  C_14
REMARK    5  A    between atoms: N_9  and  C_21
REMARK    6  A    between atoms: C_19  and  C_20
REMARK                            x       y       z     vdW  Elec       q    Type
REMARK                         _______ _______ _______ _____ _____    ______ ____
ROOT
ATOM      3  O   UNL     1      10.184   2.445  21.044  0.00  0.00    -0.252 OA
ATOM      6  N   UNL     1       9.282   2.008  23.129  0.00  0.00    -0.292 N 
ATOM      9  N   UNL     1      10.057   4.123  22.680  0.00  0.00    -0.269 N 
ATOM     18  C   UNL     1       9.878   2.835  22.169  0.00  0.00    +0.304 C 
ATOM     37  H   UNL     1       8.998   2.425  24.010  0.00  0.00    +0.151 HD
ATOM     38  H   UNL     1       9.747   4.282  23.637  0.00  0.00    +0.156 HD
ENDROOT
BRANCH   6  14
ATOM      1  O   UNL     1       7.290  -0.785  21.863  0.00  0.00    -0.370 OA
ATOM      2  O   UNL     1       7.902  -0.168  24.863  0.00  0.00    -0.370 OA
ATOM     11  C   UNL     1       6.862   0.253  23.962  0.00  0.00    +0.175 C 
ATOM     12  C   UNL     1       7.499   0.432  22.597  0.00  0.00    +0.171 C 
ATOM     13  C   UNL     1       5.854  -0.867  23.770  0.00  0.00    +0.166 C 
ATOM     14  C   UNL     1       8.969   0.619  22.896  0.00  0.00    +0.131 C 
ATOM     15  C   UNL     1       6.496  -1.683  22.652  0.00  0.00    +0.190 C 
ATOM     16  C   UNL     1       9.151  -0.205  24.158  0.00  0.00    +0.185 C 
BRANCH  13   5
ATOM      5  N   UNL     1       4.470  -0.320  23.469  0.00  0.00    -0.243 N 
ATOM      7  N   UNL     1       4.304   0.676  22.585  0.00  0.00    -0.065 NA
ATOM      8  N   UNL     1       3.003   0.940  22.529  0.00  0.00    -0.128 NA
ATOM     17  C   UNL     1       3.285  -0.721  24.004  0.00  0.00    +0.140 A 
ATOM     19  C   UNL     1       2.365   0.093  23.393  0.00  0.00    +0.131 A 
BRANCH  19  20
ATOM     10  N   UNL     1       0.304   1.227  23.361  0.00  0.00    -0.253 NA
ATOM     20  C   UNL     1       0.955   0.070  23.614  0.00  0.00    +0.092 A 
ATOM     22  C   UNL     1       0.336  -1.088  24.060  0.00  0.00    +0.030 A 
ATOM     25  C   UNL     1      -1.040  -1.054  24.259  0.00  0.00    +0.004 A 
ATOM     26  C   UNL     1      -1.033   1.221  23.566  0.00  0.00    +0.111 A 
ATOM     29  C   UNL     1      -1.744   0.118  24.010  0.00  0.00    +0.020 A 
ENDBRANCH  19  20
ENDBRANCH  13   5
ENDBRANCH   6  14
BRANCH   9  21
ATOM     21  C   UNL     1      10.622   5.245  22.031  0.00  0.00    +0.035 A 
ATOM     23  C   UNL     1      10.163   6.528  22.328  0.00  0.00    +0.027 A 
ATOM     24  C   UNL     1      11.640   5.069  21.093  0.00  0.00    +0.027 A 
ATOM     27  C   UNL     1      10.720   7.635  21.688  0.00  0.00    +0.048 A 
ATOM     28  C   UNL     1      12.198   6.176  20.453  0.00  0.00    +0.048 A 
ATOM     30  C   UNL     1      11.738   7.459  20.751  0.00  0.00    +0.129 A 
BRANCH  30   4
ATOM      4  O   UNL     1      12.285   8.539  20.128  0.00  0.00    -0.456 OA
BRANCH   4  31
ATOM     31  C   UNL     1      13.652   8.724  20.243  0.00  0.00    +0.128 A 
ATOM     32  C   UNL     1      14.454   8.731  19.102  0.00  0.00    +0.046 A 
ATOM     33  C   UNL     1      14.229   8.900  21.501  0.00  0.00    +0.046 A 
ATOM     34  C   UNL     1      15.832   8.916  19.219  0.00  0.00    +0.004 A 
ATOM     35  C   UNL     1      15.605   9.086  21.618  0.00  0.00    +0.004 A 
ATOM     36  C   UNL     1      16.407   9.094  20.477  0.00  0.00    +0.000 A 
ENDBRANCH   4  31
ENDBRANCH  30   4
ENDBRANCH   9  21
TORSDOF 6
ENDMDL
