MODEL 1
REMARK VINA RESULT:       0.1      0.000      0.000
REMARK  Name = 51136987
REMARK  2 active torsions:
REMARK  status: ('A' for Active; 'I' for Inactive)
REMARK    1  A    between atoms: C_6  and  C_10
REMARK    2  A    between atoms: C_11  and  C_14
REMARK                            x       y       z     vdW  Elec       q    Type
REMARK                         _______ _______ _______ _____ _____    ______ ____
ROOT
ATOM      3  O   UNL     1       1.337  -0.818  21.037  0.00  0.00    -0.270 OA
ATOM      4  N   UNL     1       0.500  -1.070  23.190  0.00  0.00    -0.297 N 
ATOM      6  C   UNL     1      -0.878  -1.025  25.128  0.00  0.00    +0.094 C 
ATOM      7  C   UNL     1      -1.489  -1.972  24.083  0.00  0.00    +0.033 C 
ATOM      8  C   UNL     1       0.573  -0.909  24.643  0.00  0.00    +0.121 C 
ATOM      9  C   UNL     1      -0.803  -1.572  22.784  0.00  0.00    +0.109 C 
ATOM     11  C   UNL     1       1.469  -0.734  22.257  0.00  0.00    +0.247 C 
ENDROOT
BRANCH   6  10
ATOM      1 CL   UNL     1      -5.447   5.037  25.513  0.00  0.00    -0.083 Cl
ATOM      2  O   UNL     1      -0.935   1.385  25.523  0.00  0.00    -0.439 OA
ATOM      5  N   UNL     1      -2.958   0.456  25.092  0.00  0.00    -0.213 NA
ATOM     10  C   UNL     1      -1.664   0.270  25.238  0.00  0.00    +0.201 A 
ATOM     12  C   UNL     1      -3.107   1.807  25.296  0.00  0.00    +0.111 A 
ATOM     13  C   UNL     1      -1.872   2.379  25.560  0.00  0.00    +0.155 A 
ATOM     15  C   UNL     1      -4.244   2.627  25.277  0.00  0.00    +0.051 A 
ATOM     16  C   UNL     1      -1.661   3.729  25.813  0.00  0.00    +0.050 A 
ATOM     19  C   UNL     1      -4.072   3.997  25.528  0.00  0.00    +0.043 A 
ATOM     20  C   UNL     1      -2.806   4.534  25.791  0.00  0.00    +0.024 A 
ENDBRANCH   6  10
BRANCH  11  14
ATOM     14  C   UNL     1       2.751  -0.221  22.764  0.00  0.00    +0.037 A 
ATOM     17  C   UNL     1       3.633  -1.075  23.425  0.00  0.00    +0.013 A 
ATOM     18  C   UNL     1       3.086   1.121  22.581  0.00  0.00    +0.013 A 
ATOM     21  C   UNL     1       4.849  -0.589  23.905  0.00  0.00    +0.001 A 
ATOM     22  C   UNL     1       4.302   1.608  23.060  0.00  0.00    +0.001 A 
ATOM     23  C   UNL     1       5.184   0.753  23.722  0.00  0.00    +0.000 A 
ENDBRANCH  11  14
TORSDOF 2
ENDMDL
MODEL 2
REMARK VINA RESULT:       2.8      3.294      7.246
REMARK  Name = 51136987
REMARK  2 active torsions:
REMARK  status: ('A' for Active; 'I' for Inactive)
REMARK    1  A    between atoms: C_6  and  C_10
REMARK    2  A    between atoms: C_11  and  C_14
REMARK                            x       y       z     vdW  Elec       q    Type
REMARK                         _______ _______ _______ _____ _____    ______ ____
ROOT
ATOM      3  O   UNL     1      -1.634   0.970  26.787  0.00  0.00    -0.270 OA
ATOM      4  N   UNL     1      -0.939   0.620  24.598  0.00  0.00    -0.297 N 
ATOM      6  C   UNL     1       0.237  -0.095  22.658  0.00  0.00    +0.094 C 
ATOM      7  C   UNL     1      -0.453  -1.300  23.316  0.00  0.00    +0.033 C 
ATOM      8  C   UNL     1      -0.528   1.085  23.272  0.00  0.00    +0.121 C 
ATOM      9  C   UNL     1      -0.762  -0.817  24.727  0.00  0.00    +0.109 C 
ATOM     11  C   UNL     1      -1.369   1.395  25.664  0.00  0.00    +0.247 C 
ENDROOT
BRANCH   6  10
ATOM      1 CL   UNL     1       7.773   0.495  23.455  0.00  0.00    -0.083 Cl
ATOM      2  O   UNL     1       2.239  -1.256  23.441  0.00  0.00    -0.439 OA
ATOM      5  N   UNL     1       2.623   0.813  22.600  0.00  0.00    -0.213 NA
ATOM     10  C   UNL     1       1.740  -0.120  22.880  0.00  0.00    +0.201 A 
ATOM     12  C   UNL     1       3.812   0.255  23.006  0.00  0.00    +0.111 A 
ATOM     13  C   UNL     1       3.581  -1.011  23.522  0.00  0.00    +0.155 A 
ATOM     15  C   UNL     1       5.124   0.747  22.977  0.00  0.00    +0.051 A 
ATOM     16  C   UNL     1       4.565  -1.854  24.024  0.00  0.00    +0.050 A 
ATOM     19  C   UNL     1       6.146  -0.075  23.475  0.00  0.00    +0.043 A 
ATOM     20  C   UNL     1       5.870  -1.348  23.987  0.00  0.00    +0.024 A 
ENDBRANCH   6  10
BRANCH  11  14
ATOM     14  C   UNL     1      -1.503   2.843  25.441  0.00  0.00    +0.037 A 
ATOM     17  C   UNL     1      -0.378   3.612  25.148  0.00  0.00    +0.013 A 
ATOM     18  C   UNL     1      -2.759   3.447  25.522  0.00  0.00    +0.013 A 
ATOM     21  C   UNL     1      -0.506   4.984  24.935  0.00  0.00    +0.001 A 
ATOM     22  C   UNL     1      -2.887   4.819  25.309  0.00  0.00    +0.001 A 
ATOM     23  C   UNL     1      -1.761   5.589  25.015  0.00  0.00    +0.000 A 
ENDBRANCH  11  14
TORSDOF 2
ENDMDL
MODEL 3
REMARK VINA RESULT:       3.1     14.495     16.977
REMARK  Name = 51136987
REMARK  2 active torsions:
REMARK  status: ('A' for Active; 'I' for Inactive)
REMARK    1  A    between atoms: C_6  and  C_10
REMARK    2  A    between atoms: C_11  and  C_14
REMARK                            x       y       z     vdW  Elec       q    Type
REMARK                         _______ _______ _______ _____ _____    ______ ____
ROOT
ATOM      3  O   UNL     1      -0.708  -7.858  13.353  0.00  0.00    -0.270 OA
ATOM      4  N   UNL     1      -1.769  -9.554  12.172  0.00  0.00    -0.297 N 
ATOM      6  C   UNL     1      -3.129 -10.778  10.651  0.00  0.00    +0.094 C 
ATOM      7  C   UNL     1      -2.017 -10.051   9.879  0.00  0.00    +0.033 C 
ATOM      8  C   UNL     1      -2.578 -10.771  12.084  0.00  0.00    +0.121 C 
ATOM      9  C   UNL     1      -1.531  -8.987  10.854  0.00  0.00    +0.109 C 
ATOM     11  C   UNL     1      -1.325  -8.921  13.322  0.00  0.00    +0.247 C 
ENDROOT
BRANCH   6  10
ATOM      1 CL   UNL     1     -10.152  -7.909  10.191  0.00  0.00    -0.083 Cl
ATOM      2  O   UNL     1      -4.553  -9.227   9.413  0.00  0.00    -0.439 OA
ATOM      5  N   UNL     1      -5.593 -10.300  11.117  0.00  0.00    -0.213 NA
ATOM     10  C   UNL     1      -4.481 -10.120  10.439  0.00  0.00    +0.201 A 
ATOM     12  C   UNL     1      -6.484  -9.459  10.493  0.00  0.00    +0.111 A 
ATOM     13  C   UNL     1      -5.851  -8.800   9.450  0.00  0.00    +0.155 A 
ATOM     15  C   UNL     1      -7.837  -9.191  10.743  0.00  0.00    +0.051 A 
ATOM     16  C   UNL     1      -6.460  -7.876   8.610  0.00  0.00    +0.050 A 
ATOM     19  C   UNL     1      -8.487  -8.263   9.916  0.00  0.00    +0.043 A 
ATOM     20  C   UNL     1      -7.811  -7.620   8.872  0.00  0.00    +0.024 A 
ENDBRANCH   6  10
BRANCH  11  14
ATOM     14  C   UNL     1      -1.627  -9.564  14.611  0.00  0.00    +0.037 A 
ATOM     17  C   UNL     1      -0.631  -9.690  15.579  0.00  0.00    +0.013 A 
ATOM     18  C   UNL     1      -2.911 -10.047  14.865  0.00  0.00    +0.013 A 
ATOM     21  C   UNL     1      -0.918 -10.298  16.801  0.00  0.00    +0.001 A 
ATOM     22  C   UNL     1      -3.199 -10.654  16.086  0.00  0.00    +0.001 A 
ATOM     23  C   UNL     1      -2.202 -10.780  17.056  0.00  0.00    +0.000 A 
ENDBRANCH  11  14
TORSDOF 2
ENDMDL
