MODEL 1
REMARK VINA RESULT:      -3.8      0.000      0.000
REMARK  Name = 45783996
REMARK  13 active torsions:
REMARK  status: ('A' for Active; 'I' for Inactive)
REMARK    1  A    between atoms: O_2  and  C_23
REMARK    2  A    between atoms: N_3  and  C_10
REMARK    3  A    between atoms: C_6  and  C_11
REMARK    4  A    between atoms: C_7  and  C_10
REMARK    5  A    between atoms: C_9  and  C_19
REMARK    6  A    between atoms: C_11  and  C_20
REMARK    7  A    between atoms: C_11  and  C_21
REMARK    8  A    between atoms: C_13  and  C_22
REMARK    9  A    between atoms: C_16  and  C_23
REMARK   10  A    between atoms: C_19  and  C_24
REMARK   11  A    between atoms: C_25  and  C_26
REMARK   12  A    between atoms: C_26  and  C_27
REMARK   13  A    between atoms: C_27  and  C_28
REMARK                            x       y       z     vdW  Elec       q    Type
REMARK                         _______ _______ _______ _____ _____    ______ ____
ROOT
ATOM      6  C   UNL     1      -3.522  -0.847  23.651  0.00  0.00    +0.000 C 
ATOM      7  C   UNL     1      -4.154  -0.530  25.026  0.00  0.00    +0.029 C 
ATOM      8  C   UNL     1      -2.214  -0.065  23.466  0.00  0.00    +0.012 C 
ATOM      9  C   UNL     1      -1.179  -0.331  24.580  0.00  0.00    +0.024 C 
ATOM     12  C   UNL     1      -3.138  -0.516  26.140  0.00  0.00    -0.023 C 
ATOM     13  C   UNL     1      -1.806  -0.441  25.961  0.00  0.00    -0.073 C 
ATOM     22  C   UNL     1      -0.877  -0.523  27.141  0.00  0.00    +0.039 C 
ENDROOT
BRANCH   6  11
ATOM     11  C   UNL     1      -3.296  -2.354  23.472  0.00  0.00    -0.013 C 
ATOM     20  C   UNL     1      -1.885  -2.736  23.907  0.00  0.00    +0.007 C 
ATOM     21  C   UNL     1      -4.337  -3.145  24.259  0.00  0.00    +0.007 C 
ENDBRANCH   6  11
BRANCH   7  10
ATOM     10  C   UNL     1      -4.902   0.807  25.010  0.00  0.00    +0.092 C 
BRANCH  10   3
ATOM      3  N   UNL     1      -3.969   1.923  25.167  0.00  0.00    -0.302 NA
ATOM     14  C   UNL     1      -3.595   2.468  23.855  0.00  0.00    +0.085 C 
ATOM     15  C   UNL     1      -4.550   2.962  26.028  0.00  0.00    +0.085 C 
ATOM     16  C   UNL     1      -3.105   4.713  24.913  0.00  0.00    +0.017 C 
ATOM     17  C   UNL     1      -2.577   3.601  23.999  0.00  0.00    +0.021 C 
ATOM     18  C   UNL     1      -3.566   4.112  26.245  0.00  0.00    +0.021 C 
BRANCH  16  23
ATOM     23  C   UNL     1      -2.049   5.792  25.132  0.00  0.00    +0.159 C 
BRANCH  23   2
ATOM      2  O   UNL     1      -0.769   5.209  24.971  0.00  0.00    -0.395 OA
ATOM     29  H   UNL     1      -0.881   4.419  24.416  0.00  0.00    +0.209 HD
ENDBRANCH  23   2
ENDBRANCH  16  23
ENDBRANCH  10   3
ENDBRANCH   7  10
BRANCH   9  19
ATOM     19  C   UNL     1      -0.089   0.745  24.503  0.00  0.00    +0.105 C 
BRANCH  19  24
ATOM      1  O   UNL     1       2.178   0.966  23.626  0.00  0.00    -0.425 OA
ATOM      4  N   UNL     1       0.858  -0.379  22.422  0.00  0.00    -0.112 NA
ATOM      5  N   UNL     1       2.100  -0.347  21.817  0.00  0.00    -0.112 NA
ATOM     24  C   UNL     1       0.949   0.401  23.473  0.00  0.00    +0.218 A 
ATOM     25  C   UNL     1       2.838   0.450  22.553  0.00  0.00    +0.217 A 
BRANCH  25  26
ATOM     26  C   UNL     1       4.241   0.848  22.385  0.00  0.00    +0.097 C 
BRANCH  26  27
ATOM     27  C   UNL     1       5.117   0.509  23.610  0.00  0.00    +0.006 C 
ATOM     28  C   UNL     1       5.113  -0.974  23.943  0.00  0.00    +0.004 C 
ENDBRANCH  26  27
ENDBRANCH  25  26
ENDBRANCH  19  24
ENDBRANCH   9  19
TORSDOF 9
ENDMDL
MODEL 2
REMARK VINA RESULT:      -3.2      1.897      4.843
REMARK  Name = 45783996
REMARK  13 active torsions:
REMARK  status: ('A' for Active; 'I' for Inactive)
REMARK    1  A    between atoms: O_2  and  C_23
REMARK    2  A    between atoms: N_3  and  C_10
REMARK    3  A    between atoms: C_6  and  C_11
REMARK    4  A    between atoms: C_7  and  C_10
REMARK    5  A    between atoms: C_9  and  C_19
REMARK    6  A    between atoms: C_11  and  C_20
REMARK    7  A    between atoms: C_11  and  C_21
REMARK    8  A    between atoms: C_13  and  C_22
REMARK    9  A    between atoms: C_16  and  C_23
REMARK   10  A    between atoms: C_19  and  C_24
REMARK   11  A    between atoms: C_25  and  C_26
REMARK   12  A    between atoms: C_26  and  C_27
REMARK   13  A    between atoms: C_27  and  C_28
REMARK                            x       y       z     vdW  Elec       q    Type
REMARK                         _______ _______ _______ _____ _____    ______ ____
ROOT
ATOM      6  C   UNL     1      -2.631   3.024  25.654  0.00  0.00    +0.000 C 
ATOM      7  C   UNL     1      -3.983   2.868  24.919  0.00  0.00    +0.029 C 
ATOM      8  C   UNL     1      -1.606   2.016  25.117  0.00  0.00    +0.012 C 
ATOM      9  C   UNL     1      -1.378   2.128  23.594  0.00  0.00    +0.024 C 
ATOM     12  C   UNL     1      -3.816   2.709  23.429  0.00  0.00    -0.023 C 
ATOM     13  C   UNL     1      -2.659   2.391  22.818  0.00  0.00    -0.073 C 
ATOM     22  C   UNL     1      -2.584   2.344  21.316  0.00  0.00    +0.039 C 
ENDROOT
BRANCH   6  11
ATOM     11  C   UNL     1      -2.101   4.461  25.553  0.00  0.00    -0.013 C 
ATOM     20  C   UNL     1      -0.675   4.465  25.012  0.00  0.00    +0.007 C 
ATOM     21  C   UNL     1      -3.016   5.305  24.673  0.00  0.00    +0.007 C 
ENDBRANCH   6  11
BRANCH   7  10
ATOM     10  C   UNL     1      -4.790   1.686  25.464  0.00  0.00    +0.092 C 
BRANCH  10   3
ATOM      3  N   UNL     1      -4.157   0.418  25.105  0.00  0.00    -0.302 NA
ATOM     14  C   UNL     1      -3.927  -0.399  26.304  0.00  0.00    +0.085 C 
ATOM     15  C   UNL     1      -4.973  -0.304  24.120  0.00  0.00    +0.085 C 
ATOM     16  C   UNL     1      -3.998  -2.502  24.901  0.00  0.00    +0.017 C 
ATOM     17  C   UNL     1      -3.215  -1.707  25.951  0.00  0.00    +0.021 C 
ATOM     18  C   UNL     1      -4.298  -1.608  23.693  0.00  0.00    +0.021 C 
BRANCH  16  23
ATOM     23  C   UNL     1      -3.236  -3.755  24.480  0.00  0.00    +0.159 C 
BRANCH  23   2
ATOM      2  O   UNL     1      -1.988  -3.363  23.938  0.00  0.00    -0.395 OA
ATOM     29  H   UNL     1      -1.716  -2.552  24.399  0.00  0.00    +0.209 HD
ENDBRANCH  23   2
ENDBRANCH  16  23
ENDBRANCH  10   3
ENDBRANCH   7  10
BRANCH   9  19
ATOM     19  C   UNL     1      -0.638   0.874  23.116  0.00  0.00    +0.105 C 
BRANCH  19  24
ATOM      1  O   UNL     1       1.618   0.070  22.646  0.00  0.00    -0.425 OA
ATOM      4  N   UNL     1       1.550   2.032  23.717  0.00  0.00    -0.112 NA
ATOM      5  N   UNL     1       2.877   1.701  23.517  0.00  0.00    -0.112 NA
ATOM     24  C   UNL     1       0.851   1.052  23.193  0.00  0.00    +0.218 A 
ATOM     25  C   UNL     1       2.869   0.549  22.889  0.00  0.00    +0.217 A 
BRANCH  25  26
ATOM     26  C   UNL     1       3.994  -0.270  22.423  0.00  0.00    +0.097 C 
BRANCH  26  27
ATOM     27  C   UNL     1       5.325   0.074  23.126  0.00  0.00    +0.006 C 
ATOM     28  C   UNL     1       5.540  -0.724  24.402  0.00  0.00    +0.004 C 
ENDBRANCH  26  27
ENDBRANCH  25  26
ENDBRANCH  19  24
ENDBRANCH   9  19
TORSDOF 9
ENDMDL
MODEL 3
REMARK VINA RESULT:      -2.2      1.663      5.873
REMARK  Name = 45783996
REMARK  13 active torsions:
REMARK  status: ('A' for Active; 'I' for Inactive)
REMARK    1  A    between atoms: O_2  and  C_23
REMARK    2  A    between atoms: N_3  and  C_10
REMARK    3  A    between atoms: C_6  and  C_11
REMARK    4  A    between atoms: C_7  and  C_10
REMARK    5  A    between atoms: C_9  and  C_19
REMARK    6  A    between atoms: C_11  and  C_20
REMARK    7  A    between atoms: C_11  and  C_21
REMARK    8  A    between atoms: C_13  and  C_22
REMARK    9  A    between atoms: C_16  and  C_23
REMARK   10  A    between atoms: C_19  and  C_24
REMARK   11  A    between atoms: C_25  and  C_26
REMARK   12  A    between atoms: C_26  and  C_27
REMARK   13  A    between atoms: C_27  and  C_28
REMARK                            x       y       z     vdW  Elec       q    Type
REMARK                         _______ _______ _______ _____ _____    ______ ____
ROOT
ATOM      6  C   UNL     1      -3.134  -0.761  24.869  0.00  0.00    +0.000 C 
ATOM      7  C   UNL     1      -1.941  -0.057  24.184  0.00  0.00    +0.029 C 
ATOM      8  C   UNL     1      -4.153   0.272  25.371  0.00  0.00    +0.012 C 
ATOM      9  C   UNL     1      -4.677   1.205  24.258  0.00  0.00    +0.024 C 
ATOM     12  C   UNL     1      -2.375   1.057  23.265  0.00  0.00    -0.023 C 
ATOM     13  C   UNL     1      -3.596   1.625  23.275  0.00  0.00    -0.073 C 
ATOM     22  C   UNL     1      -3.953   2.671  22.255  0.00  0.00    +0.039 C 
ENDROOT
BRANCH   6  11
ATOM     11  C   UNL     1      -3.795  -1.782  23.933  0.00  0.00    -0.013 C 
ATOM     20  C   UNL     1      -3.401  -3.201  24.329  0.00  0.00    +0.007 C 
ATOM     21  C   UNL     1      -5.312  -1.617  23.951  0.00  0.00    +0.007 C 
ENDBRANCH   6  11
BRANCH   7  10
ATOM     10  C   UNL     1      -0.945   0.495  25.209  0.00  0.00    +0.092 C 
BRANCH  10   3
ATOM      3  N   UNL     1       0.420   0.442  24.684  0.00  0.00    -0.302 NA
ATOM     14  C   UNL     1       0.602  -0.751  23.847  0.00  0.00    +0.085 C 
ATOM     15  C   UNL     1       0.730   1.667  23.935  0.00  0.00    +0.085 C 
ATOM     16  C   UNL     1       2.446   0.412  22.566  0.00  0.00    +0.017 C 
ATOM     17  C   UNL     1       2.040  -0.850  23.334  0.00  0.00    +0.021 C 
ATOM     18  C   UNL     1       2.172   1.651  23.425  0.00  0.00    +0.021 C 
BRANCH  16  23
ATOM     23  C   UNL     1       3.911   0.351  22.142  0.00  0.00    +0.159 C 
BRANCH  23   2
ATOM      2  O   UNL     1       4.718   0.382  23.305  0.00  0.00    -0.395 OA
ATOM     29  H   UNL     1       5.543   0.838  23.070  0.00  0.00    +0.209 HD
ENDBRANCH  23   2
ENDBRANCH  16  23
ENDBRANCH  10   3
ENDBRANCH   7  10
BRANCH   9  19
ATOM     19  C   UNL     1      -5.385   2.397  24.912  0.00  0.00    +0.105 C 
BRANCH  19  24
ATOM      1  O   UNL     1      -3.561   4.012  24.756  0.00  0.00    -0.425 OA
ATOM      4  N   UNL     1      -4.224   3.580  26.848  0.00  0.00    -0.112 NA
ATOM      5  N   UNL     1      -3.197   4.502  26.907  0.00  0.00    -0.112 NA
ATOM     24  C   UNL     1      -4.404   3.322  25.573  0.00  0.00    +0.218 A 
ATOM     25  C   UNL     1      -2.841   4.725  25.664  0.00  0.00    +0.217 A 
BRANCH  25  26
ATOM     26  C   UNL     1      -1.802   5.616  25.134  0.00  0.00    +0.097 C 
BRANCH  26  27
ATOM     27  C   UNL     1      -0.505   4.871  24.750  0.00  0.00    +0.006 C 
ATOM     28  C   UNL     1      -0.212   3.691  25.662  0.00  0.00    +0.004 C 
ENDBRANCH  26  27
ENDBRANCH  25  26
ENDBRANCH  19  24
ENDBRANCH   9  19
TORSDOF 9
ENDMDL
MODEL 4
REMARK VINA RESULT:      -1.7      1.662      6.330
REMARK  Name = 45783996
REMARK  13 active torsions:
REMARK  status: ('A' for Active; 'I' for Inactive)
REMARK    1  A    between atoms: O_2  and  C_23
REMARK    2  A    between atoms: N_3  and  C_10
REMARK    3  A    between atoms: C_6  and  C_11
REMARK    4  A    between atoms: C_7  and  C_10
REMARK    5  A    between atoms: C_9  and  C_19
REMARK    6  A    between atoms: C_11  and  C_20
REMARK    7  A    between atoms: C_11  and  C_21
REMARK    8  A    between atoms: C_13  and  C_22
REMARK    9  A    between atoms: C_16  and  C_23
REMARK   10  A    between atoms: C_19  and  C_24
REMARK   11  A    between atoms: C_25  and  C_26
REMARK   12  A    between atoms: C_26  and  C_27
REMARK   13  A    between atoms: C_27  and  C_28
REMARK                            x       y       z     vdW  Elec       q    Type
REMARK                         _______ _______ _______ _____ _____    ______ ____
ROOT
ATOM      6  C   UNL     1      -1.534   0.136  25.508  0.00  0.00    +0.000 C 
ATOM      7  C   UNL     1      -1.315  -0.322  24.048  0.00  0.00    +0.029 C 
ATOM      8  C   UNL     1      -2.961   0.669  25.697  0.00  0.00    +0.012 C 
ATOM      9  C   UNL     1      -4.052  -0.352  25.309  0.00  0.00    +0.024 C 
ATOM     12  C   UNL     1      -2.477  -1.118  23.510  0.00  0.00    -0.023 C 
ATOM     13  C   UNL     1      -3.703  -1.154  24.066  0.00  0.00    -0.073 C 
ATOM     22  C   UNL     1      -4.767  -2.052  23.495  0.00  0.00    +0.039 C 
ENDROOT
BRANCH   6  11
ATOM     11  C   UNL     1      -1.229  -0.994  26.501  0.00  0.00    -0.013 C 
ATOM     20  C   UNL     1      -2.524  -1.593  27.041  0.00  0.00    +0.007 C 
ATOM     21  C   UNL     1      -0.372  -2.068  25.839  0.00  0.00    +0.007 C 
ENDBRANCH   6  11
BRANCH   7  10
ATOM     10  C   UNL     1      -1.044   0.865  23.118  0.00  0.00    +0.092 C 
BRANCH  10   3
ATOM      3  N   UNL     1       0.374   0.929  22.762  0.00  0.00    -0.302 NA
ATOM     14  C   UNL     1       1.152   1.522  23.858  0.00  0.00    +0.085 C 
ATOM     15  C   UNL     1       0.878  -0.406  22.416  0.00  0.00    +0.085 C 
ATOM     16  C   UNL     1       3.218   0.291  23.076  0.00  0.00    +0.017 C 
ATOM     17  C   UNL     1       2.629   1.647  23.481  0.00  0.00    +0.021 C 
ATOM     18  C   UNL     1       2.346  -0.348  21.990  0.00  0.00    +0.021 C 
BRANCH  16  23
ATOM     23  C   UNL     1       4.662   0.437  22.606  0.00  0.00    +0.159 C 
BRANCH  23   2
ATOM      2  O   UNL     1       5.511  -0.170  23.563  0.00  0.00    -0.395 OA
ATOM     29  H   UNL     1       5.222  -1.093  23.658  0.00  0.00    +0.209 HD
ENDBRANCH  23   2
ENDBRANCH  16  23
ENDBRANCH  10   3
ENDBRANCH   7  10
BRANCH   9  19
ATOM     19  C   UNL     1      -5.392   0.384  25.188  0.00  0.00    +0.105 C 
BRANCH  19  24
ATOM      1  O   UNL     1      -4.157   2.435  24.710  0.00  0.00    -0.425 OA
ATOM      4  N   UNL     1      -5.948   2.728  26.018  0.00  0.00    -0.112 NA
ATOM      5  N   UNL     1      -5.350   3.959  25.830  0.00  0.00    -0.112 NA
ATOM     24  C   UNL     1      -5.219   1.867  25.346  0.00  0.00    +0.218 A 
ATOM     25  C   UNL     1      -4.309   3.741  25.062  0.00  0.00    +0.217 A 
BRANCH  25  26
ATOM     26  C   UNL     1      -3.316   4.687  24.540  0.00  0.00    +0.097 C 
BRANCH  26  27
ATOM     27  C   UNL     1      -2.085   4.839  25.460  0.00  0.00    +0.006 C 
ATOM     28  C   UNL     1      -0.792   4.407  24.788  0.00  0.00    +0.004 C 
ENDBRANCH  26  27
ENDBRANCH  25  26
ENDBRANCH  19  24
ENDBRANCH   9  19
TORSDOF 9
ENDMDL
MODEL 5
REMARK VINA RESULT:      -1.5      2.370      6.367
REMARK  Name = 45783996
REMARK  13 active torsions:
REMARK  status: ('A' for Active; 'I' for Inactive)
REMARK    1  A    between atoms: O_2  and  C_23
REMARK    2  A    between atoms: N_3  and  C_10
REMARK    3  A    between atoms: C_6  and  C_11
REMARK    4  A    between atoms: C_7  and  C_10
REMARK    5  A    between atoms: C_9  and  C_19
REMARK    6  A    between atoms: C_11  and  C_20
REMARK    7  A    between atoms: C_11  and  C_21
REMARK    8  A    between atoms: C_13  and  C_22
REMARK    9  A    between atoms: C_16  and  C_23
REMARK   10  A    between atoms: C_19  and  C_24
REMARK   11  A    between atoms: C_25  and  C_26
REMARK   12  A    between atoms: C_26  and  C_27
REMARK   13  A    between atoms: C_27  and  C_28
REMARK                            x       y       z     vdW  Elec       q    Type
REMARK                         _______ _______ _______ _____ _____    ______ ____
ROOT
ATOM      6  C   UNL     1      -1.277   3.475  24.437  0.00  0.00    +0.000 C 
ATOM      7  C   UNL     1      -1.446   3.520  25.973  0.00  0.00    +0.029 C 
ATOM      8  C   UNL     1      -2.440   2.710  23.789  0.00  0.00    +0.012 C 
ATOM      9  C   UNL     1      -3.825   3.295  24.136  0.00  0.00    +0.024 C 
ATOM     12  C   UNL     1      -2.861   3.836  26.390  0.00  0.00    -0.023 C 
ATOM     13  C   UNL     1      -3.934   3.753  25.581  0.00  0.00    -0.073 C 
ATOM     22  C   UNL     1      -5.290   4.176  26.077  0.00  0.00    +0.039 C 
ENDROOT
BRANCH   6  11
ATOM     11  C   UNL     1      -1.144   4.885  23.846  0.00  0.00    -0.013 C 
ATOM     20  C   UNL     1      -1.162   5.931  24.956  0.00  0.00    +0.007 C 
ATOM     21  C   UNL     1       0.132   4.997  23.017  0.00  0.00    +0.007 C 
ENDBRANCH   6  11
BRANCH   7  10
ATOM     10  C   UNL     1      -1.009   2.207  26.629  0.00  0.00    +0.092 C 
BRANCH  10   3
ATOM      3  N   UNL     1      -0.151   1.439  25.727  0.00  0.00    -0.302 NA
ATOM     14  C   UNL     1      -0.932   0.413  25.025  0.00  0.00    +0.085 C 
ATOM     15  C   UNL     1       0.527   2.332  24.778  0.00  0.00    +0.085 C 
ATOM     16  C   UNL     1       0.727   0.437  23.116  0.00  0.00    +0.017 C 
ATOM     17  C   UNL     1      -0.039  -0.435  24.117  0.00  0.00    +0.021 C 
ATOM     18  C   UNL     1       1.470   1.551  23.862  0.00  0.00    +0.021 C 
BRANCH  16  23
ATOM     23  C   UNL     1       1.690  -0.402  22.281  0.00  0.00    +0.159 C 
BRANCH  23   2
ATOM      2  O   UNL     1       2.994  -0.252  22.811  0.00  0.00    -0.395 OA
ATOM     29  H   UNL     1       3.566  -0.887  22.349  0.00  0.00    +0.209 HD
ENDBRANCH  23   2
ENDBRANCH  16  23
ENDBRANCH  10   3
ENDBRANCH   7  10
BRANCH   9  19
ATOM     19  C   UNL     1      -4.900   2.270  23.752  0.00  0.00    +0.105 C 
BRANCH  19  24
ATOM      1  O   UNL     1      -4.503  -0.126  23.509  0.00  0.00    -0.425 OA
ATOM      4  N   UNL     1      -4.465   0.598  25.625  0.00  0.00    -0.112 NA
ATOM      5  N   UNL     1      -4.227  -0.763  25.635  0.00  0.00    -0.112 NA
ATOM     24  C   UNL     1      -4.620   0.927  24.364  0.00  0.00    +0.218 A 
ATOM     25  C   UNL     1      -4.258  -1.143  24.379  0.00  0.00    +0.217 A 
BRANCH  25  26
ATOM     26  C   UNL     1      -4.067  -2.479  23.801  0.00  0.00    +0.097 C 
BRANCH  26  27
ATOM     27  C   UNL     1      -3.133  -3.374  24.643  0.00  0.00    +0.006 C 
ATOM     28  C   UNL     1      -1.667  -3.001  24.492  0.00  0.00    +0.004 C 
ENDBRANCH  26  27
ENDBRANCH  25  26
ENDBRANCH  19  24
ENDBRANCH   9  19
TORSDOF 9
ENDMDL
MODEL 6
REMARK VINA RESULT:      -1.3      2.268      5.246
REMARK  Name = 45783996
REMARK  13 active torsions:
REMARK  status: ('A' for Active; 'I' for Inactive)
REMARK    1  A    between atoms: O_2  and  C_23
REMARK    2  A    between atoms: N_3  and  C_10
REMARK    3  A    between atoms: C_6  and  C_11
REMARK    4  A    between atoms: C_7  and  C_10
REMARK    5  A    between atoms: C_9  and  C_19
REMARK    6  A    between atoms: C_11  and  C_20
REMARK    7  A    between atoms: C_11  and  C_21
REMARK    8  A    between atoms: C_13  and  C_22
REMARK    9  A    between atoms: C_16  and  C_23
REMARK   10  A    between atoms: C_19  and  C_24
REMARK   11  A    between atoms: C_25  and  C_26
REMARK   12  A    between atoms: C_26  and  C_27
REMARK   13  A    between atoms: C_27  and  C_28
REMARK                            x       y       z     vdW  Elec       q    Type
REMARK                         _______ _______ _______ _____ _____    ______ ____
ROOT
ATOM      6  C   UNL     1      -4.629   1.796  25.975  0.00  0.00    +0.000 C 
ATOM      7  C   UNL     1      -4.363   0.718  24.899  0.00  0.00    +0.029 C 
ATOM      8  C   UNL     1      -3.529   2.866  25.949  0.00  0.00    +0.012 C 
ATOM      9  C   UNL     1      -3.368   3.544  24.572  0.00  0.00    +0.024 C 
ATOM     12  C   UNL     1      -3.941   1.311  23.578  0.00  0.00    -0.023 C 
ATOM     13  C   UNL     1      -3.506   2.574  23.410  0.00  0.00    -0.073 C 
ATOM     22  C   UNL     1      -3.193   3.090  22.032  0.00  0.00    +0.039 C 
ENDROOT
BRANCH   6  11
ATOM     11  C   UNL     1      -6.019   2.425  25.806  0.00  0.00    -0.013 C 
ATOM     20  C   UNL     1      -5.906   3.942  25.693  0.00  0.00    +0.007 C 
ATOM     21  C   UNL     1      -6.722   1.843  24.584  0.00  0.00    +0.007 C 
ENDBRANCH   6  11
BRANCH   7  10
ATOM     10  C   UNL     1      -3.307  -0.292  25.358  0.00  0.00    +0.092 C 
BRANCH  10   3
ATOM      3  N   UNL     1      -1.998   0.038  24.794  0.00  0.00    -0.302 NA
ATOM     14  C   UNL     1      -0.976  -0.895  25.287  0.00  0.00    +0.085 C 
ATOM     15  C   UNL     1      -2.054   0.035  23.326  0.00  0.00    +0.085 C 
ATOM     16  C   UNL     1       0.418  -0.484  23.218  0.00  0.00    +0.017 C 
ATOM     17  C   UNL     1       0.409  -0.530  24.750  0.00  0.00    +0.021 C 
ATOM     18  C   UNL     1      -0.707   0.431  22.721  0.00  0.00    +0.021 C 
BRANCH  16  23
ATOM     23  C   UNL     1       1.774  -0.024  22.690  0.00  0.00    +0.159 C 
BRANCH  23   2
ATOM      2  O   UNL     1       2.142   1.163  23.368  0.00  0.00    -0.395 OA
ATOM     29  H   UNL     1       1.675   1.164  24.220  0.00  0.00    +0.209 HD
ENDBRANCH  23   2
ENDBRANCH  16  23
ENDBRANCH  10   3
ENDBRANCH   7  10
BRANCH   9  19
ATOM     19  C   UNL     1      -2.039   4.309  24.555  0.00  0.00    +0.105 C 
BRANCH  19  24
ATOM      1  O   UNL     1      -1.030   3.328  26.549  0.00  0.00    -0.425 OA
ATOM      4  N   UNL     1       0.118   2.959  24.665  0.00  0.00    -0.112 NA
ATOM      5  N   UNL     1       0.797   2.352  25.705  0.00  0.00    -0.112 NA
ATOM     24  C   UNL     1      -0.941   3.516  25.204  0.00  0.00    +0.218 A 
ATOM     25  C   UNL     1       0.091   2.594  26.785  0.00  0.00    +0.217 A 
BRANCH  25  26
ATOM     26  C   UNL     1       0.338   2.188  28.174  0.00  0.00    +0.097 C 
BRANCH  26  27
ATOM     27  C   UNL     1       1.694   2.687  28.717  0.00  0.00    +0.006 C 
ATOM     28  C   UNL     1       2.073   2.037  30.038  0.00  0.00    +0.004 C 
ENDBRANCH  26  27
ENDBRANCH  25  26
ENDBRANCH  19  24
ENDBRANCH   9  19
TORSDOF 9
ENDMDL
MODEL 7
REMARK VINA RESULT:      -0.6      2.465      6.900
REMARK  Name = 45783996
REMARK  13 active torsions:
REMARK  status: ('A' for Active; 'I' for Inactive)
REMARK    1  A    between atoms: O_2  and  C_23
REMARK    2  A    between atoms: N_3  and  C_10
REMARK    3  A    between atoms: C_6  and  C_11
REMARK    4  A    between atoms: C_7  and  C_10
REMARK    5  A    between atoms: C_9  and  C_19
REMARK    6  A    between atoms: C_11  and  C_20
REMARK    7  A    between atoms: C_11  and  C_21
REMARK    8  A    between atoms: C_13  and  C_22
REMARK    9  A    between atoms: C_16  and  C_23
REMARK   10  A    between atoms: C_19  and  C_24
REMARK   11  A    between atoms: C_25  and  C_26
REMARK   12  A    between atoms: C_26  and  C_27
REMARK   13  A    between atoms: C_27  and  C_28
REMARK                            x       y       z     vdW  Elec       q    Type
REMARK                         _______ _______ _______ _____ _____    ______ ____
ROOT
ATOM      6  C   UNL     1       0.020   0.649  23.631  0.00  0.00    +0.000 C 
ATOM      7  C   UNL     1       0.229   1.082  25.100  0.00  0.00    +0.029 C 
ATOM      8  C   UNL     1      -1.192   1.370  23.024  0.00  0.00    +0.012 C 
ATOM      9  C   UNL     1      -1.089   2.909  23.097  0.00  0.00    +0.024 C 
ATOM     12  C   UNL     1       0.084   2.571  25.292  0.00  0.00    -0.023 C 
ATOM     13  C   UNL     1      -0.490   3.404  24.404  0.00  0.00    -0.073 C 
ATOM     22  C   UNL     1      -0.504   4.887  24.657  0.00  0.00    +0.039 C 
ENDROOT
BRANCH   6  11
ATOM     11  C   UNL     1       1.283   0.887  22.791  0.00  0.00    -0.013 C 
ATOM     20  C   UNL     1       2.496   1.075  23.697  0.00  0.00    +0.007 C 
ATOM     21  C   UNL     1       1.504  -0.270  21.823  0.00  0.00    +0.007 C 
ENDBRANCH   6  11
BRANCH   7  10
ATOM     10  C   UNL     1      -0.733   0.356  26.046  0.00  0.00    +0.092 C 
BRANCH  10   3
ATOM      3  N   UNL     1      -1.640  -0.511  25.295  0.00  0.00    -0.302 NA
ATOM     14  C   UNL     1      -1.094  -1.872  25.206  0.00  0.00    +0.085 C 
ATOM     15  C   UNL     1      -2.975  -0.514  25.909  0.00  0.00    +0.085 C 
ATOM     16  C   UNL     1      -3.429  -2.806  24.943  0.00  0.00    +0.017 C 
ATOM     17  C   UNL     1      -2.005  -2.778  24.376  0.00  0.00    +0.021 C 
ATOM     18  C   UNL     1      -3.950  -1.374  25.105  0.00  0.00    +0.021 C 
BRANCH  16  23
ATOM     23  C   UNL     1      -4.357  -3.631  24.057  0.00  0.00    +0.159 C 
BRANCH  23   2
ATOM      2  O   UNL     1      -5.056  -2.752  23.194  0.00  0.00    -0.395 OA
ATOM     29  H   UNL     1      -4.592  -1.899  23.216  0.00  0.00    +0.209 HD
ENDBRANCH  23   2
ENDBRANCH  16  23
ENDBRANCH  10   3
ENDBRANCH   7  10
BRANCH   9  19
ATOM     19  C   UNL     1      -2.471   3.507  22.810  0.00  0.00    +0.105 C 
BRANCH  19  24
ATOM      1  O   UNL     1      -4.371   2.368  23.834  0.00  0.00    -0.425 OA
ATOM      4  N   UNL     1      -3.435   3.933  25.129  0.00  0.00    -0.112 NA
ATOM      5  N   UNL     1      -4.488   3.374  25.828  0.00  0.00    -0.112 NA
ATOM     24  C   UNL     1      -3.404   3.316  23.971  0.00  0.00    +0.218 A 
ATOM     25  C   UNL     1      -5.005   2.466  25.034  0.00  0.00    +0.217 A 
BRANCH  25  26
ATOM     26  C   UNL     1      -6.142   1.565  25.259  0.00  0.00    +0.097 C 
BRANCH  26  27
ATOM     27  C   UNL     1      -7.000   1.967  26.478  0.00  0.00    +0.006 C 
ATOM     28  C   UNL     1      -6.714   1.116  27.705  0.00  0.00    +0.004 C 
ENDBRANCH  26  27
ENDBRANCH  25  26
ENDBRANCH  19  24
ENDBRANCH   9  19
TORSDOF 9
ENDMDL
MODEL 8
REMARK VINA RESULT:      -0.3      2.895      5.647
REMARK  Name = 45783996
REMARK  13 active torsions:
REMARK  status: ('A' for Active; 'I' for Inactive)
REMARK    1  A    between atoms: O_2  and  C_23
REMARK    2  A    between atoms: N_3  and  C_10
REMARK    3  A    between atoms: C_6  and  C_11
REMARK    4  A    between atoms: C_7  and  C_10
REMARK    5  A    between atoms: C_9  and  C_19
REMARK    6  A    between atoms: C_11  and  C_20
REMARK    7  A    between atoms: C_11  and  C_21
REMARK    8  A    between atoms: C_13  and  C_22
REMARK    9  A    between atoms: C_16  and  C_23
REMARK   10  A    between atoms: C_19  and  C_24
REMARK   11  A    between atoms: C_25  and  C_26
REMARK   12  A    between atoms: C_26  and  C_27
REMARK   13  A    between atoms: C_27  and  C_28
REMARK                            x       y       z     vdW  Elec       q    Type
REMARK                         _______ _______ _______ _____ _____    ______ ____
ROOT
ATOM      6  C   UNL     1      -4.377   3.008  25.535  0.00  0.00    +0.000 C 
ATOM      7  C   UNL     1      -5.104   2.095  24.521  0.00  0.00    +0.029 C 
ATOM      8  C   UNL     1      -2.857   2.818  25.436  0.00  0.00    +0.012 C 
ATOM      9  C   UNL     1      -2.299   3.077  24.020  0.00  0.00    +0.024 C 
ATOM     12  C   UNL     1      -4.447   2.099  23.164  0.00  0.00    -0.023 C 
ATOM     13  C   UNL     1      -3.201   2.545  22.918  0.00  0.00    -0.073 C 
ATOM     22  C   UNL     1      -2.674   2.584  21.509  0.00  0.00    +0.039 C 
ENDROOT
BRANCH   6  11
ATOM     11  C   UNL     1      -4.765   4.480  25.344  0.00  0.00    -0.013 C 
ATOM     20  C   UNL     1      -6.241   4.688  25.672  0.00  0.00    +0.007 C 
ATOM     21  C   UNL     1      -3.887   5.379  26.207  0.00  0.00    +0.007 C 
ENDBRANCH   6  11
BRANCH   7  10
ATOM     10  C   UNL     1      -5.205   0.653  25.028  0.00  0.00    +0.092 C 
BRANCH  10   3
ATOM      3  N   UNL     1      -3.887   0.019  25.046  0.00  0.00    -0.302 NA
ATOM     14  C   UNL     1      -3.735  -0.816  26.245  0.00  0.00    +0.085 C 
ATOM     15  C   UNL     1      -3.677  -0.766  23.822  0.00  0.00    +0.085 C 
ATOM     16  C   UNL     1      -2.039  -2.257  25.043  0.00  0.00    +0.017 C 
ATOM     17  C   UNL     1      -2.341  -1.444  26.306  0.00  0.00    +0.021 C 
ATOM     18  C   UNL     1      -2.282  -1.393  23.801  0.00  0.00    +0.021 C 
BRANCH  16  23
ATOM     23  C   UNL     1      -0.613  -2.798  25.065  0.00  0.00    +0.159 C 
BRANCH  23   2
ATOM      2  O   UNL     1       0.220  -1.846  25.701  0.00  0.00    -0.395 OA
ATOM     29  H   UNL     1       0.502  -2.231  26.548  0.00  0.00    +0.209 HD
ENDBRANCH  23   2
ENDBRANCH  16  23
ENDBRANCH  10   3
ENDBRANCH   7  10
BRANCH   9  19
ATOM     19  C   UNL     1      -0.873   2.519  23.946  0.00  0.00    +0.105 C 
BRANCH  19  24
ATOM      1  O   UNL     1       0.439   3.067  25.929  0.00  0.00    -0.425 OA
ATOM      4  N   UNL     1      -0.553   1.064  26.013  0.00  0.00    -0.112 NA
ATOM      5  N   UNL     1       0.149   1.243  27.190  0.00  0.00    -0.112 NA
ATOM     24  C   UNL     1      -0.355   2.154  25.307  0.00  0.00    +0.218 A 
ATOM     25  C   UNL     1       0.712   2.425  27.098  0.00  0.00    +0.217 A 
BRANCH  25  26
ATOM     26  C   UNL     1       1.570   3.130  28.058  0.00  0.00    +0.097 C 
BRANCH  26  27
ATOM     27  C   UNL     1       1.979   2.252  29.261  0.00  0.00    +0.006 C 
ATOM     28  C   UNL     1       1.074   2.448  30.466  0.00  0.00    +0.004 C 
ENDBRANCH  26  27
ENDBRANCH  25  26
ENDBRANCH  19  24
ENDBRANCH   9  19
TORSDOF 9
ENDMDL
MODEL 9
REMARK VINA RESULT:      -0.2      1.635      2.484
REMARK  Name = 45783996
REMARK  13 active torsions:
REMARK  status: ('A' for Active; 'I' for Inactive)
REMARK    1  A    between atoms: O_2  and  C_23
REMARK    2  A    between atoms: N_3  and  C_10
REMARK    3  A    between atoms: C_6  and  C_11
REMARK    4  A    between atoms: C_7  and  C_10
REMARK    5  A    between atoms: C_9  and  C_19
REMARK    6  A    between atoms: C_11  and  C_20
REMARK    7  A    between atoms: C_11  and  C_21
REMARK    8  A    between atoms: C_13  and  C_22
REMARK    9  A    between atoms: C_16  and  C_23
REMARK   10  A    between atoms: C_19  and  C_24
REMARK   11  A    between atoms: C_25  and  C_26
REMARK   12  A    between atoms: C_26  and  C_27
REMARK   13  A    between atoms: C_27  and  C_28
REMARK                            x       y       z     vdW  Elec       q    Type
REMARK                         _______ _______ _______ _____ _____    ______ ____
ROOT
ATOM      6  C   UNL     1      -2.541   0.575  24.860  0.00  0.00    +0.000 C 
ATOM      7  C   UNL     1      -1.731   0.426  26.168  0.00  0.00    +0.029 C 
ATOM      8  C   UNL     1      -1.660   0.263  23.642  0.00  0.00    +0.012 C 
ATOM      9  C   UNL     1      -1.020  -1.141  23.694  0.00  0.00    +0.024 C 
ATOM     12  C   UNL     1      -0.870  -0.811  26.179  0.00  0.00    -0.023 C 
ATOM     13  C   UNL     1      -0.551  -1.531  25.086  0.00  0.00    -0.073 C 
ATOM     22  C   UNL     1       0.244  -2.801  25.222  0.00  0.00    +0.039 C 
ENDROOT
BRANCH   6  11
ATOM     11  C   UNL     1      -3.797  -0.308  24.876  0.00  0.00    -0.013 C 
ATOM     20  C   UNL     1      -3.748  -1.283  26.048  0.00  0.00    +0.007 C 
ATOM     21  C   UNL     1      -5.053   0.555  24.942  0.00  0.00    +0.007 C 
ENDBRANCH   6  11
BRANCH   7  10
ATOM     10  C   UNL     1      -0.853   1.653  26.432  0.00  0.00    +0.092 C 
BRANCH  10   3
ATOM      3  N   UNL     1      -1.308   2.795  25.639  0.00  0.00    -0.302 NA
ATOM     14  C   UNL     1      -2.365   3.526  26.351  0.00  0.00    +0.085 C 
ATOM     15  C   UNL     1      -0.180   3.678  25.314  0.00  0.00    +0.085 C 
ATOM     16  C   UNL     1      -1.759   5.642  25.106  0.00  0.00    +0.017 C 
ATOM     17  C   UNL     1      -2.891   4.691  25.510  0.00  0.00    +0.021 C 
ATOM     18  C   UNL     1      -0.630   4.849  24.439  0.00  0.00    +0.021 C 
BRANCH  16  23
ATOM     23  C   UNL     1      -2.271   6.747  24.187  0.00  0.00    +0.159 C 
BRANCH  23   2
ATOM      2  O   UNL     1      -3.326   6.225  23.400  0.00  0.00    -0.395 OA
ATOM     29  H   UNL     1      -3.839   6.982  23.070  0.00  0.00    +0.209 HD
ENDBRANCH  23   2
ENDBRANCH  16  23
ENDBRANCH  10   3
ENDBRANCH   7  10
BRANCH   9  19
ATOM     19  C   UNL     1       0.098  -1.208  22.647  0.00  0.00    +0.105 C 
BRANCH  19  24
ATOM      1  O   UNL     1       2.410  -0.445  22.471  0.00  0.00    -0.425 OA
ATOM      4  N   UNL     1       1.041   1.008  23.481  0.00  0.00    -0.112 NA
ATOM      5  N   UNL     1       2.306   1.564  23.450  0.00  0.00    -0.112 NA
ATOM     24  C   UNL     1       1.149  -0.164  22.899  0.00  0.00    +0.218 A 
ATOM     25  C   UNL     1       3.072   0.682  22.852  0.00  0.00    +0.217 A 
BRANCH  25  26
ATOM     26  C   UNL     1       4.506   0.745  22.543  0.00  0.00    +0.097 C 
BRANCH  26  27
ATOM     27  C   UNL     1       5.401   0.472  23.772  0.00  0.00    +0.006 C 
ATOM     28  C   UNL     1       5.354  -0.979  24.223  0.00  0.00    +0.004 C 
ENDBRANCH  26  27
ENDBRANCH  25  26
ENDBRANCH  19  24
ENDBRANCH   9  19
TORSDOF 9
ENDMDL
MODEL 10
REMARK VINA RESULT:       0.0      2.235      6.342
REMARK  Name = 45783996
REMARK  13 active torsions:
REMARK  status: ('A' for Active; 'I' for Inactive)
REMARK    1  A    between atoms: O_2  and  C_23
REMARK    2  A    between atoms: N_3  and  C_10
REMARK    3  A    between atoms: C_6  and  C_11
REMARK    4  A    between atoms: C_7  and  C_10
REMARK    5  A    between atoms: C_9  and  C_19
REMARK    6  A    between atoms: C_11  and  C_20
REMARK    7  A    between atoms: C_11  and  C_21
REMARK    8  A    between atoms: C_13  and  C_22
REMARK    9  A    between atoms: C_16  and  C_23
REMARK   10  A    between atoms: C_19  and  C_24
REMARK   11  A    between atoms: C_25  and  C_26
REMARK   12  A    between atoms: C_26  and  C_27
REMARK   13  A    between atoms: C_27  and  C_28
REMARK                            x       y       z     vdW  Elec       q    Type
REMARK                         _______ _______ _______ _____ _____    ______ ____
ROOT
ATOM      6  C   UNL     1      -2.013   2.515  24.461  0.00  0.00    +0.000 C 
ATOM      7  C   UNL     1      -0.639   3.197  24.268  0.00  0.00    +0.029 C 
ATOM      8  C   UNL     1      -1.845   1.153  25.149  0.00  0.00    +0.012 C 
ATOM      9  C   UNL     1      -1.119   1.239  26.508  0.00  0.00    +0.024 C 
ATOM     12  C   UNL     1       0.237   3.091  25.490  0.00  0.00    -0.023 C 
ATOM     13  C   UNL     1       0.032   2.232  26.506  0.00  0.00    -0.073 C 
ATOM     22  C   UNL     1       0.919   2.270  27.721  0.00  0.00    +0.039 C 
ENDROOT
BRANCH   6  11
ATOM     11  C   UNL     1      -2.981   3.414  25.241  0.00  0.00    -0.013 C 
ATOM     20  C   UNL     1      -2.461   4.848  25.280  0.00  0.00    +0.007 C 
ATOM     21  C   UNL     1      -4.374   3.361  24.623  0.00  0.00    +0.007 C 
ENDBRANCH   6  11
BRANCH   7  10
ATOM     10  C   UNL     1       0.111   2.628  23.059  0.00  0.00    +0.092 C 
BRANCH  10   3
ATOM      3  N   UNL     1       1.124   1.664  23.488  0.00  0.00    -0.302 NA
ATOM     14  C   UNL     1       0.744   0.304  23.082  0.00  0.00    +0.085 C 
ATOM     15  C   UNL     1       2.441   2.029  22.950  0.00  0.00    +0.085 C 
ATOM     16  C   UNL     1       3.176  -0.388  23.071  0.00  0.00    +0.017 C 
ATOM     17  C   UNL     1       1.766  -0.723  23.571  0.00  0.00    +0.021 C 
ATOM     18  C   UNL     1       3.522   1.061  23.433  0.00  0.00    +0.021 C 
BRANCH  16  23
ATOM     23  C   UNL     1       4.206  -1.358  23.641  0.00  0.00    +0.159 C 
BRANCH  23   2
ATOM      2  O   UNL     1       5.157  -0.619  24.386  0.00  0.00    -0.395 OA
ATOM     29  H   UNL     1       5.227  -1.039  25.259  0.00  0.00    +0.209 HD
ENDBRANCH  23   2
ENDBRANCH  16  23
ENDBRANCH  10   3
ENDBRANCH   7  10
BRANCH   9  19
ATOM     19  C   UNL     1      -0.689  -0.173  26.924  0.00  0.00    +0.105 C 
BRANCH  19  24
ATOM      1  O   UNL     1      -2.484  -1.377  25.790  0.00  0.00    -0.425 OA
ATOM      4  N   UNL     1      -0.428  -1.976  25.143  0.00  0.00    -0.112 NA
ATOM      5  N   UNL     1      -1.338  -2.730  24.427  0.00  0.00    -0.112 NA
ATOM     24  C   UNL     1      -1.141  -1.200  25.927  0.00  0.00    +0.218 A 
ATOM     25  C   UNL     1      -2.525  -2.347  24.837  0.00  0.00    +0.217 A 
BRANCH  25  26
ATOM     26  C   UNL     1      -3.853  -2.807  24.416  0.00  0.00    +0.097 C 
BRANCH  26  27
ATOM     27  C   UNL     1      -4.611  -1.767  23.563  0.00  0.00    +0.006 C 
ATOM     28  C   UNL     1      -4.667  -0.397  24.219  0.00  0.00    +0.004 C 
ENDBRANCH  26  27
ENDBRANCH  25  26
ENDBRANCH  19  24
ENDBRANCH   9  19
TORSDOF 9
ENDMDL
