MODEL 1
REMARK VINA RESULT:      -5.9      0.000      0.000
REMARK  Name = 28962378
REMARK  10 active torsions:
REMARK  status: ('A' for Active; 'I' for Inactive)
REMARK    1  A    between atoms: O_2  and  C_10
REMARK    2  A    between atoms: O_3  and  C_18
REMARK    3  A    between atoms: N_5  and  C_8
REMARK    4  A    between atoms: N_6  and  C_17
REMARK    5  A    between atoms: N_7  and  C_21
REMARK    6  A    between atoms: C_9  and  C_17
REMARK    7  A    between atoms: C_11  and  C_18
REMARK    8  A    between atoms: C_14  and  C_19
REMARK    9  A    between atoms: C_21  and  C_22
REMARK   10  A    between atoms: C_21  and  C_23
REMARK                            x       y       z     vdW  Elec       q    Type
REMARK                         _______ _______ _______ _____ _____    ______ ____
ROOT
ATOM      1  O   UNL     1      -0.454   3.449  25.496  0.00  0.00    -0.365 OA
ATOM      8  C   UNL     1      -1.922   1.575  25.536  0.00  0.00    +0.118 C 
ATOM      9  C   UNL     1      -0.476   2.020  25.283  0.00  0.00    +0.155 C 
ATOM     10  C   UNL     1      -2.724   2.832  25.234  0.00  0.00    +0.165 C 
ATOM     11  C   UNL     1      -1.790   3.901  25.788  0.00  0.00    +0.174 C 
ENDROOT
BRANCH   8   5
ATOM      5  N   UNL     1      -2.358   0.379  24.836  0.00  0.00    -0.295 NA
ATOM     12  C   UNL     1      -3.815   0.222  24.944  0.00  0.00    +0.085 C 
ATOM     13  C   UNL     1      -1.657  -0.804  25.354  0.00  0.00    +0.085 C 
ATOM     14  C   UNL     1      -3.583  -2.276  24.636  0.00  0.00    -0.012 C 
ATOM     15  C   UNL     1      -4.297  -1.003  24.167  0.00  0.00    +0.018 C 
ATOM     16  C   UNL     1      -2.066  -2.066  24.591  0.00  0.00    +0.018 C 
ATOM     19  C   UNL     1      -3.995  -3.479  23.790  0.00  0.00    +0.007 C 
ENDBRANCH   8   5
BRANCH  10   2
ATOM      2  O   UNL     1      -2.907   3.010  23.836  0.00  0.00    -0.388 OA
ATOM     24  H   UNL     1      -2.189   3.582  23.515  0.00  0.00    +0.210 HD
ENDBRANCH  10   2
BRANCH   9  17
ATOM     17  C   UNL     1       0.085   1.762  23.888  0.00  0.00    +0.139 C 
BRANCH  17   6
ATOM      4  O   UNL     1       1.686  -0.380  22.806  0.00  0.00    -0.253 OA
ATOM      6  N   UNL     1       1.512   1.652  23.919  0.00  0.00    -0.297 N 
ATOM      7  N   UNL     1       3.593   0.723  23.538  0.00  0.00    -0.297 N 
ATOM     20  C   UNL     1       2.218   0.576  23.369  0.00  0.00    +0.300 C 
ATOM     25  H   UNL     1       2.041   2.388  24.377  0.00  0.00    +0.150 HD
ATOM     27  H   UNL     1       3.939   1.585  23.948  0.00  0.00    +0.150 HD
BRANCH   7  21
ATOM     21  C   UNL     1       4.547  -0.250  23.061  0.00  0.00    +0.068 C 
ATOM     22  C   UNL     1       4.340  -1.585  23.765  0.00  0.00    +0.027 C 
ATOM     23  C   UNL     1       5.971   0.259  23.252  0.00  0.00    +0.027 C 
ENDBRANCH   7  21
ENDBRANCH  17   6
ENDBRANCH   9  17
BRANCH  11  18
ATOM     18  C   UNL     1      -1.982   5.295  25.218  0.00  0.00    +0.190 C 
BRANCH  18   3
ATOM      3  O   UNL     1      -0.741   5.757  24.709  0.00  0.00    -0.392 OA
ATOM     26  H   UNL     1      -0.898   6.637  24.328  0.00  0.00    +0.210 HD
ENDBRANCH  18   3
ENDBRANCH  11  18
TORSDOF 7
ENDMDL
MODEL 2
REMARK VINA RESULT:      -4.2     15.584     18.392
REMARK  Name = 28962378
REMARK  10 active torsions:
REMARK  status: ('A' for Active; 'I' for Inactive)
REMARK    1  A    between atoms: O_2  and  C_10
REMARK    2  A    between atoms: O_3  and  C_18
REMARK    3  A    between atoms: N_5  and  C_8
REMARK    4  A    between atoms: N_6  and  C_17
REMARK    5  A    between atoms: N_7  and  C_21
REMARK    6  A    between atoms: C_9  and  C_17
REMARK    7  A    between atoms: C_11  and  C_18
REMARK    8  A    between atoms: C_14  and  C_19
REMARK    9  A    between atoms: C_21  and  C_22
REMARK   10  A    between atoms: C_21  and  C_23
REMARK                            x       y       z     vdW  Elec       q    Type
REMARK                         _______ _______ _______ _____ _____    ______ ____
ROOT
ATOM      1  O   UNL     1      -8.367 -10.674  11.666  0.00  0.00    -0.365 OA
ATOM      8  C   UNL     1      -6.071 -10.637  11.039  0.00  0.00    +0.118 C 
ATOM      9  C   UNL     1      -7.039 -10.583  12.227  0.00  0.00    +0.155 C 
ATOM     10  C   UNL     1      -6.911 -10.104   9.888  0.00  0.00    +0.165 C 
ATOM     11  C   UNL     1      -8.269 -10.707  10.229  0.00  0.00    +0.174 C 
ENDROOT
BRANCH   8   5
ATOM      5  N   UNL     1      -4.788  -9.981  11.224  0.00  0.00    -0.295 NA
ATOM     12  C   UNL     1      -4.144  -9.735   9.927  0.00  0.00    +0.085 C 
ATOM     13  C   UNL     1      -3.924 -10.781  12.103  0.00  0.00    +0.085 C 
ATOM     14  C   UNL     1      -1.871  -9.761  11.035  0.00  0.00    -0.012 C 
ATOM     15  C   UNL     1      -2.816  -8.996  10.102  0.00  0.00    +0.018 C 
ATOM     16  C   UNL     1      -2.588 -10.078  12.352  0.00  0.00    +0.018 C 
ATOM     19  C   UNL     1      -0.589  -8.971  11.284  0.00  0.00    +0.007 C 
ENDBRANCH   8   5
BRANCH  10   2
ATOM      2  O   UNL     1      -6.981  -8.685   9.908  0.00  0.00    -0.388 OA
ATOM     24  H   UNL     1      -6.072  -8.346   9.977  0.00  0.00    +0.210 HD
ENDBRANCH  10   2
BRANCH   9  17
ATOM     17  C   UNL     1      -6.996  -9.324  13.086  0.00  0.00    +0.139 C 
BRANCH  17   6
ATOM      4  O   UNL     1      -9.541  -9.155  14.435  0.00  0.00    -0.253 OA
ATOM      6  N   UNL     1      -7.267  -9.627  14.460  0.00  0.00    -0.297 N 
ATOM      7  N   UNL     1      -8.514  -9.875  16.388  0.00  0.00    -0.297 N 
ATOM     20  C   UNL     1      -8.535  -9.519  15.042  0.00  0.00    +0.300 C 
ATOM     25  H   UNL     1      -6.492  -9.923  15.047  0.00  0.00    +0.150 HD
ATOM     27  H   UNL     1      -7.649 -10.235  16.779  0.00  0.00    +0.150 HD
BRANCH   7  21
ATOM     21  C   UNL     1      -9.693  -9.850  17.221  0.00  0.00    +0.068 C 
ATOM     22  C   UNL     1     -10.093  -8.413  17.532  0.00  0.00    +0.027 C 
ATOM     23  C   UNL     1      -9.462 -10.647  18.499  0.00  0.00    +0.027 C 
ENDBRANCH   7  21
ENDBRANCH  17   6
ENDBRANCH   9  17
BRANCH  11  18
ATOM     18  C   UNL     1      -9.468  -9.997   9.629  0.00  0.00    +0.190 C 
BRANCH  18   3
ATOM      3  O   UNL     1      -9.791  -8.877  10.438  0.00  0.00    -0.392 OA
ATOM     26  H   UNL     1     -10.649  -8.541  10.131  0.00  0.00    +0.210 HD
ENDBRANCH  18   3
ENDBRANCH  11  18
TORSDOF 7
ENDMDL
MODEL 3
REMARK VINA RESULT:      -2.9      2.476      4.684
REMARK  Name = 28962378
REMARK  10 active torsions:
REMARK  status: ('A' for Active; 'I' for Inactive)
REMARK    1  A    between atoms: O_2  and  C_10
REMARK    2  A    between atoms: O_3  and  C_18
REMARK    3  A    between atoms: N_5  and  C_8
REMARK    4  A    between atoms: N_6  and  C_17
REMARK    5  A    between atoms: N_7  and  C_21
REMARK    6  A    between atoms: C_9  and  C_17
REMARK    7  A    between atoms: C_11  and  C_18
REMARK    8  A    between atoms: C_14  and  C_19
REMARK    9  A    between atoms: C_21  and  C_22
REMARK   10  A    between atoms: C_21  and  C_23
REMARK                            x       y       z     vdW  Elec       q    Type
REMARK                         _______ _______ _______ _____ _____    ______ ____
ROOT
ATOM      1  O   UNL     1      -1.373  -1.107  23.824  0.00  0.00    -0.365 OA
ATOM      8  C   UNL     1      -3.174   0.438  24.005  0.00  0.00    +0.118 C 
ATOM      9  C   UNL     1      -1.651   0.310  23.890  0.00  0.00    +0.155 C 
ATOM     10  C   UNL     1      -3.582  -0.881  24.643  0.00  0.00    +0.165 C 
ATOM     11  C   UNL     1      -2.608  -1.835  23.962  0.00  0.00    +0.174 C 
ENDROOT
BRANCH   8   5
ATOM      5  N   UNL     1      -3.670   1.629  24.675  0.00  0.00    -0.295 NA
ATOM     12  C   UNL     1      -5.052   1.425  25.130  0.00  0.00    +0.085 C 
ATOM     13  C   UNL     1      -3.570   2.796  23.788  0.00  0.00    +0.085 C 
ATOM     14  C   UNL     1      -5.468   3.917  25.028  0.00  0.00    -0.012 C 
ATOM     15  C   UNL     1      -5.571   2.650  25.885  0.00  0.00    +0.018 C 
ATOM     16  C   UNL     1      -4.038   4.069  24.498  0.00  0.00    +0.018 C 
ATOM     19  C   UNL     1      -5.893   5.151  25.820  0.00  0.00    +0.007 C 
ENDBRANCH   8   5
BRANCH  10   2
ATOM      2  O   UNL     1      -3.365  -0.871  26.047  0.00  0.00    -0.388 OA
ATOM     24  H   UNL     1      -3.743  -0.046  26.397  0.00  0.00    +0.210 HD
ENDBRANCH  10   2
BRANCH   9  17
ATOM     17  C   UNL     1      -0.828   0.879  25.041  0.00  0.00    +0.139 C 
BRANCH  17   6
ATOM      4  O   UNL     1       1.128  -0.431  23.373  0.00  0.00    -0.253 OA
ATOM      6  N   UNL     1       0.409   1.426  24.569  0.00  0.00    -0.297 N 
ATOM      7  N   UNL     1       2.428   1.490  23.449  0.00  0.00    -0.297 N 
ATOM     20  C   UNL     1       1.309   0.723  23.760  0.00  0.00    +0.300 C 
ATOM     25  H   UNL     1       0.654   2.371  24.850  0.00  0.00    +0.150 HD
ATOM     27  H   UNL     1       2.449   2.459  23.753  0.00  0.00    +0.150 HD
BRANCH   7  21
ATOM     21  C   UNL     1       3.508   0.999  22.627  0.00  0.00    +0.068 C 
ATOM     22  C   UNL     1       2.981   0.014  21.591  0.00  0.00    +0.027 C 
ATOM     23  C   UNL     1       4.592   0.366  23.490  0.00  0.00    +0.027 C 
ENDBRANCH   7  21
ENDBRANCH  17   6
ENDBRANCH   9  17
BRANCH  11  18
ATOM     18  C   UNL     1      -2.343  -3.135  24.700  0.00  0.00    +0.190 C 
BRANCH  18   3
ATOM      3  O   UNL     1      -3.518  -3.514  25.399  0.00  0.00    -0.392 OA
ATOM     26  H   UNL     1      -4.101  -3.956  24.759  0.00  0.00    +0.210 HD
ENDBRANCH  18   3
ENDBRANCH  11  18
TORSDOF 7
ENDMDL
MODEL 4
REMARK VINA RESULT:      -2.7      2.606      5.429
REMARK  Name = 28962378
REMARK  10 active torsions:
REMARK  status: ('A' for Active; 'I' for Inactive)
REMARK    1  A    between atoms: O_2  and  C_10
REMARK    2  A    between atoms: O_3  and  C_18
REMARK    3  A    between atoms: N_5  and  C_8
REMARK    4  A    between atoms: N_6  and  C_17
REMARK    5  A    between atoms: N_7  and  C_21
REMARK    6  A    between atoms: C_9  and  C_17
REMARK    7  A    between atoms: C_11  and  C_18
REMARK    8  A    between atoms: C_14  and  C_19
REMARK    9  A    between atoms: C_21  and  C_22
REMARK   10  A    between atoms: C_21  and  C_23
REMARK                            x       y       z     vdW  Elec       q    Type
REMARK                         _______ _______ _______ _____ _____    ______ ____
ROOT
ATOM      1  O   UNL     1       1.294   1.506  24.613  0.00  0.00    -0.365 OA
ATOM      8  C   UNL     1      -0.802   2.594  24.314  0.00  0.00    +0.118 C 
ATOM      9  C   UNL     1       0.258   2.196  25.348  0.00  0.00    +0.155 C 
ATOM     10  C   UNL     1      -0.615   1.558  23.216  0.00  0.00    +0.165 C 
ATOM     11  C   UNL     1       0.901   1.401  23.232  0.00  0.00    +0.174 C 
ENDROOT
BRANCH   8   5
ATOM      5  N   UNL     1      -2.161   2.735  24.808  0.00  0.00    -0.295 NA
ATOM     12  C   UNL     1      -3.120   2.680  23.697  0.00  0.00    +0.085 C 
ATOM     13  C   UNL     1      -2.303   3.983  25.570  0.00  0.00    +0.085 C 
ATOM     14  C   UNL     1      -4.775   4.041  25.039  0.00  0.00    -0.012 C 
ATOM     15  C   UNL     1      -4.559   2.772  24.206  0.00  0.00    +0.018 C 
ATOM     16  C   UNL     1      -3.715   4.121  26.143  0.00  0.00    +0.018 C 
ATOM     19  C   UNL     1      -6.183   4.078  25.627  0.00  0.00    +0.007 C 
ENDBRANCH   8   5
BRANCH  10   2
ATOM      2  O   UNL     1      -1.244   0.327  23.549  0.00  0.00    -0.388 OA
ATOM     24  H   UNL     1      -1.321   0.289  24.517  0.00  0.00    +0.210 HD
ENDBRANCH  10   2
BRANCH   9  17
ATOM     17  C   UNL     1      -0.195   1.267  26.469  0.00  0.00    +0.139 C 
BRANCH  17   6
ATOM      4  O   UNL     1      -0.565  -1.437  25.533  0.00  0.00    -0.253 OA
ATOM      6  N   UNL     1      -1.435   0.630  26.141  0.00  0.00    -0.297 N 
ATOM      7  N   UNL     1      -2.852  -1.057  25.446  0.00  0.00    -0.297 N 
ATOM     20  C   UNL     1      -1.531  -0.692  25.691  0.00  0.00    +0.300 C 
ATOM     25  H   UNL     1      -2.291   1.171  26.226  0.00  0.00    +0.150 HD
ATOM     27  H   UNL     1      -3.587  -0.396  25.680  0.00  0.00    +0.150 HD
BRANCH   7  21
ATOM     21  C   UNL     1      -3.226  -2.369  24.974  0.00  0.00    +0.068 C 
ATOM     22  C   UNL     1      -2.024  -3.073  24.358  0.00  0.00    +0.027 C 
ATOM     23  C   UNL     1      -4.377  -2.272  23.979  0.00  0.00    +0.027 C 
ENDBRANCH   7  21
ENDBRANCH  17   6
ENDBRANCH   9  17
BRANCH  11  18
ATOM     18  C   UNL     1       1.429   0.099  22.659  0.00  0.00    +0.190 C 
BRANCH  18   3
ATOM      3  O   UNL     1       2.839   0.068  22.813  0.00  0.00    -0.392 OA
ATOM     26  H   UNL     1       3.087  -0.855  22.990  0.00  0.00    +0.210 HD
ENDBRANCH  18   3
ENDBRANCH  11  18
TORSDOF 7
ENDMDL
MODEL 5
REMARK VINA RESULT:      -2.6     17.435     18.919
REMARK  Name = 28962378
REMARK  10 active torsions:
REMARK  status: ('A' for Active; 'I' for Inactive)
REMARK    1  A    between atoms: O_2  and  C_10
REMARK    2  A    between atoms: O_3  and  C_18
REMARK    3  A    between atoms: N_5  and  C_8
REMARK    4  A    between atoms: N_6  and  C_17
REMARK    5  A    between atoms: N_7  and  C_21
REMARK    6  A    between atoms: C_9  and  C_17
REMARK    7  A    between atoms: C_11  and  C_18
REMARK    8  A    between atoms: C_14  and  C_19
REMARK    9  A    between atoms: C_21  and  C_22
REMARK   10  A    between atoms: C_21  and  C_23
REMARK                            x       y       z     vdW  Elec       q    Type
REMARK                         _______ _______ _______ _____ _____    ______ ____
ROOT
ATOM      1  O   UNL     1      12.952  -8.210  30.199  0.00  0.00    -0.365 OA
ATOM      8  C   UNL     1      13.628  -6.036  30.895  0.00  0.00    +0.118 C 
ATOM      9  C   UNL     1      13.896  -7.161  29.888  0.00  0.00    +0.155 C 
ATOM     10  C   UNL     1      13.023  -6.774  32.079  0.00  0.00    +0.165 C 
ATOM     11  C   UNL     1      12.188  -7.826  31.359  0.00  0.00    +0.174 C 
ENDROOT
BRANCH   8   5
ATOM      5  N   UNL     1      14.755  -5.176  31.212  0.00  0.00    -0.295 NA
ATOM     12  C   UNL     1      14.385  -4.205  32.251  0.00  0.00    +0.085 C 
ATOM     13  C   UNL     1      15.240  -4.498  30.002  0.00  0.00    +0.085 C 
ATOM     14  C   UNL     1      16.156  -2.609  31.411  0.00  0.00    -0.012 C 
ATOM     15  C   UNL     1      15.576  -3.326  32.635  0.00  0.00    +0.018 C 
ATOM     16  C   UNL     1      16.462  -3.629  30.309  0.00  0.00    +0.018 C 
ATOM     19  C   UNL     1      17.404  -1.812  31.782  0.00  0.00    +0.007 C 
ENDBRANCH   8   5
BRANCH  10   2
ATOM      2  O   UNL     1      14.025  -7.396  32.873  0.00  0.00    -0.388 OA
ATOM     24  H   UNL     1      14.847  -7.407  32.354  0.00  0.00    +0.210 HD
ENDBRANCH  10   2
BRANCH   9  17
ATOM     17  C   UNL     1      15.288  -7.784  29.913  0.00  0.00    +0.139 C 
BRANCH  17   6
ATOM      4  O   UNL     1      15.806  -7.618  27.079  0.00  0.00    -0.253 OA
ATOM      6  N   UNL     1      15.382  -8.873  28.988  0.00  0.00    -0.297 N 
ATOM      7  N   UNL     1      15.676  -9.932  26.955  0.00  0.00    -0.297 N 
ATOM     20  C   UNL     1      15.637  -8.709  27.621  0.00  0.00    +0.300 C 
ATOM     25  H   UNL     1      15.241  -9.816  29.340  0.00  0.00    +0.150 HD
ATOM     27  H   UNL     1      15.600 -10.783  27.504  0.00  0.00    +0.150 HD
BRANCH   7  21
ATOM     21  C   UNL     1      15.923 -10.042  25.537  0.00  0.00    +0.068 C 
ATOM     22  C   UNL     1      14.752 -10.731  24.848  0.00  0.00    +0.027 C 
ATOM     23  C   UNL     1      17.229 -10.781  25.277  0.00  0.00    +0.027 C 
ENDBRANCH   7  21
ENDBRANCH  17   6
ENDBRANCH   9  17
BRANCH  11  18
ATOM     18  C   UNL     1      11.855  -9.064  32.170  0.00  0.00    +0.190 C 
BRANCH  18   3
ATOM      3  O   UNL     1      12.969  -9.942  32.147  0.00  0.00    -0.392 OA
ATOM     26  H   UNL     1      12.696 -10.763  32.590  0.00  0.00    +0.210 HD
ENDBRANCH  18   3
ENDBRANCH  11  18
TORSDOF 7
ENDMDL
MODEL 6
REMARK VINA RESULT:      -2.4      2.969      5.291
REMARK  Name = 28962378
REMARK  10 active torsions:
REMARK  status: ('A' for Active; 'I' for Inactive)
REMARK    1  A    between atoms: O_2  and  C_10
REMARK    2  A    between atoms: O_3  and  C_18
REMARK    3  A    between atoms: N_5  and  C_8
REMARK    4  A    between atoms: N_6  and  C_17
REMARK    5  A    between atoms: N_7  and  C_21
REMARK    6  A    between atoms: C_9  and  C_17
REMARK    7  A    between atoms: C_11  and  C_18
REMARK    8  A    between atoms: C_14  and  C_19
REMARK    9  A    between atoms: C_21  and  C_22
REMARK   10  A    between atoms: C_21  and  C_23
REMARK                            x       y       z     vdW  Elec       q    Type
REMARK                         _______ _______ _______ _____ _____    ______ ____
ROOT
ATOM      1  O   UNL     1      -0.700  -0.812  23.717  0.00  0.00    -0.365 OA
ATOM      8  C   UNL     1      -2.754   0.159  24.423  0.00  0.00    +0.118 C 
ATOM      9  C   UNL     1      -1.491   0.389  23.584  0.00  0.00    +0.155 C 
ATOM     10  C   UNL     1      -2.295  -0.849  25.465  0.00  0.00    +0.165 C 
ATOM     11  C   UNL     1      -1.360  -1.713  24.627  0.00  0.00    +0.174 C 
ENDROOT
BRANCH   8   5
ATOM      5  N   UNL     1      -3.398   1.349  24.954  0.00  0.00    -0.295 NA
ATOM     12  C   UNL     1      -4.804   1.072  25.277  0.00  0.00    +0.085 C 
ATOM     13  C   UNL     1      -3.281   2.464  24.005  0.00  0.00    +0.085 C 
ATOM     14  C   UNL     1      -5.372   3.515  24.961  0.00  0.00    -0.012 C 
ATOM     15  C   UNL     1      -5.482   2.299  25.888  0.00  0.00    +0.018 C 
ATOM     16  C   UNL     1      -3.907   3.740  24.573  0.00  0.00    +0.018 C 
ATOM     19  C   UNL     1      -5.962   4.761  25.619  0.00  0.00    +0.007 C 
ENDBRANCH   8   5
BRANCH  10   2
ATOM      2  O   UNL     1      -1.577  -0.220  26.518  0.00  0.00    -0.388 OA
ATOM     24  H   UNL     1      -1.093  -0.913  26.999  0.00  0.00    +0.210 HD
ENDBRANCH  10   2
BRANCH   9  17
ATOM     17  C   UNL     1      -0.605   1.562  23.990  0.00  0.00    +0.139 C 
BRANCH  17   6
ATOM      4  O   UNL     1       0.163   3.609  25.873  0.00  0.00    -0.253 OA
ATOM      6  N   UNL     1      -0.060   1.368  25.300  0.00  0.00    -0.297 N 
ATOM      7  N   UNL     1       0.793   1.948  27.366  0.00  0.00    -0.297 N 
ATOM     20  C   UNL     1       0.289   2.418  26.157  0.00  0.00    +0.300 C 
ATOM     25  H   UNL     1       0.095   0.416  25.619  0.00  0.00    +0.150 HD
ATOM     27  H   UNL     1       0.787   0.947  27.536  0.00  0.00    +0.150 HD
BRANCH   7  21
ATOM     21  C   UNL     1       1.228   2.827  28.426  0.00  0.00    +0.068 C 
ATOM     22  C   UNL     1       2.742   2.991  28.392  0.00  0.00    +0.027 C 
ATOM     23  C   UNL     1       0.759   2.306  29.779  0.00  0.00    +0.027 C 
ENDBRANCH   7  21
ENDBRANCH  17   6
ENDBRANCH   9  17
BRANCH  11  18
ATOM     18  C   UNL     1      -0.316  -2.492  25.406  0.00  0.00    +0.190 C 
BRANCH  18   3
ATOM      3  O   UNL     1       0.882  -1.734  25.452  0.00  0.00    -0.392 OA
ATOM     26  H   UNL     1       1.581  -2.323  25.783  0.00  0.00    +0.210 HD
ENDBRANCH  18   3
ENDBRANCH  11  18
TORSDOF 7
ENDMDL
