MODEL 1
REMARK VINA RESULT:      -5.6      0.000      0.000
REMARK  Name = 75366993
REMARK  13 active torsions:
REMARK  status: ('A' for Active; 'I' for Inactive)
REMARK    1  A    between atoms: O_2  and  C_8
REMARK    2  A    between atoms: N_4  and  C_12
REMARK    3  A    between atoms: N_4  and  C_15
REMARK    4  A    between atoms: N_6  and  C_20
REMARK    5  A    between atoms: N_6  and  C_21
REMARK    6  A    between atoms: N_6  and  C_22
REMARK    7  A    between atoms: C_7  and  C_12
REMARK    8  A    between atoms: C_9  and  C_13
REMARK    9  A    between atoms: C_13  and  C_14
REMARK   10  A    between atoms: C_15  and  C_17
REMARK   11  A    between atoms: C_15  and  C_18
REMARK   12  A    between atoms: C_19  and  C_20
REMARK   13  A    between atoms: C_21  and  C_23
REMARK                            x       y       z     vdW  Elec       q    Type
REMARK                         _______ _______ _______ _____ _____    ______ ____
ROOT
ATOM     13  C   UNL     1      -0.240   3.656  24.079  0.00  0.00    +0.090 C 
ENDROOT
BRANCH  13   9
ATOM      1  O   UNL     1       1.043   1.668  24.353  0.00  0.00    -0.369 OA
ATOM      7  C   UNL     1       1.405   0.325  24.003  0.00  0.00    +0.161 C 
ATOM      8  C   UNL     1       0.187  -0.608  24.037  0.00  0.00    +0.145 C 
ATOM      9  C   UNL     1      -0.001   2.242  23.564  0.00  0.00    +0.125 C 
ATOM     10  C   UNL     1      -1.001  -0.042  23.264  0.00  0.00    +0.036 C 
ATOM     11  C   UNL     1      -1.275   1.404  23.665  0.00  0.00    +0.034 C 
BRANCH   8   2
ATOM      2  O   UNL     1      -0.222  -0.781  25.397  0.00  0.00    -0.389 OA
ATOM     30  H   UNL     1      -0.495   0.088  25.736  0.00  0.00    +0.210 HD
ENDBRANCH   8   2
BRANCH   7  12
ATOM     12  C   UNL     1       2.148   0.285  22.670  0.00  0.00    +0.115 C 
BRANCH  12   4
ATOM      4  N   UNL     1       3.420   0.983  22.765  0.00  0.00    -0.311 NA
ATOM     29  H   UNL     1       3.570   1.513  21.906  0.00  0.00    +0.122 HD
BRANCH   4  15
ATOM     15  C   UNL     1       4.518   0.046  22.968  0.00  0.00    +0.048 C 
ATOM     17  C   UNL     1       3.995  -1.259  23.563  0.00  0.00    +0.023 C 
ATOM     18  C   UNL     1       5.567   0.680  23.875  0.00  0.00    +0.023 C 
ENDBRANCH   4  15
ENDBRANCH  12   4
ENDBRANCH   7  12
ENDBRANCH  13   9
BRANCH  13  14
ATOM      3  O   UNL     1      -3.021   4.464  26.223  0.00  0.00    -0.358 OA
ATOM      5  N   UNL     1      -1.692   4.584  25.834  0.00  0.00    -0.083 NA
ATOM     14  C   UNL     1      -1.569   3.779  24.776  0.00  0.00    +0.086 A 
ATOM     16  C   UNL     1      -2.774   3.132  24.454  0.00  0.00    +0.072 A 
ATOM     19  C   UNL     1      -3.655   3.597  25.394  0.00  0.00    +0.151 A 
BRANCH  19  20
ATOM     20  C   UNL     1      -5.076   3.352  25.663  0.00  0.00    +0.161 C 
BRANCH  20   6
ATOM      6  N   UNL     1      -5.392   1.928  25.868  0.00  0.00    -0.294 NA
ATOM     22  C   UNL     1      -6.727   1.789  26.440  0.00  0.00    +0.105 C 
BRANCH   6  21
ATOM     21  C   UNL     1      -5.290   1.205  24.606  0.00  0.00    +0.119 C 
BRANCH  21  23
ATOM     23  C   UNL     1      -4.567  -0.106  24.768  0.00  0.00    -0.033 A 
ATOM     24  C   UNL     1      -3.863  -0.376  25.941  0.00  0.00    +0.005 A 
ATOM     25  C   UNL     1      -4.600  -1.051  23.742  0.00  0.00    +0.005 A 
ATOM     26  C   UNL     1      -3.193  -1.590  26.090  0.00  0.00    +0.000 A 
ATOM     27  C   UNL     1      -3.930  -2.266  23.891  0.00  0.00    +0.000 A 
ATOM     28  C   UNL     1      -3.227  -2.535  25.065  0.00  0.00    +0.000 A 
ENDBRANCH  21  23
ENDBRANCH   6  21
ENDBRANCH  20   6
ENDBRANCH  19  20
ENDBRANCH  13  14
TORSDOF 10
ENDMDL
MODEL 2
REMARK VINA RESULT:      -4.7      2.024      5.683
REMARK  Name = 75366993
REMARK  13 active torsions:
REMARK  status: ('A' for Active; 'I' for Inactive)
REMARK    1  A    between atoms: O_2  and  C_8
REMARK    2  A    between atoms: N_4  and  C_12
REMARK    3  A    between atoms: N_4  and  C_15
REMARK    4  A    between atoms: N_6  and  C_20
REMARK    5  A    between atoms: N_6  and  C_21
REMARK    6  A    between atoms: N_6  and  C_22
REMARK    7  A    between atoms: C_7  and  C_12
REMARK    8  A    between atoms: C_9  and  C_13
REMARK    9  A    between atoms: C_13  and  C_14
REMARK   10  A    between atoms: C_15  and  C_17
REMARK   11  A    between atoms: C_15  and  C_18
REMARK   12  A    between atoms: C_19  and  C_20
REMARK   13  A    between atoms: C_21  and  C_23
REMARK                            x       y       z     vdW  Elec       q    Type
REMARK                         _______ _______ _______ _____ _____    ______ ____
ROOT
ATOM     13  C   UNL     1      -2.298   4.244  26.034  0.00  0.00    +0.090 C 
ENDROOT
BRANCH  13   9
ATOM      1  O   UNL     1      -3.743   2.366  25.792  0.00  0.00    -0.369 OA
ATOM      7  C   UNL     1      -4.929   1.724  25.304  0.00  0.00    +0.161 C 
ATOM      8  C   UNL     1      -6.191   2.479  25.736  0.00  0.00    +0.145 C 
ATOM      9  C   UNL     1      -3.605   3.742  25.431  0.00  0.00    +0.125 C 
ATOM     10  C   UNL     1      -6.105   3.974  25.440  0.00  0.00    +0.036 C 
ATOM     11  C   UNL     1      -4.790   4.556  25.949  0.00  0.00    +0.034 C 
BRANCH   8   2
ATOM      2  O   UNL     1      -6.359   2.324  27.148  0.00  0.00    -0.389 OA
ATOM     30  H   UNL     1      -6.920   3.054  27.461  0.00  0.00    +0.210 HD
ENDBRANCH   8   2
BRANCH   7  12
ATOM     12  C   UNL     1      -4.853   1.504  23.794  0.00  0.00    +0.115 C 
BRANCH  12   4
ATOM      4  N   UNL     1      -3.533   1.034  23.404  0.00  0.00    -0.311 NA
ATOM     29  H   UNL     1      -2.996   0.828  24.246  0.00  0.00    +0.122 HD
BRANCH   4  15
ATOM     15  C   UNL     1      -2.838   2.032  22.602  0.00  0.00    +0.048 C 
ATOM     17  C   UNL     1      -3.775   3.190  22.270  0.00  0.00    +0.023 C 
ATOM     18  C   UNL     1      -2.301   1.380  21.332  0.00  0.00    +0.023 C 
ENDBRANCH   4  15
ENDBRANCH  12   4
ENDBRANCH   7  12
ENDBRANCH  13   9
BRANCH  13  14
ATOM      3  O   UNL     1       0.624   2.136  25.990  0.00  0.00    -0.358 OA
ATOM      5  N   UNL     1      -0.306   2.935  26.643  0.00  0.00    -0.083 NA
ATOM     14  C   UNL     1      -1.142   3.345  25.685  0.00  0.00    +0.086 A 
ATOM     16  C   UNL     1      -0.792   2.842  24.421  0.00  0.00    +0.072 A 
ATOM     19  C   UNL     1       0.324   2.088  24.667  0.00  0.00    +0.151 A 
BRANCH  19  20
ATOM     20  C   UNL     1       1.212   1.280  23.823  0.00  0.00    +0.161 C 
BRANCH  20   6
ATOM      6  N   UNL     1       0.562   0.073  23.285  0.00  0.00    -0.294 NA
ATOM     22  C   UNL     1       1.277  -0.394  22.102  0.00  0.00    +0.105 C 
BRANCH   6  21
ATOM     21  C   UNL     1       0.513  -0.967  24.306  0.00  0.00    +0.119 C 
BRANCH  21  23
ATOM     23  C   UNL     1      -0.902  -1.299  24.700  0.00  0.00    -0.033 A 
ATOM     24  C   UNL     1      -1.624  -2.249  23.978  0.00  0.00    +0.005 A 
ATOM     25  C   UNL     1      -1.491  -0.654  25.788  0.00  0.00    +0.005 A 
ATOM     26  C   UNL     1      -2.935  -2.555  24.343  0.00  0.00    +0.000 A 
ATOM     27  C   UNL     1      -2.802  -0.961  26.153  0.00  0.00    +0.000 A 
ATOM     28  C   UNL     1      -3.524  -1.911  25.430  0.00  0.00    +0.000 A 
ENDBRANCH  21  23
ENDBRANCH   6  21
ENDBRANCH  20   6
ENDBRANCH  19  20
ENDBRANCH  13  14
TORSDOF 10
ENDMDL
MODEL 3
REMARK VINA RESULT:      -4.4      1.619      6.814
REMARK  Name = 75366993
REMARK  13 active torsions:
REMARK  status: ('A' for Active; 'I' for Inactive)
REMARK    1  A    between atoms: O_2  and  C_8
REMARK    2  A    between atoms: N_4  and  C_12
REMARK    3  A    between atoms: N_4  and  C_15
REMARK    4  A    between atoms: N_6  and  C_20
REMARK    5  A    between atoms: N_6  and  C_21
REMARK    6  A    between atoms: N_6  and  C_22
REMARK    7  A    between atoms: C_7  and  C_12
REMARK    8  A    between atoms: C_9  and  C_13
REMARK    9  A    between atoms: C_13  and  C_14
REMARK   10  A    between atoms: C_15  and  C_17
REMARK   11  A    between atoms: C_15  and  C_18
REMARK   12  A    between atoms: C_19  and  C_20
REMARK   13  A    between atoms: C_21  and  C_23
REMARK                            x       y       z     vdW  Elec       q    Type
REMARK                         _______ _______ _______ _____ _____    ______ ____
ROOT
ATOM     13  C   UNL     1      -2.681   4.073  25.717  0.00  0.00    +0.090 C 
ENDROOT
BRANCH  13   9
ATOM      1  O   UNL     1      -3.874   2.017  25.849  0.00  0.00    -0.369 OA
ATOM      7  C   UNL     1      -4.951   1.141  25.485  0.00  0.00    +0.161 C 
ATOM      8  C   UNL     1      -6.314   1.801  25.726  0.00  0.00    +0.145 C 
ATOM      9  C   UNL     1      -3.889   3.295  25.210  0.00  0.00    +0.125 C 
ATOM     10  C   UNL     1      -6.396   3.201  25.124  0.00  0.00    +0.036 C 
ATOM     11  C   UNL     1      -5.186   4.039  25.523  0.00  0.00    +0.034 C 
BRANCH   8   2
ATOM      2  O   UNL     1      -6.525   1.921  27.135  0.00  0.00    -0.389 OA
ATOM     30  H   UNL     1      -6.106   1.154  27.563  0.00  0.00    +0.210 HD
ENDBRANCH   8   2
BRANCH   7  12
ATOM     12  C   UNL     1      -4.781   0.626  24.057  0.00  0.00    +0.115 C 
BRANCH  12   4
ATOM      4  N   UNL     1      -3.581  -0.186  23.937  0.00  0.00    -0.311 NA
ATOM     29  H   UNL     1      -3.590  -0.653  23.030  0.00  0.00    +0.122 HD
BRANCH   4  15
ATOM     15  C   UNL     1      -3.510  -1.175  25.005  0.00  0.00    +0.048 C 
ATOM     17  C   UNL     1      -2.191  -1.041  25.762  0.00  0.00    +0.023 C 
ATOM     18  C   UNL     1      -3.665  -2.573  24.416  0.00  0.00    +0.023 C 
ENDBRANCH   4  15
ENDBRANCH  12   4
ENDBRANCH   7  12
ENDBRANCH  13   9
BRANCH  13  14
ATOM      3  O   UNL     1       0.483   2.362  25.938  0.00  0.00    -0.358 OA
ATOM      5  N   UNL     1      -0.589   3.042  26.502  0.00  0.00    -0.083 NA
ATOM     14  C   UNL     1      -1.395   3.328  25.475  0.00  0.00    +0.086 A 
ATOM     16  C   UNL     1      -0.888   2.857  24.252  0.00  0.00    +0.072 A 
ATOM     19  C   UNL     1       0.294   2.258  24.597  0.00  0.00    +0.151 A 
BRANCH  19  20
ATOM     20  C   UNL     1       1.339   1.561  23.840  0.00  0.00    +0.161 C 
BRANCH  20   6
ATOM      6  N   UNL     1       0.924   0.231  23.363  0.00  0.00    -0.294 NA
ATOM     22  C   UNL     1      -0.412   0.304  22.780  0.00  0.00    +0.105 C 
BRANCH   6  21
ATOM     21  C   UNL     1       1.887  -0.277  22.393  0.00  0.00    +0.119 C 
BRANCH  21  23
ATOM     23  C   UNL     1       3.285  -0.295  22.949  0.00  0.00    -0.033 A 
ATOM     24  C   UNL     1       4.108   0.822  22.808  0.00  0.00    +0.005 A 
ATOM     25  C   UNL     1       3.760  -1.432  23.605  0.00  0.00    +0.005 A 
ATOM     26  C   UNL     1       5.405   0.804  23.323  0.00  0.00    +0.000 A 
ATOM     27  C   UNL     1       5.056  -1.449  24.120  0.00  0.00    +0.000 A 
ATOM     28  C   UNL     1       5.878  -0.331  23.979  0.00  0.00    +0.000 A 
ENDBRANCH  21  23
ENDBRANCH   6  21
ENDBRANCH  20   6
ENDBRANCH  19  20
ENDBRANCH  13  14
TORSDOF 10
ENDMDL
MODEL 4
REMARK VINA RESULT:      -4.0      1.797      4.057
REMARK  Name = 75366993
REMARK  13 active torsions:
REMARK  status: ('A' for Active; 'I' for Inactive)
REMARK    1  A    between atoms: O_2  and  C_8
REMARK    2  A    between atoms: N_4  and  C_12
REMARK    3  A    between atoms: N_4  and  C_15
REMARK    4  A    between atoms: N_6  and  C_20
REMARK    5  A    between atoms: N_6  and  C_21
REMARK    6  A    between atoms: N_6  and  C_22
REMARK    7  A    between atoms: C_7  and  C_12
REMARK    8  A    between atoms: C_9  and  C_13
REMARK    9  A    between atoms: C_13  and  C_14
REMARK   10  A    between atoms: C_15  and  C_17
REMARK   11  A    between atoms: C_15  and  C_18
REMARK   12  A    between atoms: C_19  and  C_20
REMARK   13  A    between atoms: C_21  and  C_23
REMARK                            x       y       z     vdW  Elec       q    Type
REMARK                         _______ _______ _______ _____ _____    ______ ____
ROOT
ATOM     13  C   UNL     1      -1.385  -2.048  24.671  0.00  0.00    +0.090 C 
ENDROOT
BRANCH  13   9
ATOM      1  O   UNL     1      -0.048  -0.798  23.148  0.00  0.00    -0.369 OA
ATOM      7  C   UNL     1       0.988   0.144  22.836  0.00  0.00    +0.161 C 
ATOM      8  C   UNL     1       0.746   1.490  23.531  0.00  0.00    +0.145 C 
ATOM      9  C   UNL     1      -0.260  -1.029  24.542  0.00  0.00    +0.125 C 
ATOM     10  C   UNL     1       0.453   1.331  25.020  0.00  0.00    +0.036 C 
ATOM     11  C   UNL     1      -0.621   0.273  25.255  0.00  0.00    +0.034 C 
BRANCH   8   2
ATOM      2  O   UNL     1      -0.387   2.122  22.930  0.00  0.00    -0.389 OA
ATOM     30  H   UNL     1      -0.097   2.507  22.085  0.00  0.00    +0.210 HD
ENDBRANCH   8   2
BRANCH   7  12
ATOM     12  C   UNL     1       2.368  -0.439  23.130  0.00  0.00    +0.115 C 
BRANCH  12   4
ATOM      4  N   UNL     1       3.393   0.589  23.053  0.00  0.00    -0.311 NA
ATOM     29  H   UNL     1       3.296   1.084  22.166  0.00  0.00    +0.122 HD
BRANCH   4  15
ATOM     15  C   UNL     1       4.726   0.009  23.155  0.00  0.00    +0.048 C 
ATOM     17  C   UNL     1       4.651  -1.379  23.786  0.00  0.00    +0.023 C 
ATOM     18  C   UNL     1       5.622   0.935  23.971  0.00  0.00    +0.023 C 
ENDBRANCH   4  15
ENDBRANCH  12   4
ENDBRANCH   7  12
ENDBRANCH  13   9
BRANCH  13  14
ATOM      3  O   UNL     1      -4.783  -0.939  24.211  0.00  0.00    -0.358 OA
ATOM      5  N   UNL     1      -3.689  -1.726  23.871  0.00  0.00    -0.083 NA
ATOM     14  C   UNL     1      -2.735  -1.384  24.740  0.00  0.00    +0.086 A 
ATOM     16  C   UNL     1      -3.164  -0.396  25.643  0.00  0.00    +0.072 A 
ATOM     19  C   UNL     1      -4.458  -0.151  25.268  0.00  0.00    +0.151 A 
BRANCH  19  20
ATOM     20  C   UNL     1      -5.506   0.750  25.761  0.00  0.00    +0.161 C 
BRANCH  20   6
ATOM      6  N   UNL     1      -5.692   1.942  24.916  0.00  0.00    -0.294 NA
ATOM     22  C   UNL     1      -7.050   1.971  24.384  0.00  0.00    +0.105 C 
BRANCH   6  21
ATOM     21  C   UNL     1      -5.409   3.149  25.685  0.00  0.00    +0.119 C 
BRANCH  21  23
ATOM     23  C   UNL     1      -3.993   3.620  25.487  0.00  0.00    -0.033 A 
ATOM     24  C   UNL     1      -3.615   4.211  24.282  0.00  0.00    +0.005 A 
ATOM     25  C   UNL     1      -3.058   3.464  26.511  0.00  0.00    +0.005 A 
ATOM     26  C   UNL     1      -2.302   4.647  24.099  0.00  0.00    +0.000 A 
ATOM     27  C   UNL     1      -1.745   3.900  26.328  0.00  0.00    +0.000 A 
ATOM     28  C   UNL     1      -1.368   4.491  25.122  0.00  0.00    +0.000 A 
ENDBRANCH  21  23
ENDBRANCH   6  21
ENDBRANCH  20   6
ENDBRANCH  19  20
ENDBRANCH  13  14
TORSDOF 10
ENDMDL
MODEL 5
REMARK VINA RESULT:      -3.8      1.953      7.176
REMARK  Name = 75366993
REMARK  13 active torsions:
REMARK  status: ('A' for Active; 'I' for Inactive)
REMARK    1  A    between atoms: O_2  and  C_8
REMARK    2  A    between atoms: N_4  and  C_12
REMARK    3  A    between atoms: N_4  and  C_15
REMARK    4  A    between atoms: N_6  and  C_20
REMARK    5  A    between atoms: N_6  and  C_21
REMARK    6  A    between atoms: N_6  and  C_22
REMARK    7  A    between atoms: C_7  and  C_12
REMARK    8  A    between atoms: C_9  and  C_13
REMARK    9  A    between atoms: C_13  and  C_14
REMARK   10  A    between atoms: C_15  and  C_17
REMARK   11  A    between atoms: C_15  and  C_18
REMARK   12  A    between atoms: C_19  and  C_20
REMARK   13  A    between atoms: C_21  and  C_23
REMARK                            x       y       z     vdW  Elec       q    Type
REMARK                         _______ _______ _______ _____ _____    ______ ____
ROOT
ATOM     13  C   UNL     1      -4.352  -0.780  24.866  0.00  0.00    +0.090 C 
ENDROOT
BRANCH  13   9
ATOM      1  O   UNL     1      -4.486   1.508  24.217  0.00  0.00    -0.369 OA
ATOM      7  C   UNL     1      -4.597   2.909  24.500  0.00  0.00    +0.161 C 
ATOM      8  C   UNL     1      -5.837   3.210  25.352  0.00  0.00    +0.145 C 
ATOM      9  C   UNL     1      -4.477   0.655  25.364  0.00  0.00    +0.125 C 
ATOM     10  C   UNL     1      -5.939   2.300  26.573  0.00  0.00    +0.036 C 
ATOM     11  C   UNL     1      -5.756   0.837  26.181  0.00  0.00    +0.034 C 
BRANCH   8   2
ATOM      2  O   UNL     1      -7.005   2.999  24.554  0.00  0.00    -0.389 OA
ATOM     30  H   UNL     1      -7.779   3.062  25.140  0.00  0.00    +0.210 HD
ENDBRANCH   8   2
BRANCH   7  12
ATOM     12  C   UNL     1      -3.307   3.451  25.114  0.00  0.00    +0.115 C 
BRANCH  12   4
ATOM      4  N   UNL     1      -2.166   3.157  24.263  0.00  0.00    -0.311 NA
ATOM     29  H   UNL     1      -2.104   2.148  24.132  0.00  0.00    +0.122 HD
BRANCH   4  15
ATOM     15  C   UNL     1      -0.931   3.659  24.852  0.00  0.00    +0.048 C 
ATOM     17  C   UNL     1      -0.658   2.961  26.181  0.00  0.00    +0.023 C 
ATOM     18  C   UNL     1      -1.032   5.169  25.035  0.00  0.00    +0.023 C 
ENDBRANCH   4  15
ENDBRANCH  12   4
ENDBRANCH   7  12
ENDBRANCH  13   9
BRANCH  13  14
ATOM      3  O   UNL     1      -1.198  -2.434  24.314  0.00  0.00    -0.358 OA
ATOM      5  N   UNL     1      -2.562  -2.444  24.577  0.00  0.00    -0.083 NA
ATOM     14  C   UNL     1      -2.918  -1.156  24.604  0.00  0.00    +0.086 A 
ATOM     16  C   UNL     1      -1.831  -0.298  24.366  0.00  0.00    +0.072 A 
ATOM     19  C   UNL     1      -0.774  -1.150  24.190  0.00  0.00    +0.151 A 
BRANCH  19  20
ATOM     20  C   UNL     1       0.653  -0.956  23.908  0.00  0.00    +0.161 C 
BRANCH  20   6
ATOM      6  N   UNL     1       0.917   0.175  23.002  0.00  0.00    -0.294 NA
ATOM     22  C   UNL     1       1.231   1.372  23.775  0.00  0.00    +0.105 C 
BRANCH   6  21
ATOM     21  C   UNL     1       2.007  -0.156  22.091  0.00  0.00    +0.119 C 
BRANCH  21  23
ATOM     23  C   UNL     1       3.334  -0.205  22.801  0.00  0.00    -0.033 A 
ATOM     24  C   UNL     1       3.739  -1.372  23.446  0.00  0.00    +0.005 A 
ATOM     25  C   UNL     1       4.158   0.921  22.814  0.00  0.00    +0.005 A 
ATOM     26  C   UNL     1       4.969  -1.417  24.103  0.00  0.00    +0.000 A 
ATOM     27  C   UNL     1       5.388   0.877  23.472  0.00  0.00    +0.000 A 
ATOM     28  C   UNL     1       5.793  -0.292  24.116  0.00  0.00    +0.000 A 
ENDBRANCH  21  23
ENDBRANCH   6  21
ENDBRANCH  20   6
ENDBRANCH  19  20
ENDBRANCH  13  14
TORSDOF 10
ENDMDL
MODEL 6
REMARK VINA RESULT:      -3.0      1.886      4.131
REMARK  Name = 75366993
REMARK  13 active torsions:
REMARK  status: ('A' for Active; 'I' for Inactive)
REMARK    1  A    between atoms: O_2  and  C_8
REMARK    2  A    between atoms: N_4  and  C_12
REMARK    3  A    between atoms: N_4  and  C_15
REMARK    4  A    between atoms: N_6  and  C_20
REMARK    5  A    between atoms: N_6  and  C_21
REMARK    6  A    between atoms: N_6  and  C_22
REMARK    7  A    between atoms: C_7  and  C_12
REMARK    8  A    between atoms: C_9  and  C_13
REMARK    9  A    between atoms: C_13  and  C_14
REMARK   10  A    between atoms: C_15  and  C_17
REMARK   11  A    between atoms: C_15  and  C_18
REMARK   12  A    between atoms: C_19  and  C_20
REMARK   13  A    between atoms: C_21  and  C_23
REMARK                            x       y       z     vdW  Elec       q    Type
REMARK                         _______ _______ _______ _____ _____    ______ ____
ROOT
ATOM     13  C   UNL     1      -4.094  -1.193  23.873  0.00  0.00    +0.090 C 
ENDROOT
BRANCH  13   9
ATOM      1  O   UNL     1      -2.029  -0.208  24.534  0.00  0.00    -0.369 OA
ATOM      7  C   UNL     1      -0.609  -0.236  24.735  0.00  0.00    +0.161 C 
ATOM      8  C   UNL     1      -0.196  -1.404  25.640  0.00  0.00    +0.145 C 
ATOM      9  C   UNL     1      -2.593  -1.416  24.018  0.00  0.00    +0.125 C 
ATOM     10  C   UNL     1      -0.806  -2.729  25.194  0.00  0.00    +0.036 C 
ATOM     11  C   UNL     1      -2.306  -2.588  24.955  0.00  0.00    +0.034 C 
BRANCH   8   2
ATOM      2  O   UNL     1      -0.655  -1.139  26.969  0.00  0.00    -0.389 OA
ATOM     30  H   UNL     1      -1.029  -0.242  26.980  0.00  0.00    +0.210 HD
ENDBRANCH   8   2
BRANCH   7  12
ATOM     12  C   UNL     1       0.136  -0.225  23.401  0.00  0.00    +0.115 C 
BRANCH  12   4
ATOM      4  N   UNL     1       1.323   0.612  23.478  0.00  0.00    -0.311 NA
ATOM     29  H   UNL     1       1.101   1.532  23.098  0.00  0.00    +0.122 HD
BRANCH   4  15
ATOM     15  C   UNL     1       2.429   0.020  22.735  0.00  0.00    +0.048 C 
ATOM     17  C   UNL     1       2.952  -1.216  23.462  0.00  0.00    +0.023 C 
ATOM     18  C   UNL     1       3.531   1.058  22.553  0.00  0.00    +0.023 C 
ENDBRANCH   4  15
ENDBRANCH  12   4
ENDBRANCH   7  12
ENDBRANCH  13   9
BRANCH  13  14
ATOM      3  O   UNL     1      -5.614   1.929  24.835  0.00  0.00    -0.358 OA
ATOM      5  N   UNL     1      -5.567   0.541  24.810  0.00  0.00    -0.083 NA
ATOM     14  C   UNL     1      -4.470   0.246  24.106  0.00  0.00    +0.086 A 
ATOM     16  C   UNL     1      -3.792   1.396  23.668  0.00  0.00    +0.072 A 
ATOM     19  C   UNL     1      -4.552   2.427  24.152  0.00  0.00    +0.151 A 
BRANCH  19  20
ATOM     20  C   UNL     1      -4.446   3.889  24.080  0.00  0.00    +0.161 C 
BRANCH  20   6
ATOM      6  N   UNL     1      -4.692   4.554  25.371  0.00  0.00    -0.294 NA
ATOM     22  C   UNL     1      -6.079   4.360  25.778  0.00  0.00    +0.105 C 
BRANCH   6  21
ATOM     21  C   UNL     1      -3.777   4.037  26.383  0.00  0.00    +0.119 C 
BRANCH  21  23
ATOM     23  C   UNL     1      -2.356   3.999  25.887  0.00  0.00    -0.033 A 
ATOM     24  C   UNL     1      -1.564   2.876  26.121  0.00  0.00    +0.005 A 
ATOM     25  C   UNL     1      -1.832   5.089  25.191  0.00  0.00    +0.005 A 
ATOM     26  C   UNL     1      -0.247   2.842  25.662  0.00  0.00    +0.000 A 
ATOM     27  C   UNL     1      -0.515   5.055  24.732  0.00  0.00    +0.000 A 
ATOM     28  C   UNL     1       0.277   3.931  24.967  0.00  0.00    +0.000 A 
ENDBRANCH  21  23
ENDBRANCH   6  21
ENDBRANCH  20   6
ENDBRANCH  19  20
ENDBRANCH  13  14
TORSDOF 10
ENDMDL
MODEL 7
REMARK VINA RESULT:      -2.6      1.931      3.575
REMARK  Name = 75366993
REMARK  13 active torsions:
REMARK  status: ('A' for Active; 'I' for Inactive)
REMARK    1  A    between atoms: O_2  and  C_8
REMARK    2  A    between atoms: N_4  and  C_12
REMARK    3  A    between atoms: N_4  and  C_15
REMARK    4  A    between atoms: N_6  and  C_20
REMARK    5  A    between atoms: N_6  and  C_21
REMARK    6  A    between atoms: N_6  and  C_22
REMARK    7  A    between atoms: C_7  and  C_12
REMARK    8  A    between atoms: C_9  and  C_13
REMARK    9  A    between atoms: C_13  and  C_14
REMARK   10  A    between atoms: C_15  and  C_17
REMARK   11  A    between atoms: C_15  and  C_18
REMARK   12  A    between atoms: C_19  and  C_20
REMARK   13  A    between atoms: C_21  and  C_23
REMARK                            x       y       z     vdW  Elec       q    Type
REMARK                         _______ _______ _______ _____ _____    ______ ____
ROOT
ATOM     13  C   UNL     1       0.680   3.145  24.094  0.00  0.00    +0.090 C 
ENDROOT
BRANCH  13   9
ATOM      1  O   UNL     1       0.003   1.021  23.255  0.00  0.00    -0.369 OA
ATOM      7  C   UNL     1       0.192  -0.384  23.039  0.00  0.00    +0.161 C 
ATOM      8  C   UNL     1       1.519  -0.666  22.324  0.00  0.00    +0.145 C 
ATOM      9  C   UNL     1       1.058   1.675  23.963  0.00  0.00    +0.125 C 
ATOM     10  C   UNL     1       2.697   0.044  22.984  0.00  0.00    +0.036 C 
ATOM     11  C   UNL     1       2.384   1.519  23.220  0.00  0.00    +0.034 C 
BRANCH   8   2
ATOM      2  O   UNL     1       1.425  -0.195  20.977  0.00  0.00    -0.389 OA
ATOM     30  H   UNL     1       0.655  -0.623  20.567  0.00  0.00    +0.210 HD
ENDBRANCH   8   2
BRANCH   7  12
ATOM     12  C   UNL     1       0.039  -1.165  24.343  0.00  0.00    +0.115 C 
BRANCH  12   4
ATOM      4  N   UNL     1      -1.014  -2.161  24.231  0.00  0.00    -0.311 NA
ATOM     29  H   UNL     1      -1.663  -1.872  23.499  0.00  0.00    +0.122 HD
BRANCH   4  15
ATOM     15  C   UNL     1      -1.726  -2.316  25.493  0.00  0.00    +0.048 C 
ATOM     17  C   UNL     1      -3.109  -2.911  25.251  0.00  0.00    +0.023 C 
ATOM     18  C   UNL     1      -1.825  -0.963  26.190  0.00  0.00    +0.023 C 
ENDBRANCH   4  15
ENDBRANCH  12   4
ENDBRANCH   7  12
ENDBRANCH  13   9
BRANCH  13  14
ATOM      3  O   UNL     1      -1.868   2.999  26.638  0.00  0.00    -0.358 OA
ATOM      5  N   UNL     1      -0.681   2.567  26.060  0.00  0.00    -0.083 NA
ATOM     14  C   UNL     1      -0.524   3.335  24.979  0.00  0.00    +0.086 A 
ATOM     16  C   UNL     1      -1.569   4.261  24.825  0.00  0.00    +0.072 A 
ATOM     19  C   UNL     1      -2.388   4.009  25.894  0.00  0.00    +0.151 A 
BRANCH  19  20
ATOM     20  C   UNL     1      -3.651   4.588  26.365  0.00  0.00    +0.161 C 
BRANCH  20   6
ATOM      6  N   UNL     1      -4.833   4.042  25.676  0.00  0.00    -0.294 NA
ATOM     22  C   UNL     1      -5.916   5.019  25.691  0.00  0.00    +0.105 C 
BRANCH   6  21
ATOM     21  C   UNL     1      -4.489   3.669  24.308  0.00  0.00    +0.119 C 
BRANCH  21  23
ATOM     23  C   UNL     1      -4.392   2.176  24.142  0.00  0.00    -0.033 A 
ATOM     24  C   UNL     1      -5.223   1.335  24.881  0.00  0.00    +0.005 A 
ATOM     25  C   UNL     1      -3.468   1.633  23.249  0.00  0.00    +0.005 A 
ATOM     26  C   UNL     1      -5.133  -0.048  24.727  0.00  0.00    +0.000 A 
ATOM     27  C   UNL     1      -3.377   0.249  23.095  0.00  0.00    +0.000 A 
ATOM     28  C   UNL     1      -4.210  -0.591  23.834  0.00  0.00    +0.000 A 
ENDBRANCH  21  23
ENDBRANCH   6  21
ENDBRANCH  20   6
ENDBRANCH  19  20
ENDBRANCH  13  14
TORSDOF 10
ENDMDL
