MODEL 1
REMARK VINA RESULT:       0.8      0.000      0.000
REMARK  Name = 25388930
REMARK  9 active torsions:
REMARK  status: ('A' for Active; 'I' for Inactive)
REMARK    1  A    between atoms: S_1  and  N_7
REMARK    2  A    between atoms: S_1  and  C_22
REMARK    3  A    between atoms: O_4  and  C_23
REMARK    4  A    between atoms: O_4  and  C_28
REMARK    5  A    between atoms: N_6  and  C_20
REMARK    6  A    between atoms: N_7  and  C_16
REMARK    7  A    between atoms: C_10  and  C_17
REMARK    8  A    between atoms: C_11  and  C_16
REMARK    9  A    between atoms: C_19  and  C_21
REMARK                            x       y       z     vdW  Elec       q    Type
REMARK                         _______ _______ _______ _____ _____    ______ ____
ROOT
ATOM      5  N   UNL     1      -5.289   2.283  24.091  0.00  0.00    -0.297 NA
ATOM      9  C   UNL     1      -3.634   2.919  25.999  0.00  0.00    +0.002 C 
ATOM     10  C   UNL     1      -3.036   3.291  24.613  0.00  0.00    +0.055 C 
ATOM     11  C   UNL     1      -5.102   1.127  25.007  0.00  0.00    +0.072 C 
ATOM     12  C   UNL     1      -3.972   1.413  26.020  0.00  0.00    +0.024 C 
ATOM     13  C   UNL     1      -4.968   3.685  26.128  0.00  0.00    +0.019 C 
ATOM     14  C   UNL     1      -3.982   2.702  23.527  0.00  0.00    +0.094 C 
ATOM     15  C   UNL     1      -5.833   3.410  24.886  0.00  0.00    +0.085 C 
ENDROOT
BRANCH  10  17
ATOM      6  N   UNL     1      -0.565   3.862  24.509  0.00  0.00    -0.270 N 
ATOM      8  N   UNL     1       0.653   3.372  24.223  0.00  0.00    -0.171 NA
ATOM     17  C   UNL     1      -1.575   2.958  24.349  0.00  0.00    +0.044 A 
ATOM     18  C   UNL     1      -0.974   1.797  23.926  0.00  0.00    +0.053 A 
ATOM     19  C   UNL     1       0.397   2.111  23.867  0.00  0.00    +0.096 A 
ATOM     20  C   UNL     1      -0.691   5.235  24.940  0.00  0.00    +0.172 C 
BRANCH  19  21
ATOM     21  C   UNL     1       1.465   1.229  23.477  0.00  0.00    +0.044 A 
ATOM     23  C   UNL     1       1.282  -0.154  23.462  0.00  0.00    +0.129 A 
ATOM     24  C   UNL     1       2.696   1.774  23.109  0.00  0.00    +0.014 A 
ATOM     25  C   UNL     1       2.330  -0.992  23.080  0.00  0.00    +0.046 A 
ATOM     26  C   UNL     1       3.743   0.936  22.727  0.00  0.00    +0.001 A 
ATOM     27  C   UNL     1       3.561  -0.447  22.713  0.00  0.00    +0.004 A 
BRANCH  23   4
ATOM      4  O   UNL     1       0.090  -0.714  23.815  0.00  0.00    -0.494 OA
ATOM     28  C   UNL     1       0.040  -1.393  25.067  0.00  0.00    +0.277 C 
ENDBRANCH  23   4
ENDBRANCH  19  21
ENDBRANCH  10  17
BRANCH  11  16
ATOM     16  C   UNL     1      -4.872  -0.184  24.252  0.00  0.00    +0.124 C 
BRANCH  16   7
ATOM      7  N   UNL     1      -3.528  -0.695  24.568  0.00  0.00    -0.193 NA
ATOM     29  H   UNL     1      -3.040  -0.148  25.290  0.00  0.00    +0.148 HD
BRANCH   7   1
ATOM      1  S   UNL     1      -3.260  -2.381  24.588  0.00  0.00    +0.027 S 
ATOM      2  O   UNL     1      -3.416  -2.888  25.937  0.00  0.00    -0.158 OA
ATOM      3  O   UNL     1      -2.060  -2.667  23.823  0.00  0.00    -0.158 OA
ATOM     22  C   UNL     1      -4.648  -2.944  23.629  0.00  0.00    +0.214 C 
ENDBRANCH   7   1
ENDBRANCH  16   7
ENDBRANCH  11  16
TORSDOF 6
ENDMDL
MODEL 2
REMARK VINA RESULT:       1.7      2.719      5.632
REMARK  Name = 25388930
REMARK  9 active torsions:
REMARK  status: ('A' for Active; 'I' for Inactive)
REMARK    1  A    between atoms: S_1  and  N_7
REMARK    2  A    between atoms: S_1  and  C_22
REMARK    3  A    between atoms: O_4  and  C_23
REMARK    4  A    between atoms: O_4  and  C_28
REMARK    5  A    between atoms: N_6  and  C_20
REMARK    6  A    between atoms: N_7  and  C_16
REMARK    7  A    between atoms: C_10  and  C_17
REMARK    8  A    between atoms: C_11  and  C_16
REMARK    9  A    between atoms: C_19  and  C_21
REMARK                            x       y       z     vdW  Elec       q    Type
REMARK                         _______ _______ _______ _____ _____    ______ ____
ROOT
ATOM      5  N   UNL     1      -2.838  -2.658  23.666  0.00  0.00    -0.297 NA
ATOM      9  C   UNL     1      -2.964  -1.584  26.036  0.00  0.00    +0.002 C 
ATOM     10  C   UNL     1      -3.803  -0.760  25.020  0.00  0.00    +0.055 C 
ATOM     11  C   UNL     1      -1.469  -2.501  24.226  0.00  0.00    +0.072 C 
ATOM     12  C   UNL     1      -1.508  -1.681  25.534  0.00  0.00    +0.024 C 
ATOM     13  C   UNL     1      -3.541  -3.017  26.032  0.00  0.00    +0.019 C 
ATOM     14  C   UNL     1      -3.517  -1.340  23.605  0.00  0.00    +0.094 C 
ATOM     15  C   UNL     1      -3.606  -3.532  24.584  0.00  0.00    +0.085 C 
ENDROOT
BRANCH  10  17
ATOM      6  N   UNL     1      -4.757   1.578  25.271  0.00  0.00    -0.270 N 
ATOM      8  N   UNL     1      -4.447   2.885  25.266  0.00  0.00    -0.171 NA
ATOM     17  C   UNL     1      -3.689   0.757  25.057  0.00  0.00    +0.044 A 
ATOM     18  C   UNL     1      -2.605   1.586  24.899  0.00  0.00    +0.053 A 
ATOM     19  C   UNL     1      -3.131   2.884  25.038  0.00  0.00    +0.096 A 
ATOM     20  C   UNL     1      -6.128   1.178  25.492  0.00  0.00    +0.172 C 
BRANCH  19  21
ATOM     21  C   UNL     1      -2.401   4.122  24.956  0.00  0.00    +0.044 A 
ATOM     23  C   UNL     1      -1.006   4.133  24.992  0.00  0.00    +0.129 A 
ATOM     24  C   UNL     1      -3.106   5.319  24.838  0.00  0.00    +0.014 A 
ATOM     25  C   UNL     1      -0.317   5.343  24.911  0.00  0.00    +0.046 A 
ATOM     26  C   UNL     1      -2.417   6.529  24.756  0.00  0.00    +0.001 A 
ATOM     27  C   UNL     1      -1.022   6.541  24.793  0.00  0.00    +0.004 A 
BRANCH  23   4
ATOM      4  O   UNL     1      -0.291   2.977  25.107  0.00  0.00    -0.494 OA
ATOM     28  C   UNL     1       0.225   2.662  26.396  0.00  0.00    +0.277 C 
ENDBRANCH  23   4
ENDBRANCH  19  21
ENDBRANCH  10  17
BRANCH  11  16
ATOM     16  C   UNL     1      -0.489  -1.909  23.211  0.00  0.00    +0.124 C 
BRANCH  16   7
ATOM      7  N   UNL     1       0.338  -0.888  23.875  0.00  0.00    -0.193 NA
ATOM     29  H   UNL     1       0.621  -1.147  24.830  0.00  0.00    +0.148 HD
BRANCH   7   1
ATOM      1  S   UNL     1       1.483  -0.015  22.958  0.00  0.00    +0.027 S 
ATOM      2  O   UNL     1       1.574   1.345  23.451  0.00  0.00    -0.158 OA
ATOM      3  O   UNL     1       1.247  -0.280  21.551  0.00  0.00    -0.158 OA
ATOM     22  C   UNL     1       2.980  -0.862  23.413  0.00  0.00    +0.214 C 
ENDBRANCH   7   1
ENDBRANCH  16   7
ENDBRANCH  11  16
TORSDOF 6
ENDMDL
MODEL 3
REMARK VINA RESULT:       2.4      2.728      4.427
REMARK  Name = 25388930
REMARK  9 active torsions:
REMARK  status: ('A' for Active; 'I' for Inactive)
REMARK    1  A    between atoms: S_1  and  N_7
REMARK    2  A    between atoms: S_1  and  C_22
REMARK    3  A    between atoms: O_4  and  C_23
REMARK    4  A    between atoms: O_4  and  C_28
REMARK    5  A    between atoms: N_6  and  C_20
REMARK    6  A    between atoms: N_7  and  C_16
REMARK    7  A    between atoms: C_10  and  C_17
REMARK    8  A    between atoms: C_11  and  C_16
REMARK    9  A    between atoms: C_19  and  C_21
REMARK                            x       y       z     vdW  Elec       q    Type
REMARK                         _______ _______ _______ _____ _____    ______ ____
ROOT
ATOM      5  N   UNL     1      -5.461   2.298  26.442  0.00  0.00    -0.297 NA
ATOM      9  C   UNL     1      -5.072   1.711  23.935  0.00  0.00    +0.002 C 
ATOM     10  C   UNL     1      -4.377   0.667  24.853  0.00  0.00    +0.055 C 
ATOM     11  C   UNL     1      -4.975   3.498  25.709  0.00  0.00    +0.072 C 
ATOM     12  C   UNL     1      -4.543   3.120  24.275  0.00  0.00    +0.024 C 
ATOM     13  C   UNL     1      -6.574   1.690  24.294  0.00  0.00    +0.019 C 
ATOM     14  C   UNL     1      -4.481   1.192  26.313  0.00  0.00    +0.094 C 
ATOM     15  C   UNL     1      -6.732   1.866  25.814  0.00  0.00    +0.085 C 
ENDROOT
BRANCH  10  17
ATOM      6  N   UNL     1      -2.543  -1.070  24.599  0.00  0.00    -0.270 N 
ATOM      8  N   UNL     1      -1.262  -1.253  24.238  0.00  0.00    -0.171 NA
ATOM     17  C   UNL     1      -2.965   0.223  24.497  0.00  0.00    +0.044 A 
ATOM     18  C   UNL     1      -1.884   0.935  24.038  0.00  0.00    +0.053 A 
ATOM     19  C   UNL     1      -0.865  -0.026  23.896  0.00  0.00    +0.096 A 
ATOM     20  C   UNL     1      -3.322  -2.203  25.043  0.00  0.00    +0.172 C 
BRANCH  19  21
ATOM     21  C   UNL     1       0.481   0.208  23.442  0.00  0.00    +0.044 A 
ATOM     23  C   UNL     1       1.184   1.345  23.842  0.00  0.00    +0.129 A 
ATOM     24  C   UNL     1       1.082  -0.720  22.591  0.00  0.00    +0.014 A 
ATOM     25  C   UNL     1       2.488   1.553  23.392  0.00  0.00    +0.046 A 
ATOM     26  C   UNL     1       2.385  -0.512  22.140  0.00  0.00    +0.001 A 
ATOM     27  C   UNL     1       3.088   0.625  22.540  0.00  0.00    +0.004 A 
BRANCH  23   4
ATOM      4  O   UNL     1       0.622   2.268  24.674  0.00  0.00    -0.494 OA
ATOM     28  C   UNL     1       0.512   1.916  26.050  0.00  0.00    +0.277 C 
ENDBRANCH  23   4
ENDBRANCH  19  21
ENDBRANCH  10  17
BRANCH  11  16
ATOM     16  C   UNL     1      -3.867   4.232  26.464  0.00  0.00    +0.124 C 
BRANCH  16   7
ATOM      7  N   UNL     1      -2.559   3.811  25.934  0.00  0.00    -0.193 NA
ATOM     29  H   UNL     1      -2.520   2.814  25.683  0.00  0.00    +0.148 HD
BRANCH   7   1
ATOM      1  S   UNL     1      -1.681   4.878  24.930  0.00  0.00    +0.027 S 
ATOM      2  O   UNL     1      -0.332   5.031  25.437  0.00  0.00    -0.158 OA
ATOM      3  O   UNL     1      -2.508   6.039  24.658  0.00  0.00    -0.158 OA
ATOM     22  C   UNL     1      -1.598   3.922  23.433  0.00  0.00    +0.214 C 
ENDBRANCH   7   1
ENDBRANCH  16   7
ENDBRANCH  11  16
TORSDOF 6
ENDMDL
MODEL 4
REMARK VINA RESULT:       2.8      2.246      5.426
REMARK  Name = 25388930
REMARK  9 active torsions:
REMARK  status: ('A' for Active; 'I' for Inactive)
REMARK    1  A    between atoms: S_1  and  N_7
REMARK    2  A    between atoms: S_1  and  C_22
REMARK    3  A    between atoms: O_4  and  C_23
REMARK    4  A    between atoms: O_4  and  C_28
REMARK    5  A    between atoms: N_6  and  C_20
REMARK    6  A    between atoms: N_7  and  C_16
REMARK    7  A    between atoms: C_10  and  C_17
REMARK    8  A    between atoms: C_11  and  C_16
REMARK    9  A    between atoms: C_19  and  C_21
REMARK                            x       y       z     vdW  Elec       q    Type
REMARK                         _______ _______ _______ _____ _____    ______ ____
ROOT
ATOM      5  N   UNL     1      -1.438   4.997  25.760  0.00  0.00    -0.297 NA
ATOM      9  C   UNL     1      -2.881   4.346  23.691  0.00  0.00    +0.002 C 
ATOM     10  C   UNL     1      -3.490   3.748  24.989  0.00  0.00    +0.055 C 
ATOM     11  C   UNL     1      -0.569   4.440  24.689  0.00  0.00    +0.072 C 
ATOM     12  C   UNL     1      -1.423   3.860  23.541  0.00  0.00    +0.024 C 
ATOM     13  C   UNL     1      -2.830   5.877  23.886  0.00  0.00    +0.019 C 
ATOM     14  C   UNL     1      -2.475   4.005  26.139  0.00  0.00    +0.094 C 
ATOM     15  C   UNL     1      -2.121   6.194  25.214  0.00  0.00    +0.085 C 
ENDROOT
BRANCH  10  17
ATOM      6  N   UNL     1      -5.244   1.939  25.298  0.00  0.00    -0.270 N 
ATOM      8  N   UNL     1      -5.471   0.618  25.204  0.00  0.00    -0.171 NA
ATOM     17  C   UNL     1      -3.975   2.306  24.957  0.00  0.00    +0.044 A 
ATOM     18  C   UNL     1      -3.327   1.142  24.619  0.00  0.00    +0.053 A 
ATOM     19  C   UNL     1      -4.297   0.137  24.790  0.00  0.00    +0.096 A 
ATOM     20  C   UNL     1      -6.312   2.811  25.731  0.00  0.00    +0.172 C 
BRANCH  19  21
ATOM     21  C   UNL     1      -4.123  -1.274  24.564  0.00  0.00    +0.044 A 
ATOM     23  C   UNL     1      -3.445  -2.068  25.490  0.00  0.00    +0.129 A 
ATOM     24  C   UNL     1      -4.643  -1.846  23.403  0.00  0.00    +0.014 A 
ATOM     25  C   UNL     1      -3.287  -3.434  25.254  0.00  0.00    +0.046 A 
ATOM     26  C   UNL     1      -4.485  -3.212  23.167  0.00  0.00    +0.001 A 
ATOM     27  C   UNL     1      -3.807  -4.005  24.092  0.00  0.00    +0.004 A 
BRANCH  23   4
ATOM      4  O   UNL     1      -2.927  -1.536  26.634  0.00  0.00    -0.494 OA
ATOM     28  C   UNL     1      -1.588  -1.054  26.574  0.00  0.00    +0.277 C 
ENDBRANCH  23   4
ENDBRANCH  19  21
ENDBRANCH  10  17
BRANCH  11  16
ATOM     16  C   UNL     1       0.435   3.418  25.226  0.00  0.00    +0.124 C 
BRANCH  16   7
ATOM      7  N   UNL     1      -0.111   2.063  25.043  0.00  0.00    -0.193 NA
ATOM     29  H   UNL     1      -1.112   1.989  25.267  0.00  0.00    +0.148 HD
BRANCH   7   1
ATOM      1  S   UNL     1       0.444   1.109  23.740  0.00  0.00    +0.027 S 
ATOM      2  O   UNL     1       1.866   1.318  23.548  0.00  0.00    -0.158 OA
ATOM      3  O   UNL     1      -0.483   1.255  22.634  0.00  0.00    -0.158 OA
ATOM     22  C   UNL     1       0.217  -0.523  24.411  0.00  0.00    +0.214 C 
ENDBRANCH   7   1
ENDBRANCH  16   7
ENDBRANCH  11  16
TORSDOF 6
ENDMDL
MODEL 5
REMARK VINA RESULT:       3.7      2.577      4.246
REMARK  Name = 25388930
REMARK  9 active torsions:
REMARK  status: ('A' for Active; 'I' for Inactive)
REMARK    1  A    between atoms: S_1  and  N_7
REMARK    2  A    between atoms: S_1  and  C_22
REMARK    3  A    between atoms: O_4  and  C_23
REMARK    4  A    between atoms: O_4  and  C_28
REMARK    5  A    between atoms: N_6  and  C_20
REMARK    6  A    between atoms: N_7  and  C_16
REMARK    7  A    between atoms: C_10  and  C_17
REMARK    8  A    between atoms: C_11  and  C_16
REMARK    9  A    between atoms: C_19  and  C_21
REMARK                            x       y       z     vdW  Elec       q    Type
REMARK                         _______ _______ _______ _____ _____    ______ ____
ROOT
ATOM      5  N   UNL     1      -4.599   2.768  25.853  0.00  0.00    -0.297 NA
ATOM      9  C   UNL     1      -4.561   1.051  23.895  0.00  0.00    +0.002 C 
ATOM     10  C   UNL     1      -3.509   0.670  24.973  0.00  0.00    +0.055 C 
ATOM     11  C   UNL     1      -4.515   3.483  24.551  0.00  0.00    +0.072 C 
ATOM     12  C   UNL     1      -4.284   2.485  23.396  0.00  0.00    +0.024 C 
ATOM     13  C   UNL     1      -5.934   1.074  24.601  0.00  0.00    +0.019 C 
ATOM     14  C   UNL     1      -3.450   1.840  25.997  0.00  0.00    +0.094 C 
ATOM     15  C   UNL     1      -5.845   1.967  25.851  0.00  0.00    +0.085 C 
ENDROOT
BRANCH  10  17
ATOM      6  N   UNL     1      -1.692  -1.052  24.556  0.00  0.00    -0.270 N 
ATOM      8  N   UNL     1      -0.440  -1.223  24.098  0.00  0.00    -0.171 NA
ATOM     17  C   UNL     1      -2.126   0.240  24.507  0.00  0.00    +0.044 A 
ATOM     18  C   UNL     1      -1.083   0.965  23.981  0.00  0.00    +0.053 A 
ATOM     19  C   UNL     1      -0.074   0.012  23.749  0.00  0.00    +0.096 A 
ATOM     20  C   UNL     1      -2.430  -2.197  25.037  0.00  0.00    +0.172 C 
BRANCH  19  21
ATOM     21  C   UNL     1       1.234   0.261  23.200  0.00  0.00    +0.044 A 
ATOM     23  C   UNL     1       1.632  -0.334  22.003  0.00  0.00    +0.129 A 
ATOM     24  C   UNL     1       2.106   1.109  23.882  0.00  0.00    +0.014 A 
ATOM     25  C   UNL     1       2.903  -0.080  21.487  0.00  0.00    +0.046 A 
ATOM     26  C   UNL     1       3.377   1.363  23.367  0.00  0.00    +0.001 A 
ATOM     27  C   UNL     1       3.776   0.769  22.170  0.00  0.00    +0.004 A 
BRANCH  23   4
ATOM      4  O   UNL     1       0.800  -1.167  21.315  0.00  0.00    -0.494 OA
ATOM     28  C   UNL     1       0.166  -0.634  20.155  0.00  0.00    +0.277 C 
ENDBRANCH  23   4
ENDBRANCH  19  21
ENDBRANCH  10  17
BRANCH  11  16
ATOM     16  C   UNL     1      -3.464   4.594  24.563  0.00  0.00    +0.124 C 
BRANCH  16   7
ATOM      7  N   UNL     1      -2.372   4.217  25.477  0.00  0.00    -0.193 NA
ATOM     29  H   UNL     1      -2.623   3.459  26.125  0.00  0.00    +0.148 HD
BRANCH   7   1
ATOM      1  S   UNL     1      -0.764   4.218  24.901  0.00  0.00    +0.027 S 
ATOM      2  O   UNL     1      -0.201   5.549  25.020  0.00  0.00    -0.158 OA
ATOM      3  O   UNL     1      -0.726   3.507  23.637  0.00  0.00    -0.158 OA
ATOM     22  C   UNL     1       0.018   3.183  26.117  0.00  0.00    +0.214 C 
ENDBRANCH   7   1
ENDBRANCH  16   7
ENDBRANCH  11  16
TORSDOF 6
ENDMDL
MODEL 6
REMARK VINA RESULT:       3.8      2.817      4.157
REMARK  Name = 25388930
REMARK  9 active torsions:
REMARK  status: ('A' for Active; 'I' for Inactive)
REMARK    1  A    between atoms: S_1  and  N_7
REMARK    2  A    between atoms: S_1  and  C_22
REMARK    3  A    between atoms: O_4  and  C_23
REMARK    4  A    between atoms: O_4  and  C_28
REMARK    5  A    between atoms: N_6  and  C_20
REMARK    6  A    between atoms: N_7  and  C_16
REMARK    7  A    between atoms: C_10  and  C_17
REMARK    8  A    between atoms: C_11  and  C_16
REMARK    9  A    between atoms: C_19  and  C_21
REMARK                            x       y       z     vdW  Elec       q    Type
REMARK                         _______ _______ _______ _____ _____    ______ ____
ROOT
ATOM      5  N   UNL     1      -3.810   0.145  25.520  0.00  0.00    -0.297 NA
ATOM      9  C   UNL     1      -2.455  -1.356  23.879  0.00  0.00    +0.002 C 
ATOM     10  C   UNL     1      -1.513  -0.721  24.939  0.00  0.00    +0.055 C 
ATOM     11  C   UNL     1      -4.149   0.494  24.115  0.00  0.00    +0.072 C 
ATOM     12  C   UNL     1      -3.210  -0.237  23.131  0.00  0.00    +0.024 C 
ATOM     13  C   UNL     1      -3.510  -2.175  24.654  0.00  0.00    +0.019 C 
ATOM     14  C   UNL     1      -2.352   0.309  25.747  0.00  0.00    +0.094 C 
ATOM     15  C   UNL     1      -4.153  -1.282  25.729  0.00  0.00    +0.085 C 
ENDROOT
BRANCH  10  17
ATOM      6  N   UNL     1       0.007   1.190  24.246  0.00  0.00    -0.270 N 
ATOM      8  N   UNL     1       1.248   1.497  23.832  0.00  0.00    -0.171 NA
ATOM     17  C   UNL     1      -0.187  -0.142  24.467  0.00  0.00    +0.044 A 
ATOM     18  C   UNL     1       1.011  -0.749  24.173  0.00  0.00    +0.053 A 
ATOM     19  C   UNL     1       1.856   0.309  23.789  0.00  0.00    +0.096 A 
ATOM     20  C   UNL     1      -0.963   2.247  24.413  0.00  0.00    +0.172 C 
BRANCH  19  21
ATOM     21  C   UNL     1       3.232   0.205  23.381  0.00  0.00    +0.044 A 
ATOM     23  C   UNL     1       3.575   0.139  22.030  0.00  0.00    +0.129 A 
ATOM     24  C   UNL     1       4.229   0.173  24.356  0.00  0.00    +0.014 A 
ATOM     25  C   UNL     1       4.915   0.040  21.654  0.00  0.00    +0.046 A 
ATOM     26  C   UNL     1       5.569   0.073  23.981  0.00  0.00    +0.001 A 
ATOM     27  C   UNL     1       5.912   0.006  22.630  0.00  0.00    +0.004 A 
BRANCH  23   4
ATOM      4  O   UNL     1       2.622   0.171  21.055  0.00  0.00    -0.494 OA
ATOM     28  C   UNL     1       1.518  -0.719  21.202  0.00  0.00    +0.277 C 
ENDBRANCH  23   4
ENDBRANCH  19  21
ENDBRANCH  10  17
BRANCH  11  16
ATOM     16  C   UNL     1      -4.161   2.005  23.877  0.00  0.00    +0.124 C 
BRANCH  16   7
ATOM      7  N   UNL     1      -5.449   2.556  24.332  0.00  0.00    -0.193 NA
ATOM     29  H   UNL     1      -6.254   1.956  24.109  0.00  0.00    +0.148 HD
BRANCH   7   1
ATOM      1  S   UNL     1      -5.520   3.392  25.820  0.00  0.00    +0.027 S 
ATOM      2  O   UNL     1      -5.951   2.491  26.870  0.00  0.00    -0.158 OA
ATOM      3  O   UNL     1      -6.194   4.659  25.605  0.00  0.00    -0.158 OA
ATOM     22  C   UNL     1      -3.796   3.746  26.077  0.00  0.00    +0.214 C 
ENDBRANCH   7   1
ENDBRANCH  16   7
ENDBRANCH  11  16
TORSDOF 6
ENDMDL
MODEL 7
REMARK VINA RESULT:       3.9      2.608      4.696
REMARK  Name = 25388930
REMARK  9 active torsions:
REMARK  status: ('A' for Active; 'I' for Inactive)
REMARK    1  A    between atoms: S_1  and  N_7
REMARK    2  A    between atoms: S_1  and  C_22
REMARK    3  A    between atoms: O_4  and  C_23
REMARK    4  A    between atoms: O_4  and  C_28
REMARK    5  A    between atoms: N_6  and  C_20
REMARK    6  A    between atoms: N_7  and  C_16
REMARK    7  A    between atoms: C_10  and  C_17
REMARK    8  A    between atoms: C_11  and  C_16
REMARK    9  A    between atoms: C_19  and  C_21
REMARK                            x       y       z     vdW  Elec       q    Type
REMARK                         _______ _______ _______ _____ _____    ______ ____
ROOT
ATOM      5  N   UNL     1      -3.419   5.378  24.137  0.00  0.00    -0.297 NA
ATOM      9  C   UNL     1      -1.405   4.326  25.411  0.00  0.00    +0.002 C 
ATOM     10  C   UNL     1      -1.663   3.568  24.079  0.00  0.00    +0.055 C 
ATOM     11  C   UNL     1      -3.794   5.114  25.552  0.00  0.00    +0.072 C 
ATOM     12  C   UNL     1      -2.690   4.305  26.266  0.00  0.00    +0.024 C 
ATOM     13  C   UNL     1      -1.132   5.800  25.039  0.00  0.00    +0.019 C 
ATOM     14  C   UNL     1      -2.989   4.118  23.481  0.00  0.00    +0.094 C 
ATOM     15  C   UNL     1      -2.269   6.314  24.139  0.00  0.00    +0.085 C 
ENDROOT
BRANCH  10  17
ATOM      6  N   UNL     1      -0.468   1.330  23.994  0.00  0.00    -0.270 N 
ATOM      8  N   UNL     1      -0.649  -0.001  24.032  0.00  0.00    -0.171 NA
ATOM     17  C   UNL     1      -1.625   2.047  24.099  0.00  0.00    +0.044 A 
ATOM     18  C   UNL     1      -2.632   1.119  24.212  0.00  0.00    +0.053 A 
ATOM     19  C   UNL     1      -1.972  -0.124  24.165  0.00  0.00    +0.096 A 
ATOM     20  C   UNL     1       0.869   1.857  23.852  0.00  0.00    +0.172 C 
BRANCH  19  21
ATOM     21  C   UNL     1      -2.583  -1.425  24.243  0.00  0.00    +0.044 A 
ATOM     23  C   UNL     1      -2.033  -2.426  25.045  0.00  0.00    +0.129 A 
ATOM     24  C   UNL     1      -3.740  -1.678  23.506  0.00  0.00    +0.014 A 
ATOM     25  C   UNL     1      -2.640  -3.680  25.108  0.00  0.00    +0.046 A 
ATOM     26  C   UNL     1      -4.347  -2.932  23.570  0.00  0.00    +0.001 A 
ATOM     27  C   UNL     1      -3.797  -3.934  24.370  0.00  0.00    +0.004 A 
BRANCH  23   4
ATOM      4  O   UNL     1      -0.903  -2.207  25.777  0.00  0.00    -0.494 OA
ATOM     28  C   UNL     1       0.279  -2.883  25.359  0.00  0.00    +0.277 C 
ENDBRANCH  23   4
ENDBRANCH  19  21
ENDBRANCH  10  17
BRANCH  11  16
ATOM     16  C   UNL     1      -5.163   4.444  25.675  0.00  0.00    +0.124 C 
BRANCH  16   7
ATOM      7  N   UNL     1      -4.988   3.079  26.201  0.00  0.00    -0.193 NA
ATOM     29  H   UNL     1      -4.569   3.052  27.140  0.00  0.00    +0.148 HD
BRANCH   7   1
ATOM      1  S   UNL     1      -6.175   1.898  25.869  0.00  0.00    +0.027 S 
ATOM      2  O   UNL     1      -6.709   2.099  24.536  0.00  0.00    -0.158 OA
ATOM      3  O   UNL     1      -7.059   1.797  27.015  0.00  0.00    -0.158 OA
ATOM     22  C   UNL     1      -5.174   0.428  25.841  0.00  0.00    +0.214 C 
ENDBRANCH   7   1
ENDBRANCH  16   7
ENDBRANCH  11  16
TORSDOF 6
ENDMDL
MODEL 8
REMARK VINA RESULT:       4.3      1.580      2.076
REMARK  Name = 25388930
REMARK  9 active torsions:
REMARK  status: ('A' for Active; 'I' for Inactive)
REMARK    1  A    between atoms: S_1  and  N_7
REMARK    2  A    between atoms: S_1  and  C_22
REMARK    3  A    between atoms: O_4  and  C_23
REMARK    4  A    between atoms: O_4  and  C_28
REMARK    5  A    between atoms: N_6  and  C_20
REMARK    6  A    between atoms: N_7  and  C_16
REMARK    7  A    between atoms: C_10  and  C_17
REMARK    8  A    between atoms: C_11  and  C_16
REMARK    9  A    between atoms: C_19  and  C_21
REMARK                            x       y       z     vdW  Elec       q    Type
REMARK                         _______ _______ _______ _____ _____    ______ ____
ROOT
ATOM      5  N   UNL     1      -4.265   3.094  24.154  0.00  0.00    -0.297 NA
ATOM      9  C   UNL     1      -2.112   3.125  25.620  0.00  0.00    +0.002 C 
ATOM     10  C   UNL     1      -1.743   3.087  24.111  0.00  0.00    +0.055 C 
ATOM     11  C   UNL     1      -4.355   2.051  25.210  0.00  0.00    +0.072 C 
ATOM     12  C   UNL     1      -3.009   1.914  25.955  0.00  0.00    +0.024 C 
ATOM     13  C   UNL     1      -2.964   4.395  25.838  0.00  0.00    +0.019 C 
ATOM     14  C   UNL     1      -3.062   2.867  23.316  0.00  0.00    +0.094 C 
ATOM     15  C   UNL     1      -4.121   4.408  24.825  0.00  0.00    +0.085 C 
ENDROOT
BRANCH  10  17
ATOM      6  N   UNL     1      -0.798   1.222  22.672  0.00  0.00    -0.270 N 
ATOM      8  N   UNL     1       0.300   0.485  22.431  0.00  0.00    -0.171 NA
ATOM     17  C   UNL     1      -0.636   2.144  23.665  0.00  0.00    +0.044 A 
ATOM     18  C   UNL     1       0.658   1.997  24.105  0.00  0.00    +0.053 A 
ATOM     19  C   UNL     1       1.185   0.963  23.309  0.00  0.00    +0.096 A 
ATOM     20  C   UNL     1      -1.993   0.984  21.897  0.00  0.00    +0.172 C 
BRANCH  19  21
ATOM     21  C   UNL     1       2.518   0.422  23.372  0.00  0.00    +0.044 A 
ATOM     23  C   UNL     1       2.728  -0.942  23.574  0.00  0.00    +0.129 A 
ATOM     24  C   UNL     1       3.607   1.282  23.228  0.00  0.00    +0.014 A 
ATOM     25  C   UNL     1       4.027  -1.446  23.632  0.00  0.00    +0.046 A 
ATOM     26  C   UNL     1       4.906   0.778  23.286  0.00  0.00    +0.001 A 
ATOM     27  C   UNL     1       5.116  -0.586  23.488  0.00  0.00    +0.004 A 
BRANCH  23   4
ATOM      4  O   UNL     1       1.682  -1.806  23.717  0.00  0.00    -0.494 OA
ATOM     28  C   UNL     1       1.144  -1.958  25.028  0.00  0.00    +0.277 C 
ENDBRANCH  23   4
ENDBRANCH  19  21
ENDBRANCH  10  17
BRANCH  11  16
ATOM     16  C   UNL     1      -4.843   0.708  24.663  0.00  0.00    +0.124 C 
BRANCH  16   7
ATOM      7  N   UNL     1      -3.736   0.044  23.954  0.00  0.00    -0.193 NA
ATOM     29  H   UNL     1      -2.965   0.680  23.710  0.00  0.00    +0.148 HD
BRANCH   7   1
ATOM      1  S   UNL     1      -3.293  -1.544  24.399  0.00  0.00    +0.027 S 
ATOM      2  O   UNL     1      -1.906  -1.783  24.051  0.00  0.00    -0.158 OA
ATOM      3  O   UNL     1      -4.335  -2.453  23.961  0.00  0.00    -0.158 OA
ATOM     22  C   UNL     1      -3.400  -1.428  26.170  0.00  0.00    +0.214 C 
ENDBRANCH   7   1
ENDBRANCH  16   7
ENDBRANCH  11  16
TORSDOF 6
ENDMDL
MODEL 9
REMARK VINA RESULT:       4.5      1.868      2.919
REMARK  Name = 25388930
REMARK  9 active torsions:
REMARK  status: ('A' for Active; 'I' for Inactive)
REMARK    1  A    between atoms: S_1  and  N_7
REMARK    2  A    between atoms: S_1  and  C_22
REMARK    3  A    between atoms: O_4  and  C_23
REMARK    4  A    between atoms: O_4  and  C_28
REMARK    5  A    between atoms: N_6  and  C_20
REMARK    6  A    between atoms: N_7  and  C_16
REMARK    7  A    between atoms: C_10  and  C_17
REMARK    8  A    between atoms: C_11  and  C_16
REMARK    9  A    between atoms: C_19  and  C_21
REMARK                            x       y       z     vdW  Elec       q    Type
REMARK                         _______ _______ _______ _____ _____    ______ ____
ROOT
ATOM      5  N   UNL     1      -3.700   2.507  24.092  0.00  0.00    -0.297 NA
ATOM      9  C   UNL     1      -1.458   2.956  25.341  0.00  0.00    +0.002 C 
ATOM     10  C   UNL     1      -1.189   2.573  23.859  0.00  0.00    +0.055 C 
ATOM     11  C   UNL     1      -3.666   1.742  25.368  0.00  0.00    +0.072 C 
ATOM     12  C   UNL     1      -2.269   1.831  26.019  0.00  0.00    +0.024 C 
ATOM     13  C   UNL     1      -2.356   4.212  25.320  0.00  0.00    +0.019 C 
ATOM     14  C   UNL     1      -2.545   2.126  23.241  0.00  0.00    +0.094 C 
ATOM     15  C   UNL     1      -3.577   3.946  24.423  0.00  0.00    +0.085 C 
ENDROOT
BRANCH  10  17
ATOM      6  N   UNL     1      -0.237   0.476  22.792  0.00  0.00    -0.270 N 
ATOM      8  N   UNL     1       0.875  -0.266  22.654  0.00  0.00    -0.171 NA
ATOM     17  C   UNL     1      -0.067   1.587  23.565  0.00  0.00    +0.044 A 
ATOM     18  C   UNL     1       1.248   1.569  23.962  0.00  0.00    +0.053 A 
ATOM     19  C   UNL     1       1.778   0.407  23.371  0.00  0.00    +0.096 A 
ATOM     20  C   UNL     1      -1.455   0.050  22.140  0.00  0.00    +0.172 C 
BRANCH  19  21
ATOM     21  C   UNL     1       3.131  -0.073  23.480  0.00  0.00    +0.044 A 
ATOM     23  C   UNL     1       4.213   0.791  23.303  0.00  0.00    +0.129 A 
ATOM     24  C   UNL     1       3.353  -1.420  23.767  0.00  0.00    +0.014 A 
ATOM     25  C   UNL     1       5.517   0.307  23.414  0.00  0.00    +0.046 A 
ATOM     26  C   UNL     1       4.657  -1.904  23.878  0.00  0.00    +0.001 A 
ATOM     27  C   UNL     1       5.738  -1.041  23.701  0.00  0.00    +0.004 A 
BRANCH  23   4
ATOM      4  O   UNL     1       4.026   2.112  23.023  0.00  0.00    -0.494 OA
ATOM     28  C   UNL     1       4.065   2.493  21.650  0.00  0.00    +0.277 C 
ENDBRANCH  23   4
ENDBRANCH  19  21
ENDBRANCH  10  17
BRANCH  11  16
ATOM     16  C   UNL     1      -4.121   0.293  25.190  0.00  0.00    +0.124 C 
BRANCH  16   7
ATOM      7  N   UNL     1      -2.986  -0.607  25.455  0.00  0.00    -0.193 NA
ATOM     29  H   UNL     1      -2.577  -0.487  26.392  0.00  0.00    +0.148 HD
BRANCH   7   1
ATOM      1  S   UNL     1      -3.025  -2.203  24.848  0.00  0.00    +0.027 S 
ATOM      2  O   UNL     1      -3.504  -3.107  25.874  0.00  0.00    -0.158 OA
ATOM      3  O   UNL     1      -1.779  -2.463  24.153  0.00  0.00    -0.158 OA
ATOM     22  C   UNL     1      -4.299  -2.051  23.615  0.00  0.00    +0.214 C 
ENDBRANCH   7   1
ENDBRANCH  16   7
ENDBRANCH  11  16
TORSDOF 6
ENDMDL
MODEL 10
REMARK VINA RESULT:       4.6      2.773      5.281
REMARK  Name = 25388930
REMARK  9 active torsions:
REMARK  status: ('A' for Active; 'I' for Inactive)
REMARK    1  A    between atoms: S_1  and  N_7
REMARK    2  A    between atoms: S_1  and  C_22
REMARK    3  A    between atoms: O_4  and  C_23
REMARK    4  A    between atoms: O_4  and  C_28
REMARK    5  A    between atoms: N_6  and  C_20
REMARK    6  A    between atoms: N_7  and  C_16
REMARK    7  A    between atoms: C_10  and  C_17
REMARK    8  A    between atoms: C_11  and  C_16
REMARK    9  A    between atoms: C_19  and  C_21
REMARK                            x       y       z     vdW  Elec       q    Type
REMARK                         _______ _______ _______ _____ _____    ______ ____
ROOT
ATOM      5  N   UNL     1      -3.779  -2.243  25.602  0.00  0.00    -0.297 NA
ATOM      9  C   UNL     1      -2.072  -1.973  23.653  0.00  0.00    +0.002 C 
ATOM     10  C   UNL     1      -1.616  -1.155  24.893  0.00  0.00    +0.055 C 
ATOM     11  C   UNL     1      -4.493  -1.884  24.347  0.00  0.00    +0.072 C 
ATOM     12  C   UNL     1      -3.486  -1.518  23.234  0.00  0.00    +0.024 C 
ATOM     13  C   UNL     1      -2.184  -3.445  24.107  0.00  0.00    +0.019 C 
ATOM     14  C   UNL     1      -2.774  -1.201  25.930  0.00  0.00    +0.094 C 
ATOM     15  C   UNL     1      -3.063  -3.519  25.368  0.00  0.00    +0.085 C 
ENDROOT
BRANCH  10  17
ATOM      6  N   UNL     1       0.122   0.524  24.116  0.00  0.00    -0.270 N 
ATOM      8  N   UNL     1       0.394   1.835  24.006  0.00  0.00    -0.171 NA
ATOM     17  C   UNL     1      -1.096   0.258  24.670  0.00  0.00    +0.044 A 
ATOM     18  C   UNL     1      -1.659   1.482  24.942  0.00  0.00    +0.053 A 
ATOM     19  C   UNL     1      -0.697   2.415  24.512  0.00  0.00    +0.096 A 
ATOM     20  C   UNL     1       1.097  -0.440  23.660  0.00  0.00    +0.172 C 
BRANCH  19  21
ATOM     21  C   UNL     1      -0.801   3.849  24.577  0.00  0.00    +0.044 A 
ATOM     23  C   UNL     1      -1.753   4.462  25.392  0.00  0.00    +0.129 A 
ATOM     24  C   UNL     1       0.068   4.628  23.813  0.00  0.00    +0.014 A 
ATOM     25  C   UNL     1      -1.837   5.853  25.442  0.00  0.00    +0.046 A 
ATOM     26  C   UNL     1      -0.016   6.020  23.863  0.00  0.00    +0.001 A 
ATOM     27  C   UNL     1      -0.969   6.632  24.677  0.00  0.00    +0.004 A 
BRANCH  23   4
ATOM      4  O   UNL     1      -2.614   3.725  26.151  0.00  0.00    -0.494 OA
ATOM     28  C   UNL     1      -3.447   4.438  27.061  0.00  0.00    +0.277 C 
ENDBRANCH  23   4
ENDBRANCH  19  21
ENDBRANCH  10  17
BRANCH  11  16
ATOM     16  C   UNL     1      -5.530  -0.781  24.563  0.00  0.00    +0.124 C 
BRANCH  16   7
ATOM      7  N   UNL     1      -4.850   0.440  25.026  0.00  0.00    -0.193 NA
ATOM     29  H   UNL     1      -3.867   0.500  24.728  0.00  0.00    +0.148 HD
BRANCH   7   1
ATOM      1  S   UNL     1      -5.715   1.911  25.074  0.00  0.00    +0.027 S 
ATOM      2  O   UNL     1      -5.649   2.476  26.407  0.00  0.00    -0.158 OA
ATOM      3  O   UNL     1      -6.992   1.717  24.413  0.00  0.00    -0.158 OA
ATOM     22  C   UNL     1      -4.711   2.916  24.004  0.00  0.00    +0.214 C 
ENDBRANCH   7   1
ENDBRANCH  16   7
ENDBRANCH  11  16
TORSDOF 6
ENDMDL
