MODEL 1
REMARK VINA RESULT:      -2.8      0.000      0.000
REMARK  Name = 45783802
REMARK  7 active torsions:
REMARK  status: ('A' for Active; 'I' for Inactive)
REMARK    1  A    between atoms: N_4  and  C_13
REMARK    2  A    between atoms: N_8  and  C_26
REMARK    3  A    between atoms: N_8  and  C_27
REMARK    4  A    between atoms: N_8  and  C_28
REMARK    5  A    between atoms: C_9  and  C_14
REMARK    6  A    between atoms: C_13  and  C_15
REMARK    7  A    between atoms: C_18  and  C_19
REMARK                            x       y       z     vdW  Elec       q    Type
REMARK                         _______ _______ _______ _____ _____    ______ ____
ROOT
ATOM      4  N   UNL     1      -4.594   2.055  25.450  0.00  0.00    -0.287 NA
ATOM      9  C   UNL     1      -4.397   2.660  24.117  0.00  0.00    +0.146 C 
ATOM     10  C   UNL     1      -4.427   4.178  24.368  0.00  0.00    +0.030 C 
ATOM     11  C   UNL     1      -4.707   4.331  25.856  0.00  0.00    +0.017 C 
ATOM     12  C   UNL     1      -5.369   3.020  26.231  0.00  0.00    +0.085 C 
ENDROOT
BRANCH   9  14
ATOM      3  O   UNL     1      -3.105   2.196  22.096  0.00  0.00    -0.336 OA
ATOM      5  N   UNL     1      -1.993   1.804  24.000  0.00  0.00    -0.190 NA
ATOM      6  N   UNL     1      -1.833   1.743  21.719  0.00  0.00    -0.056 NA
ATOM     14  C   UNL     1      -3.115   2.203  23.455  0.00  0.00    +0.245 A 
ATOM     18  C   UNL     1      -1.238   1.532  22.897  0.00  0.00    +0.204 A 
BRANCH  18  19
ATOM      7  N   UNL     1       2.345   1.362  23.874  0.00  0.00    -0.240 NA
ATOM     19  C   UNL     1       0.110   1.054  23.006  0.00  0.00    +0.041 A 
ATOM     23  C   UNL     1       0.505  -0.127  22.387  0.00  0.00    +0.016 A 
ATOM     24  C   UNL     1       1.060   1.755  23.733  0.00  0.00    +0.124 A 
ATOM     25  C   UNL     1       1.819  -0.564  22.511  0.00  0.00    +0.044 A 
ATOM     26  C   UNL     1       2.692   0.209  23.259  0.00  0.00    +0.121 A 
BRANCH  26   8
ATOM      8  N   UNL     1       4.027  -0.250  23.376  0.00  0.00    -0.321 N 
ATOM     27  C   UNL     1       5.131   0.653  23.133  0.00  0.00    +0.130 C 
ATOM     28  C   UNL     1       4.296  -1.623  23.748  0.00  0.00    +0.130 C 
ENDBRANCH  26   8
ENDBRANCH  18  19
ENDBRANCH   9  14
BRANCH   4  13
ATOM     13  C   UNL     1      -5.236   0.748  25.399  0.00  0.00    +0.120 C 
BRANCH  13  15
ATOM      1  F   UNL     1      -0.917  -1.453  25.966  0.00  0.00    -0.202 F 
ATOM      2  F   UNL     1      -1.579  -3.337  24.098  0.00  0.00    -0.202 F 
ATOM     15  C   UNL     1      -4.259  -0.344  25.051  0.00  0.00    -0.030 A 
ATOM     16  C   UNL     1      -3.015  -0.394  25.682  0.00  0.00    +0.046 A 
ATOM     17  C   UNL     1      -4.597  -1.305  24.099  0.00  0.00    +0.008 A 
ATOM     20  C   UNL     1      -2.111  -1.405  25.360  0.00  0.00    +0.159 A 
ATOM     21  C   UNL     1      -3.692  -2.316  23.777  0.00  0.00    +0.041 A 
ATOM     22  C   UNL     1      -2.449  -2.366  24.408  0.00  0.00    +0.158 A 
ENDBRANCH  13  15
ENDBRANCH   4  13
TORSDOF 5
ENDMDL
MODEL 2
REMARK VINA RESULT:      -2.6      1.113      1.275
REMARK  Name = 45783802
REMARK  7 active torsions:
REMARK  status: ('A' for Active; 'I' for Inactive)
REMARK    1  A    between atoms: N_4  and  C_13
REMARK    2  A    between atoms: N_8  and  C_26
REMARK    3  A    between atoms: N_8  and  C_27
REMARK    4  A    between atoms: N_8  and  C_28
REMARK    5  A    between atoms: C_9  and  C_14
REMARK    6  A    between atoms: C_13  and  C_15
REMARK    7  A    between atoms: C_18  and  C_19
REMARK                            x       y       z     vdW  Elec       q    Type
REMARK                         _______ _______ _______ _____ _____    ______ ____
ROOT
ATOM      4  N   UNL     1      -5.258   1.484  25.329  0.00  0.00    -0.287 NA
ATOM      9  C   UNL     1      -4.770   2.624  24.527  0.00  0.00    +0.146 C 
ATOM     10  C   UNL     1      -5.327   3.870  25.239  0.00  0.00    +0.030 C 
ATOM     11  C   UNL     1      -6.164   3.331  26.390  0.00  0.00    +0.017 C 
ATOM     12  C   UNL     1      -6.508   1.922  25.950  0.00  0.00    +0.085 C 
ENDROOT
BRANCH   9  14
ATOM      3  O   UNL     1      -2.647   3.822  24.707  0.00  0.00    -0.336 OA
ATOM      5  N   UNL     1      -2.441   1.691  24.050  0.00  0.00    -0.190 NA
ATOM      6  N   UNL     1      -1.276   3.601  24.525  0.00  0.00    -0.056 NA
ATOM     14  C   UNL     1      -3.261   2.646  24.407  0.00  0.00    +0.245 A 
ATOM     18  C   UNL     1      -1.234   2.323  24.137  0.00  0.00    +0.204 A 
BRANCH  18  19
ATOM      7  N   UNL     1       2.394   1.746  23.570  0.00  0.00    -0.240 NA
ATOM     19  C   UNL     1      -0.006   1.647  23.832  0.00  0.00    +0.041 A 
ATOM     23  C   UNL     1       0.007   0.294  23.511  0.00  0.00    +0.016 A 
ATOM     24  C   UNL     1       1.204   2.322  23.849  0.00  0.00    +0.124 A 
ATOM     25  C   UNL     1       1.213  -0.334  23.219  0.00  0.00    +0.044 A 
ATOM     26  C   UNL     1       2.368   0.430  23.262  0.00  0.00    +0.121 A 
BRANCH  26   8
ATOM      8  N   UNL     1       3.589  -0.223  22.964  0.00  0.00    -0.321 N 
ATOM     27  C   UNL     1       4.479   0.321  21.962  0.00  0.00    +0.130 C 
ATOM     28  C   UNL     1       3.957  -1.435  23.663  0.00  0.00    +0.130 C 
ENDBRANCH  26   8
ENDBRANCH  18  19
ENDBRANCH   9  14
BRANCH   4  13
ATOM     13  C   UNL     1      -5.430   0.265  24.549  0.00  0.00    +0.120 C 
BRANCH  13  15
ATOM      1  F   UNL     1      -1.223  -0.995  26.680  0.00  0.00    -0.202 F 
ATOM      2  F   UNL     1      -1.024  -3.206  25.085  0.00  0.00    -0.202 F 
ATOM     15  C   UNL     1      -4.253  -0.663  24.692  0.00  0.00    -0.030 A 
ATOM     16  C   UNL     1      -3.263  -0.393  25.639  0.00  0.00    +0.046 A 
ATOM     17  C   UNL     1      -4.151  -1.791  23.878  0.00  0.00    +0.008 A 
ATOM     20  C   UNL     1      -2.173  -1.253  25.771  0.00  0.00    +0.159 A 
ATOM     21  C   UNL     1      -3.060  -2.650  24.011  0.00  0.00    +0.041 A 
ATOM     22  C   UNL     1      -2.071  -2.381  24.957  0.00  0.00    +0.158 A 
ENDBRANCH  13  15
ENDBRANCH   4  13
TORSDOF 5
ENDMDL
MODEL 3
REMARK VINA RESULT:       0.1      1.335      1.811
REMARK  Name = 45783802
REMARK  7 active torsions:
REMARK  status: ('A' for Active; 'I' for Inactive)
REMARK    1  A    between atoms: N_4  and  C_13
REMARK    2  A    between atoms: N_8  and  C_26
REMARK    3  A    between atoms: N_8  and  C_27
REMARK    4  A    between atoms: N_8  and  C_28
REMARK    5  A    between atoms: C_9  and  C_14
REMARK    6  A    between atoms: C_13  and  C_15
REMARK    7  A    between atoms: C_18  and  C_19
REMARK                            x       y       z     vdW  Elec       q    Type
REMARK                         _______ _______ _______ _____ _____    ______ ____
ROOT
ATOM      4  N   UNL     1      -3.298   2.876  25.430  0.00  0.00    -0.287 NA
ATOM      9  C   UNL     1      -2.602   3.363  24.222  0.00  0.00    +0.146 C 
ATOM     10  C   UNL     1      -2.003   4.720  24.637  0.00  0.00    +0.030 C 
ATOM     11  C   UNL     1      -2.466   4.938  26.070  0.00  0.00    +0.017 C 
ATOM     12  C   UNL     1      -3.698   4.064  26.184  0.00  0.00    +0.085 C 
ENDROOT
BRANCH   9  14
ATOM      3  O   UNL     1      -1.960   1.495  22.784  0.00  0.00    -0.336 OA
ATOM      5  N   UNL     1      -0.296   2.276  24.063  0.00  0.00    -0.190 NA
ATOM      6  N   UNL     1      -0.837   0.714  22.482  0.00  0.00    -0.056 NA
ATOM     14  C   UNL     1      -1.555   2.391  23.722  0.00  0.00    +0.245 A 
ATOM     18  C   UNL     1       0.103   1.235  23.276  0.00  0.00    +0.204 A 
BRANCH  18  19
ATOM      7  N   UNL     1       2.961  -1.115  23.643  0.00  0.00    -0.240 NA
ATOM     19  C   UNL     1       1.450   0.742  23.307  0.00  0.00    +0.041 A 
ATOM     23  C   UNL     1       2.527   1.582  23.046  0.00  0.00    +0.016 A 
ATOM     24  C   UNL     1       1.718  -0.587  23.596  0.00  0.00    +0.124 A 
ATOM     25  C   UNL     1       3.822   1.074  23.083  0.00  0.00    +0.044 A 
ATOM     26  C   UNL     1       3.983  -0.269  23.383  0.00  0.00    +0.121 A 
BRANCH  26   8
ATOM      8  N   UNL     1       5.307  -0.771  23.417  0.00  0.00    -0.321 N 
ATOM     27  C   UNL     1       5.548  -2.168  23.705  0.00  0.00    +0.130 C 
ATOM     28  C   UNL     1       6.427   0.108  23.156  0.00  0.00    +0.130 C 
ENDBRANCH  26   8
ENDBRANCH  18  19
ENDBRANCH   9  14
BRANCH   4  13
ATOM     13  C   UNL     1      -4.430   2.009  25.130  0.00  0.00    +0.120 C 
BRANCH  13  15
ATOM      1  F   UNL     1      -1.415  -1.707  26.091  0.00  0.00    -0.202 F 
ATOM      2  F   UNL     1      -2.841  -3.353  24.439  0.00  0.00    -0.202 F 
ATOM     15  C   UNL     1      -4.006   0.576  24.945  0.00  0.00    -0.030 A 
ATOM     16  C   UNL     1      -2.884   0.088  25.617  0.00  0.00    +0.046 A 
ATOM     17  C   UNL     1      -4.734  -0.264  24.103  0.00  0.00    +0.008 A 
ATOM     20  C   UNL     1      -2.491  -1.239  25.446  0.00  0.00    +0.159 A 
ATOM     21  C   UNL     1      -4.341  -1.591  23.932  0.00  0.00    +0.041 A 
ATOM     22  C   UNL     1      -3.219  -2.079  24.603  0.00  0.00    +0.158 A 
ENDBRANCH  13  15
ENDBRANCH   4  13
TORSDOF 5
ENDMDL
MODEL 4
REMARK VINA RESULT:       0.7      2.248      3.772
REMARK  Name = 45783802
REMARK  7 active torsions:
REMARK  status: ('A' for Active; 'I' for Inactive)
REMARK    1  A    between atoms: N_4  and  C_13
REMARK    2  A    between atoms: N_8  and  C_26
REMARK    3  A    between atoms: N_8  and  C_27
REMARK    4  A    between atoms: N_8  and  C_28
REMARK    5  A    between atoms: C_9  and  C_14
REMARK    6  A    between atoms: C_13  and  C_15
REMARK    7  A    between atoms: C_18  and  C_19
REMARK                            x       y       z     vdW  Elec       q    Type
REMARK                         _______ _______ _______ _____ _____    ______ ____
ROOT
ATOM      4  N   UNL     1      -5.143   2.391  25.096  0.00  0.00    -0.287 NA
ATOM      9  C   UNL     1      -4.431   1.099  25.157  0.00  0.00    +0.146 C 
ATOM     10  C   UNL     1      -5.447   0.068  24.632  0.00  0.00    +0.030 C 
ATOM     11  C   UNL     1      -6.717   0.862  24.361  0.00  0.00    +0.017 C 
ATOM     12  C   UNL     1      -6.567   2.086  25.242  0.00  0.00    +0.085 C 
ENDROOT
BRANCH   9  14
ATOM      3  O   UNL     1      -3.200   1.667  23.123  0.00  0.00    -0.336 OA
ATOM      5  N   UNL     1      -1.962   0.647  24.686  0.00  0.00    -0.190 NA
ATOM      6  N   UNL     1      -1.910   1.558  22.589  0.00  0.00    -0.056 NA
ATOM     14  C   UNL     1      -3.143   1.107  24.361  0.00  0.00    +0.245 A 
ATOM     18  C   UNL     1      -1.238   0.946  23.568  0.00  0.00    +0.204 A 
BRANCH  18  19
ATOM      7  N   UNL     1       2.457   1.353  23.552  0.00  0.00    -0.240 NA
ATOM     19  C   UNL     1       0.155   0.621  23.464  0.00  0.00    +0.041 A 
ATOM     23  C   UNL     1       0.570  -0.676  23.184  0.00  0.00    +0.016 A 
ATOM     24  C   UNL     1       1.129   1.591  23.639  0.00  0.00    +0.124 A 
ATOM     25  C   UNL     1       1.928  -0.960  23.089  0.00  0.00    +0.044 A 
ATOM     26  C   UNL     1       2.823   0.080  23.280  0.00  0.00    +0.121 A 
BRANCH  26   8
ATOM      8  N   UNL     1       4.202  -0.225  23.180  0.00  0.00    -0.321 N 
ATOM     27  C   UNL     1       5.089   0.649  22.443  0.00  0.00    +0.130 C 
ATOM     28  C   UNL     1       4.736  -1.407  23.821  0.00  0.00    +0.130 C 
ENDBRANCH  26   8
ENDBRANCH  18  19
ENDBRANCH   9  14
BRANCH   4  13
ATOM     13  C   UNL     1      -4.682   3.348  26.094  0.00  0.00    +0.120 C 
BRANCH  13  15
ATOM      1  F   UNL     1       0.196   3.271  26.263  0.00  0.00    -0.202 F 
ATOM      2  F   UNL     1       0.331   5.538  24.741  0.00  0.00    -0.202 F 
ATOM     15  C   UNL     1      -3.343   3.934  25.732  0.00  0.00    -0.030 A 
ATOM     16  C   UNL     1      -2.170   3.319  26.174  0.00  0.00    +0.046 A 
ATOM     17  C   UNL     1      -3.273   5.090  24.954  0.00  0.00    +0.008 A 
ATOM     20  C   UNL     1      -0.930   3.861  25.838  0.00  0.00    +0.159 A 
ATOM     21  C   UNL     1      -2.033   5.631  24.620  0.00  0.00    +0.041 A 
ATOM     22  C   UNL     1      -0.861   5.018  25.062  0.00  0.00    +0.158 A 
ENDBRANCH  13  15
ENDBRANCH   4  13
TORSDOF 5
ENDMDL
