MODEL 1
REMARK VINA RESULT:      -7.3      0.000      0.000
REMARK  Name = 56775685
REMARK  9 active torsions:
REMARK  status: ('A' for Active; 'I' for Inactive)
REMARK    1  A    between atoms: N_3  and  C_6
REMARK    2  A    between atoms: N_3  and  C_11
REMARK    3  A    between atoms: C_6  and  C_9
REMARK    4  A    between atoms: C_9  and  C_10
REMARK    5  A    between atoms: C_11  and  C_14
REMARK    6  A    between atoms: C_13  and  C_15
REMARK    7  A    between atoms: C_15  and  C_16
REMARK    8  A    between atoms: C_16  and  C_17
REMARK    9  A    between atoms: C_16  and  C_18
REMARK                            x       y       z     vdW  Elec       q    Type
REMARK                         _______ _______ _______ _____ _____    ______ ____
ROOT
ATOM      1  O   UNL     1      -1.044   5.629  24.975  0.00  0.00    -0.376 OA
ATOM      6  C   UNL     1      -1.061   3.496  24.904  0.00  0.00    +0.072 C 
ATOM      7  C   UNL     1      -0.232   4.632  24.316  0.00  0.00    +0.184 C 
ATOM      8  C   UNL     1      -1.811   4.600  25.640  0.00  0.00    +0.184 C 
ENDROOT
BRANCH   6   3
ATOM      3  N   UNL     1      -1.923   2.958  23.861  0.00  0.00    -0.302 NA
ATOM     23  H   UNL     1      -2.079   1.951  23.904  0.00  0.00    +0.123 HD
BRANCH   3  11
ATOM     11  C   UNL     1      -3.206   3.656  23.871  0.00  0.00    +0.118 C 
BRANCH  11  14
ATOM      5  N   UNL     1      -6.064   2.886  26.233  0.00  0.00    -0.263 NA
ATOM     14  C   UNL     1      -4.259   2.886  24.624  0.00  0.00    -0.015 A 
ATOM     19  C   UNL     1      -4.414   1.517  24.438  0.00  0.00    +0.008 A 
ATOM     20  C   UNL     1      -5.101   3.518  25.525  0.00  0.00    +0.115 A 
ATOM     21  C   UNL     1      -5.394   0.831  25.148  0.00  0.00    +0.020 A 
ATOM     22  C   UNL     1      -6.186   1.555  26.024  0.00  0.00    +0.111 A 
ENDBRANCH  11  14
ENDBRANCH   3  11
ENDBRANCH   6   3
BRANCH   6   9
ATOM      9  C   UNL     1      -0.356   2.405  25.720  0.00  0.00    +0.085 C 
BRANCH   9  10
ATOM      2  O   UNL     1      -0.348  -0.519  23.670  0.00  0.00    -0.359 OA
ATOM      4  N   UNL     1       0.034   0.787  23.948  0.00  0.00    -0.083 NA
ATOM     10  C   UNL     1      -0.550   1.078  25.113  0.00  0.00    +0.086 A 
ATOM     12  C   UNL     1      -1.306   0.004  25.614  0.00  0.00    +0.071 A 
ATOM     13  C   UNL     1      -1.146  -0.974  24.669  0.00  0.00    +0.138 A 
BRANCH  13  15
ATOM     15  C   UNL     1      -1.657  -2.389  24.532  0.00  0.00    +0.080 C 
BRANCH  15  16
ATOM     16  C   UNL     1      -3.132  -2.560  24.945  0.00  0.00    -0.010 C 
ATOM     17  C   UNL     1      -3.483  -1.728  26.182  0.00  0.00    +0.007 C 
ATOM     18  C   UNL     1      -4.046  -2.165  23.782  0.00  0.00    +0.007 C 
ENDBRANCH  15  16
ENDBRANCH  13  15
ENDBRANCH   9  10
ENDBRANCH   6   9
TORSDOF 7
ENDMDL
MODEL 2
REMARK VINA RESULT:      -6.7      1.629      4.956
REMARK  Name = 56775685
REMARK  9 active torsions:
REMARK  status: ('A' for Active; 'I' for Inactive)
REMARK    1  A    between atoms: N_3  and  C_6
REMARK    2  A    between atoms: N_3  and  C_11
REMARK    3  A    between atoms: C_6  and  C_9
REMARK    4  A    between atoms: C_9  and  C_10
REMARK    5  A    between atoms: C_11  and  C_14
REMARK    6  A    between atoms: C_13  and  C_15
REMARK    7  A    between atoms: C_15  and  C_16
REMARK    8  A    between atoms: C_16  and  C_17
REMARK    9  A    between atoms: C_16  and  C_18
REMARK                            x       y       z     vdW  Elec       q    Type
REMARK                         _______ _______ _______ _____ _____    ______ ____
ROOT
ATOM      1  O   UNL     1      -3.614  -3.654  24.936  0.00  0.00    -0.376 OA
ATOM      6  C   UNL     1      -2.381  -1.934  24.664  0.00  0.00    +0.072 C 
ATOM      7  C   UNL     1      -3.264  -2.520  25.759  0.00  0.00    +0.184 C 
ATOM      8  C   UNL     1      -2.720  -3.205  23.894  0.00  0.00    +0.184 C 
ENDROOT
BRANCH   6   3
ATOM      3  N   UNL     1      -3.077  -0.813  24.049  0.00  0.00    -0.302 NA
ATOM     23  H   UNL     1      -3.462  -0.997  23.124  0.00  0.00    +0.123 HD
BRANCH   3  11
ATOM     11  C   UNL     1      -4.133  -0.339  24.940  0.00  0.00    +0.118 C 
BRANCH  11  14
ATOM      5  N   UNL     1      -5.627   3.106  25.424  0.00  0.00    -0.263 NA
ATOM     14  C   UNL     1      -4.412   1.128  24.747  0.00  0.00    -0.015 A 
ATOM     19  C   UNL     1      -3.757   1.858  23.762  0.00  0.00    +0.008 A 
ATOM     20  C   UNL     1      -5.330   1.793  25.545  0.00  0.00    +0.115 A 
ATOM     21  C   UNL     1      -4.036   3.212  23.606  0.00  0.00    +0.020 A 
ATOM     22  C   UNL     1      -4.970   3.783  24.455  0.00  0.00    +0.111 A 
ENDBRANCH  11  14
ENDBRANCH   3  11
ENDBRANCH   6   3
BRANCH   6   9
ATOM      9  C   UNL     1      -0.911  -1.626  24.979  0.00  0.00    +0.085 C 
BRANCH   9  10
ATOM      2  O   UNL     1      -0.034   1.656  23.878  0.00  0.00    -0.359 OA
ATOM      4  N   UNL     1      -0.200   0.293  23.666  0.00  0.00    -0.083 NA
ATOM     10  C   UNL     1      -0.627  -0.189  24.837  0.00  0.00    +0.086 A 
ATOM     12  C   UNL     1      -0.748   0.814  25.815  0.00  0.00    +0.071 A 
ATOM     13  C   UNL     1      -0.363   1.954  25.160  0.00  0.00    +0.138 A 
BRANCH  13  15
ATOM     15  C   UNL     1      -0.243   3.403  25.568  0.00  0.00    +0.080 C 
BRANCH  15  16
ATOM     16  C   UNL     1      -1.501   4.241  25.266  0.00  0.00    -0.010 C 
ATOM     17  C   UNL     1      -2.459   4.288  26.459  0.00  0.00    +0.007 C 
ATOM     18  C   UNL     1      -1.094   5.664  24.875  0.00  0.00    +0.007 C 
ENDBRANCH  15  16
ENDBRANCH  13  15
ENDBRANCH   9  10
ENDBRANCH   6   9
TORSDOF 7
ENDMDL
MODEL 3
REMARK VINA RESULT:      -6.7      1.748      4.155
REMARK  Name = 56775685
REMARK  9 active torsions:
REMARK  status: ('A' for Active; 'I' for Inactive)
REMARK    1  A    between atoms: N_3  and  C_6
REMARK    2  A    between atoms: N_3  and  C_11
REMARK    3  A    between atoms: C_6  and  C_9
REMARK    4  A    between atoms: C_9  and  C_10
REMARK    5  A    between atoms: C_11  and  C_14
REMARK    6  A    between atoms: C_13  and  C_15
REMARK    7  A    between atoms: C_15  and  C_16
REMARK    8  A    between atoms: C_16  and  C_17
REMARK    9  A    between atoms: C_16  and  C_18
REMARK                            x       y       z     vdW  Elec       q    Type
REMARK                         _______ _______ _______ _____ _____    ______ ____
ROOT
ATOM      1  O   UNL     1      -1.720   5.809  25.516  0.00  0.00    -0.376 OA
ATOM      6  C   UNL     1      -2.304   3.837  24.946  0.00  0.00    +0.072 C 
ATOM      7  C   UNL     1      -2.906   5.008  25.715  0.00  0.00    +0.184 C 
ATOM      8  C   UNL     1      -1.129   4.776  24.696  0.00  0.00    +0.184 C 
ENDROOT
BRANCH   6   3
ATOM      3  N   UNL     1      -1.893   2.813  25.895  0.00  0.00    -0.302 NA
ATOM     23  H   UNL     1      -2.340   1.905  25.774  0.00  0.00    +0.123 HD
BRANCH   3  11
ATOM     11  C   UNL     1      -0.441   2.658  25.857  0.00  0.00    +0.118 C 
BRANCH  11  14
ATOM      5  N   UNL     1       1.324   0.755  23.101  0.00  0.00    -0.263 NA
ATOM     14  C   UNL     1      -0.021   1.527  24.955  0.00  0.00    -0.015 A 
ATOM     19  C   UNL     1      -0.553   0.252  25.110  0.00  0.00    +0.008 A 
ATOM     20  C   UNL     1       0.906   1.725  23.944  0.00  0.00    +0.115 A 
ATOM     21  C   UNL     1      -0.148  -0.772  24.261  0.00  0.00    +0.020 A 
ATOM     22  C   UNL     1       0.785  -0.472  23.283  0.00  0.00    +0.111 A 
ENDBRANCH  11  14
ENDBRANCH   3  11
ENDBRANCH   6   3
BRANCH   6   9
ATOM      9  C   UNL     1      -3.068   3.266  23.743  0.00  0.00    +0.085 C 
BRANCH   9  10
ATOM      2  O   UNL     1      -4.866   0.474  25.056  0.00  0.00    -0.359 OA
ATOM      4  N   UNL     1      -4.541   1.825  25.032  0.00  0.00    -0.083 NA
ATOM     10  C   UNL     1      -3.640   1.946  24.054  0.00  0.00    +0.086 A 
ATOM     12  C   UNL     1      -3.359   0.718  23.431  0.00  0.00    +0.071 A 
ATOM     13  C   UNL     1      -4.155  -0.174  24.098  0.00  0.00    +0.138 A 
BRANCH  13  15
ATOM     15  C   UNL     1      -4.386  -1.662  23.980  0.00  0.00    +0.080 C 
BRANCH  15  16
ATOM     16  C   UNL     1      -3.559  -2.501  24.975  0.00  0.00    -0.010 C 
ATOM     17  C   UNL     1      -2.260  -3.015  24.350  0.00  0.00    +0.007 C 
ATOM     18  C   UNL     1      -3.239  -1.666  26.217  0.00  0.00    +0.007 C 
ENDBRANCH  15  16
ENDBRANCH  13  15
ENDBRANCH   9  10
ENDBRANCH   6   9
TORSDOF 7
ENDMDL
MODEL 4
REMARK VINA RESULT:      -6.4      2.564      4.005
REMARK  Name = 56775685
REMARK  9 active torsions:
REMARK  status: ('A' for Active; 'I' for Inactive)
REMARK    1  A    between atoms: N_3  and  C_6
REMARK    2  A    between atoms: N_3  and  C_11
REMARK    3  A    between atoms: C_6  and  C_9
REMARK    4  A    between atoms: C_9  and  C_10
REMARK    5  A    between atoms: C_11  and  C_14
REMARK    6  A    between atoms: C_13  and  C_15
REMARK    7  A    between atoms: C_15  and  C_16
REMARK    8  A    between atoms: C_16  and  C_17
REMARK    9  A    between atoms: C_16  and  C_18
REMARK                            x       y       z     vdW  Elec       q    Type
REMARK                         _______ _______ _______ _____ _____    ______ ____
ROOT
ATOM      1  O   UNL     1      -1.748   4.966  25.317  0.00  0.00    -0.376 OA
ATOM      6  C   UNL     1      -1.693   2.836  25.192  0.00  0.00    +0.072 C 
ATOM      7  C   UNL     1      -1.028   4.019  24.497  0.00  0.00    +0.184 C 
ATOM      8  C   UNL     1      -2.341   3.892  26.080  0.00  0.00    +0.184 C 
ENDROOT
BRANCH   6   3
ATOM      3  N   UNL     1      -2.706   2.281  24.306  0.00  0.00    -0.302 NA
ATOM     23  H   UNL     1      -2.358   1.631  23.603  0.00  0.00    +0.123 HD
BRANCH   3  11
ATOM     11  C   UNL     1      -3.754   1.639  25.096  0.00  0.00    +0.118 C 
BRANCH  11  14
ATOM      5  N   UNL     1      -3.394  -2.048  25.877  0.00  0.00    -0.263 NA
ATOM     14  C   UNL     1      -3.752   0.144  24.921  0.00  0.00    -0.015 A 
ATOM     19  C   UNL     1      -4.087  -0.435  23.701  0.00  0.00    +0.008 A 
ATOM     20  C   UNL     1      -3.417  -0.699  25.968  0.00  0.00    +0.115 A 
ATOM     21  C   UNL     1      -4.075  -1.819  23.568  0.00  0.00    +0.020 A 
ATOM     22  C   UNL     1      -3.726  -2.573  24.676  0.00  0.00    +0.111 A 
ENDBRANCH  11  14
ENDBRANCH   3  11
ENDBRANCH   6   3
BRANCH   6   9
ATOM      9  C   UNL     1      -0.809   1.761  25.838  0.00  0.00    +0.085 C 
BRANCH   9  10
ATOM      2  O   UNL     1       0.330  -0.837  23.669  0.00  0.00    -0.359 OA
ATOM      4  N   UNL     1      -0.459  -0.364  24.711  0.00  0.00    -0.083 NA
ATOM     10  C   UNL     1      -0.149   0.931  24.818  0.00  0.00    +0.086 A 
ATOM     12  C   UNL     1       0.820   1.328  23.881  0.00  0.00    +0.071 A 
ATOM     13  C   UNL     1       1.087   0.180  23.184  0.00  0.00    +0.138 A 
BRANCH  13  15
ATOM     15  C   UNL     1       2.012  -0.156  22.038  0.00  0.00    +0.080 C 
BRANCH  15  16
ATOM     16  C   UNL     1       3.506  -0.142  22.418  0.00  0.00    -0.010 C 
ATOM     17  C   UNL     1       3.995   1.265  22.772  0.00  0.00    +0.007 C 
ATOM     18  C   UNL     1       3.749  -1.085  23.600  0.00  0.00    +0.007 C 
ENDBRANCH  15  16
ENDBRANCH  13  15
ENDBRANCH   9  10
ENDBRANCH   6   9
TORSDOF 7
ENDMDL
MODEL 5
REMARK VINA RESULT:      -6.0      3.000      5.029
REMARK  Name = 56775685
REMARK  9 active torsions:
REMARK  status: ('A' for Active; 'I' for Inactive)
REMARK    1  A    between atoms: N_3  and  C_6
REMARK    2  A    between atoms: N_3  and  C_11
REMARK    3  A    between atoms: C_6  and  C_9
REMARK    4  A    between atoms: C_9  and  C_10
REMARK    5  A    between atoms: C_11  and  C_14
REMARK    6  A    between atoms: C_13  and  C_15
REMARK    7  A    between atoms: C_15  and  C_16
REMARK    8  A    between atoms: C_16  and  C_17
REMARK    9  A    between atoms: C_16  and  C_18
REMARK                            x       y       z     vdW  Elec       q    Type
REMARK                         _______ _______ _______ _____ _____    ______ ____
ROOT
ATOM      1  O   UNL     1      -0.662  -2.454  25.402  0.00  0.00    -0.376 OA
ATOM      6  C   UNL     1      -1.756  -0.806  24.601  0.00  0.00    +0.072 C 
ATOM      7  C   UNL     1      -0.707  -1.038  25.684  0.00  0.00    +0.184 C 
ATOM      8  C   UNL     1      -1.581  -2.290  24.300  0.00  0.00    +0.184 C 
ENDROOT
BRANCH   6   3
ATOM      3  N   UNL     1      -3.050  -0.606  25.237  0.00  0.00    -0.302 NA
ATOM     23  H   UNL     1      -3.032  -0.051  26.091  0.00  0.00    +0.123 HD
BRANCH   3  11
ATOM     11  C   UNL     1      -3.983  -0.013  24.282  0.00  0.00    +0.118 C 
BRANCH  11  14
ATOM      5  N   UNL     1      -4.040   3.757  24.629  0.00  0.00    -0.263 NA
ATOM     14  C   UNL     1      -4.411   1.369  24.701  0.00  0.00    -0.015 A 
ATOM     19  C   UNL     1      -5.523   1.558  25.514  0.00  0.00    +0.008 A 
ATOM     20  C   UNL     1      -3.710   2.491  24.288  0.00  0.00    +0.115 A 
ATOM     21  C   UNL     1      -5.894   2.846  25.885  0.00  0.00    +0.020 A 
ATOM     22  C   UNL     1      -5.128   3.901  25.420  0.00  0.00    +0.111 A 
ENDBRANCH  11  14
ENDBRANCH   3  11
ENDBRANCH   6   3
BRANCH   6   9
ATOM      9  C   UNL     1      -1.469   0.216  23.494  0.00  0.00    +0.085 C 
BRANCH   9  10
ATOM      2  O   UNL     1       1.796   1.618  23.845  0.00  0.00    -0.359 OA
ATOM      4  N   UNL     1       0.434   1.593  24.118  0.00  0.00    -0.083 NA
ATOM     10  C   UNL     1      -0.037   0.547  23.434  0.00  0.00    +0.086 A 
ATOM     12  C   UNL     1       0.972  -0.120  22.718  0.00  0.00    +0.071 A 
ATOM     13  C   UNL     1       2.104   0.593  23.010  0.00  0.00    +0.138 A 
BRANCH  13  15
ATOM     15  C   UNL     1       3.554   0.465  22.606  0.00  0.00    +0.080 C 
BRANCH  15  16
ATOM     16  C   UNL     1       4.462  -0.100  23.716  0.00  0.00    -0.010 C 
ATOM     17  C   UNL     1       4.317  -1.617  23.860  0.00  0.00    +0.007 C 
ATOM     18  C   UNL     1       5.922   0.253  23.421  0.00  0.00    +0.007 C 
ENDBRANCH  15  16
ENDBRANCH  13  15
ENDBRANCH   9  10
ENDBRANCH   6   9
TORSDOF 7
ENDMDL
MODEL 6
REMARK VINA RESULT:      -6.0      2.437      4.436
REMARK  Name = 56775685
REMARK  9 active torsions:
REMARK  status: ('A' for Active; 'I' for Inactive)
REMARK    1  A    between atoms: N_3  and  C_6
REMARK    2  A    between atoms: N_3  and  C_11
REMARK    3  A    between atoms: C_6  and  C_9
REMARK    4  A    between atoms: C_9  and  C_10
REMARK    5  A    between atoms: C_11  and  C_14
REMARK    6  A    between atoms: C_13  and  C_15
REMARK    7  A    between atoms: C_15  and  C_16
REMARK    8  A    between atoms: C_16  and  C_17
REMARK    9  A    between atoms: C_16  and  C_18
REMARK                            x       y       z     vdW  Elec       q    Type
REMARK                         _______ _______ _______ _____ _____    ______ ____
ROOT
ATOM      1  O   UNL     1      -5.366   4.245  26.037  0.00  0.00    -0.376 OA
ATOM      6  C   UNL     1      -3.992   2.938  25.056  0.00  0.00    +0.072 C 
ATOM      7  C   UNL     1      -5.471   3.294  24.954  0.00  0.00    +0.184 C 
ATOM      8  C   UNL     1      -3.940   4.025  26.124  0.00  0.00    +0.184 C 
ENDROOT
BRANCH   6   3
ATOM      3  N   UNL     1      -3.866   1.639  25.702  0.00  0.00    -0.302 NA
ATOM     23  H   UNL     1      -4.119   1.620  26.689  0.00  0.00    +0.123 HD
BRANCH   3  11
ATOM     11  C   UNL     1      -4.650   0.646  24.972  0.00  0.00    +0.118 C 
BRANCH  11  14
ATOM      5  N   UNL     1      -1.965  -1.999  25.337  0.00  0.00    -0.263 NA
ATOM     14  C   UNL     1      -3.898  -0.648  24.803  0.00  0.00    -0.015 A 
ATOM     19  C   UNL     1      -4.396  -1.664  23.996  0.00  0.00    +0.008 A 
ATOM     20  C   UNL     1      -2.690  -0.863  25.447  0.00  0.00    +0.115 A 
ATOM     21  C   UNL     1      -3.679  -2.848  23.858  0.00  0.00    +0.020 A 
ATOM     22  C   UNL     1      -2.481  -2.965  24.543  0.00  0.00    +0.111 A 
ENDBRANCH  11  14
ENDBRANCH   3  11
ENDBRANCH   6   3
BRANCH   6   9
ATOM      9  C   UNL     1      -3.106   3.075  23.811  0.00  0.00    +0.085 C 
BRANCH   9  10
ATOM      2  O   UNL     1       0.151   2.038  24.846  0.00  0.00    -0.359 OA
ATOM      4  N   UNL     1      -0.951   2.881  24.920  0.00  0.00    -0.083 NA
ATOM     10  C   UNL     1      -1.807   2.412  24.007  0.00  0.00    +0.086 A 
ATOM     12  C   UNL     1      -1.304   1.286  23.332  0.00  0.00    +0.071 A 
ATOM     13  C   UNL     1      -0.071   1.093  23.897  0.00  0.00    +0.138 A 
BRANCH  13  15
ATOM     15  C   UNL     1       1.031   0.084  23.680  0.00  0.00    +0.080 C 
BRANCH  15  16
ATOM     16  C   UNL     1       1.941   0.404  22.478  0.00  0.00    -0.010 C 
ATOM     17  C   UNL     1       3.425   0.346  22.851  0.00  0.00    +0.007 C 
ATOM     18  C   UNL     1       1.657  -0.576  21.338  0.00  0.00    +0.007 C 
ENDBRANCH  15  16
ENDBRANCH  13  15
ENDBRANCH   9  10
ENDBRANCH   6   9
TORSDOF 7
ENDMDL
MODEL 7
REMARK VINA RESULT:      -6.0      2.219      4.443
REMARK  Name = 56775685
REMARK  9 active torsions:
REMARK  status: ('A' for Active; 'I' for Inactive)
REMARK    1  A    between atoms: N_3  and  C_6
REMARK    2  A    between atoms: N_3  and  C_11
REMARK    3  A    between atoms: C_6  and  C_9
REMARK    4  A    between atoms: C_9  and  C_10
REMARK    5  A    between atoms: C_11  and  C_14
REMARK    6  A    between atoms: C_13  and  C_15
REMARK    7  A    between atoms: C_15  and  C_16
REMARK    8  A    between atoms: C_16  and  C_17
REMARK    9  A    between atoms: C_16  and  C_18
REMARK                            x       y       z     vdW  Elec       q    Type
REMARK                         _______ _______ _______ _____ _____    ______ ____
ROOT
ATOM      1  O   UNL     1       2.333  -0.057  21.738  0.00  0.00    -0.376 OA
ATOM      6  C   UNL     1       0.818  -0.079  23.242  0.00  0.00    +0.072 C 
ATOM      7  C   UNL     1       0.937  -0.431  21.763  0.00  0.00    +0.184 C 
ATOM      8  C   UNL     1       2.314   0.204  23.160  0.00  0.00    +0.184 C 
ENDROOT
BRANCH   6   3
ATOM      3  N   UNL     1       0.108   1.185  23.368  0.00  0.00    -0.302 NA
ATOM     23  H   UNL     1      -0.909   1.115  23.342  0.00  0.00    +0.123 HD
BRANCH   3  11
ATOM     11  C   UNL     1       0.525   1.867  24.591  0.00  0.00    +0.118 C 
BRANCH  11  14
ATOM      5  N   UNL     1      -2.294   3.669  26.364  0.00  0.00    -0.263 NA
ATOM     14  C   UNL     1      -0.442   2.952  24.985  0.00  0.00    -0.015 A 
ATOM     19  C   UNL     1      -0.402   4.202  24.376  0.00  0.00    +0.008 A 
ATOM     20  C   UNL     1      -1.398   2.739  25.965  0.00  0.00    +0.115 A 
ATOM     21  C   UNL     1      -1.307   5.185  24.760  0.00  0.00    +0.020 A 
ATOM     22  C   UNL     1      -2.224   4.871  25.749  0.00  0.00    +0.111 A 
ENDBRANCH  11  14
ENDBRANCH   3  11
ENDBRANCH   6   3
BRANCH   6   9
ATOM      9  C   UNL     1       0.317  -1.147  24.223  0.00  0.00    +0.085 C 
BRANCH   9  10
ATOM      2  O   UNL     1      -2.674  -0.566  26.084  0.00  0.00    -0.359 OA
ATOM      4  N   UNL     1      -1.331  -0.909  25.994  0.00  0.00    -0.083 NA
ATOM     10  C   UNL     1      -1.044  -0.843  24.691  0.00  0.00    +0.086 A 
ATOM     12  C   UNL     1      -2.157  -0.467  23.918  0.00  0.00    +0.071 A 
ATOM     13  C   UNL     1      -3.155  -0.306  24.842  0.00  0.00    +0.138 A 
BRANCH  13  15
ATOM     15  C   UNL     1      -4.610   0.087  24.751  0.00  0.00    +0.080 C 
BRANCH  15  16
ATOM     16  C   UNL     1      -4.866   1.589  24.987  0.00  0.00    -0.010 C 
ATOM     17  C   UNL     1      -4.316   2.451  23.848  0.00  0.00    +0.007 C 
ATOM     18  C   UNL     1      -6.367   1.840  25.147  0.00  0.00    +0.007 C 
ENDBRANCH  15  16
ENDBRANCH  13  15
ENDBRANCH   9  10
ENDBRANCH   6   9
TORSDOF 7
ENDMDL
MODEL 8
REMARK VINA RESULT:      -5.9      2.150      6.169
REMARK  Name = 56775685
REMARK  9 active torsions:
REMARK  status: ('A' for Active; 'I' for Inactive)
REMARK    1  A    between atoms: N_3  and  C_6
REMARK    2  A    between atoms: N_3  and  C_11
REMARK    3  A    between atoms: C_6  and  C_9
REMARK    4  A    between atoms: C_9  and  C_10
REMARK    5  A    between atoms: C_11  and  C_14
REMARK    6  A    between atoms: C_13  and  C_15
REMARK    7  A    between atoms: C_15  and  C_16
REMARK    8  A    between atoms: C_16  and  C_17
REMARK    9  A    between atoms: C_16  and  C_18
REMARK                            x       y       z     vdW  Elec       q    Type
REMARK                         _______ _______ _______ _____ _____    ______ ____
ROOT
ATOM      1  O   UNL     1      -3.426  -3.607  24.528  0.00  0.00    -0.376 OA
ATOM      6  C   UNL     1      -3.246  -1.483  24.410  0.00  0.00    +0.072 C 
ATOM      7  C   UNL     1      -2.358  -2.700  24.175  0.00  0.00    +0.184 C 
ATOM      8  C   UNL     1      -4.347  -2.503  24.675  0.00  0.00    +0.184 C 
ENDROOT
BRANCH   6   3
ATOM      3  N   UNL     1      -2.868  -0.862  25.671  0.00  0.00    -0.302 NA
ATOM     23  H   UNL     1      -3.377  -1.195  26.488  0.00  0.00    +0.123 HD
BRANCH   3  11
ATOM     11  C   UNL     1      -1.431  -1.018  25.886  0.00  0.00    +0.118 C 
BRANCH  11  14
ATOM      5  N   UNL     1       0.746   0.850  23.416  0.00  0.00    -0.263 NA
ATOM     14  C   UNL     1      -0.644   0.093  25.243  0.00  0.00    -0.015 A 
ATOM     19  C   UNL     1      -0.564   1.349  25.835  0.00  0.00    +0.008 A 
ATOM     20  C   UNL     1       0.022  -0.103  24.044  0.00  0.00    +0.115 A 
ATOM     21  C   UNL     1       0.172   2.356  25.218  0.00  0.00    +0.020 A 
ATOM     22  C   UNL     1       0.801   2.058  24.021  0.00  0.00    +0.111 A 
ENDBRANCH  11  14
ENDBRANCH   3  11
ENDBRANCH   6   3
BRANCH   6   9
ATOM      9  C   UNL     1      -3.432  -0.467  23.275  0.00  0.00    +0.085 C 
BRANCH   9  10
ATOM      2  O   UNL     1      -4.919   2.328  24.926  0.00  0.00    -0.359 OA
ATOM      4  N   UNL     1      -4.848   0.973  24.627  0.00  0.00    -0.083 NA
ATOM     10  C   UNL     1      -3.806   0.855  23.800  0.00  0.00    +0.086 A 
ATOM     12  C   UNL     1      -3.185   2.091  23.544  0.00  0.00    +0.071 A 
ATOM     13  C   UNL     1      -3.924   2.983  24.276  0.00  0.00    +0.138 A 
BRANCH  13  15
ATOM     15  C   UNL     1      -3.849   4.476  24.489  0.00  0.00    +0.080 C 
BRANCH  15  16
ATOM     16  C   UNL     1      -2.888   4.896  25.619  0.00  0.00    -0.010 C 
ATOM     17  C   UNL     1      -2.824   3.850  26.735  0.00  0.00    +0.007 C 
ATOM     18  C   UNL     1      -1.487   5.129  25.049  0.00  0.00    +0.007 C 
ENDBRANCH  15  16
ENDBRANCH  13  15
ENDBRANCH   9  10
ENDBRANCH   6   9
TORSDOF 7
ENDMDL
MODEL 9
REMARK VINA RESULT:      -5.9      1.802      4.086
REMARK  Name = 56775685
REMARK  9 active torsions:
REMARK  status: ('A' for Active; 'I' for Inactive)
REMARK    1  A    between atoms: N_3  and  C_6
REMARK    2  A    between atoms: N_3  and  C_11
REMARK    3  A    between atoms: C_6  and  C_9
REMARK    4  A    between atoms: C_9  and  C_10
REMARK    5  A    between atoms: C_11  and  C_14
REMARK    6  A    between atoms: C_13  and  C_15
REMARK    7  A    between atoms: C_15  and  C_16
REMARK    8  A    between atoms: C_16  and  C_17
REMARK    9  A    between atoms: C_16  and  C_18
REMARK                            x       y       z     vdW  Elec       q    Type
REMARK                         _______ _______ _______ _____ _____    ______ ____
ROOT
ATOM      1  O   UNL     1      -6.507   4.049  26.064  0.00  0.00    -0.376 OA
ATOM      6  C   UNL     1      -4.544   3.780  25.272  0.00  0.00    +0.072 C 
ATOM      7  C   UNL     1      -5.650   2.906  25.851  0.00  0.00    +0.184 C 
ATOM      8  C   UNL     1      -5.540   4.922  25.439  0.00  0.00    +0.184 C 
ENDROOT
BRANCH   6   3
ATOM      3  N   UNL     1      -3.492   3.927  26.268  0.00  0.00    -0.302 NA
ATOM     23  H   UNL     1      -3.270   3.081  26.791  0.00  0.00    +0.123 HD
BRANCH   3  11
ATOM     11  C   UNL     1      -2.282   4.447  25.635  0.00  0.00    +0.118 C 
BRANCH  11  14
ATOM      5  N   UNL     1       0.512   2.568  23.905  0.00  0.00    -0.263 NA
ATOM     14  C   UNL     1      -1.317   3.347  25.280  0.00  0.00    -0.015 A 
ATOM     19  C   UNL     1      -1.339   2.131  25.954  0.00  0.00    +0.008 A 
ATOM     20  C   UNL     1      -0.380   3.514  24.273  0.00  0.00    +0.115 A 
ATOM     21  C   UNL     1      -0.436   1.133  25.604  0.00  0.00    +0.020 A 
ATOM     22  C   UNL     1       0.461   1.399  24.583  0.00  0.00    +0.111 A 
ENDBRANCH  11  14
ENDBRANCH   3  11
ENDBRANCH   6   3
BRANCH   6   9
ATOM      9  C   UNL     1      -4.002   3.465  23.872  0.00  0.00    +0.085 C 
BRANCH   9  10
ATOM      2  O   UNL     1      -3.020   0.179  22.875  0.00  0.00    -0.359 OA
ATOM      4  N   UNL     1      -2.935   1.564  22.797  0.00  0.00    -0.083 NA
ATOM     10  C   UNL     1      -3.824   2.016  23.684  0.00  0.00    +0.086 A 
ATOM     12  C   UNL     1      -4.495   0.973  24.347  0.00  0.00    +0.071 A 
ATOM     13  C   UNL     1      -3.953  -0.160  23.801  0.00  0.00    +0.138 A 
BRANCH  13  15
ATOM     15  C   UNL     1      -4.179  -1.637  24.020  0.00  0.00    +0.080 C 
BRANCH  15  16
ATOM     16  C   UNL     1      -3.226  -2.266  25.056  0.00  0.00    -0.010 C 
ATOM     17  C   UNL     1      -1.809  -2.438  24.503  0.00  0.00    +0.007 C 
ATOM     18  C   UNL     1      -3.186  -1.399  26.317  0.00  0.00    +0.007 C 
ENDBRANCH  15  16
ENDBRANCH  13  15
ENDBRANCH   9  10
ENDBRANCH   6   9
TORSDOF 7
ENDMDL
MODEL 10
REMARK VINA RESULT:      -5.8      1.953      4.885
REMARK  Name = 56775685
REMARK  9 active torsions:
REMARK  status: ('A' for Active; 'I' for Inactive)
REMARK    1  A    between atoms: N_3  and  C_6
REMARK    2  A    between atoms: N_3  and  C_11
REMARK    3  A    between atoms: C_6  and  C_9
REMARK    4  A    between atoms: C_9  and  C_10
REMARK    5  A    between atoms: C_11  and  C_14
REMARK    6  A    between atoms: C_13  and  C_15
REMARK    7  A    between atoms: C_15  and  C_16
REMARK    8  A    between atoms: C_16  and  C_17
REMARK    9  A    between atoms: C_16  and  C_18
REMARK                            x       y       z     vdW  Elec       q    Type
REMARK                         _______ _______ _______ _____ _____    ______ ____
ROOT
ATOM      1  O   UNL     1       0.828  -0.285  21.865  0.00  0.00    -0.376 OA
ATOM      6  C   UNL     1       0.560   0.403  23.868  0.00  0.00    +0.072 C 
ATOM      7  C   UNL     1       1.717  -0.037  22.977  0.00  0.00    +0.184 C 
ATOM      8  C   UNL     1      -0.299   0.210  22.623  0.00  0.00    +0.184 C 
ENDROOT
BRANCH   6   3
ATOM      3  N   UNL     1       0.263  -0.665  24.813  0.00  0.00    -0.302 NA
ATOM     23  H   UNL     1       1.020  -0.898  25.454  0.00  0.00    +0.123 HD
BRANCH   3  11
ATOM     11  C   UNL     1      -0.942  -0.335  25.568  0.00  0.00    +0.118 C 
BRANCH  11  14
ATOM      5  N   UNL     1      -3.230  -2.978  24.113  0.00  0.00    -0.263 NA
ATOM     14  C   UNL     1      -2.167  -0.989  24.984  0.00  0.00    -0.015 A 
ATOM     19  C   UNL     1      -3.333  -0.262  24.771  0.00  0.00    +0.008 A 
ATOM     20  C   UNL     1      -2.167  -2.331  24.642  0.00  0.00    +0.115 A 
ATOM     21  C   UNL     1      -4.448  -0.893  24.229  0.00  0.00    +0.020 A 
ATOM     22  C   UNL     1      -4.346  -2.239  23.921  0.00  0.00    +0.111 A 
ENDBRANCH  11  14
ENDBRANCH   3  11
ENDBRANCH   6   3
BRANCH   6   9
ATOM      9  C   UNL     1       0.614   1.787  24.528  0.00  0.00    +0.085 C 
BRANCH   9  10
ATOM      2  O   UNL     1      -2.669   3.091  24.002  0.00  0.00    -0.359 OA
ATOM      4  N   UNL     1      -1.488   2.515  23.548  0.00  0.00    -0.083 NA
ATOM     10  C   UNL     1      -0.730   2.376  24.639  0.00  0.00    +0.086 A 
ATOM     12  C   UNL     1      -1.372   2.842  25.799  0.00  0.00    +0.071 A 
ATOM     13  C   UNL     1      -2.588   3.280  25.343  0.00  0.00    +0.138 A 
BRANCH  13  15
ATOM     15  C   UNL     1      -3.792   3.900  26.010  0.00  0.00    +0.080 C 
BRANCH  15  16
ATOM     16  C   UNL     1      -5.128   3.570  25.315  0.00  0.00    -0.010 C 
ATOM     17  C   UNL     1      -5.747   2.275  25.848  0.00  0.00    +0.007 C 
ATOM     18  C   UNL     1      -6.111   4.728  25.504  0.00  0.00    +0.007 C 
ENDBRANCH  15  16
ENDBRANCH  13  15
ENDBRANCH   9  10
ENDBRANCH   6   9
TORSDOF 7
ENDMDL
