MODEL 1
REMARK VINA RESULT:      -0.1      0.000      0.000
REMARK  Name = 28960541
REMARK  6 active torsions:
REMARK  status: ('A' for Active; 'I' for Inactive)
REMARK    1  A    between atoms: O_6  and  C_14
REMARK    2  A    between atoms: N_9  and  C_13
REMARK    3  A    between atoms: N_10  and  C_15
REMARK    4  A    between atoms: N_12  and  C_26
REMARK    5  A    between atoms: C_23  and  C_24
REMARK    6  A    between atoms: C_29  and  C_32
REMARK                            x       y       z     vdW  Elec       q    Type
REMARK                         _______ _______ _______ _____ _____    ______ ____
ROOT
ATOM      4  O   UNL     1      -3.526   3.222  26.803  0.00  0.00    -0.342 OA
ATOM      5  O   UNL     1      -5.265   4.490  25.938  0.00  0.00    -0.347 OA
ATOM     13  C   UNL     1      -4.364   2.680  24.608  0.00  0.00    +0.143 C 
ATOM     14  C   UNL     1      -3.339   3.639  23.959  0.00  0.00    +0.159 C 
ATOM     15  C   UNL     1      -2.351   4.259  24.971  0.00  0.00    +0.136 C 
ATOM     16  C   UNL     1      -4.729   3.158  26.026  0.00  0.00    +0.270 C 
ATOM     17  C   UNL     1      -2.964   4.465  26.372  0.00  0.00    +0.170 C 
ATOM     18  C   UNL     1      -4.201   5.345  26.383  0.00  0.00    +0.196 C 
ENDROOT
BRANCH  15  10
ATOM      8  O   UNL     1      -1.207   2.640  22.905  0.00  0.00    -0.252 OA
ATOM     10  N   UNL     1      -1.162   3.439  25.073  0.00  0.00    -0.291 N 
ATOM     12  N   UNL     1       0.482   1.993  24.401  0.00  0.00    -0.269 N 
ATOM     25  C   UNL     1      -0.672   2.677  24.010  0.00  0.00    +0.304 C 
ATOM     33  H   UNL     1      -0.711   3.356  25.979  0.00  0.00    +0.151 HD
ATOM     37  H   UNL     1       0.795   2.134  25.358  0.00  0.00    +0.156 HD
BRANCH  12  26
ATOM     26  C   UNL     1       1.278   1.119  23.623  0.00  0.00    +0.035 A 
ATOM     27  C   UNL     1       2.660   1.082  23.809  0.00  0.00    +0.035 A 
ATOM     28  C   UNL     1       0.681   0.295  22.670  0.00  0.00    +0.023 A 
ATOM     29  C   UNL     1       3.445   0.221  23.042  0.00  0.00    +0.057 A 
ATOM     30  C   UNL     1       1.465  -0.567  21.902  0.00  0.00    +0.002 A 
ATOM     31  C   UNL     1       2.847  -0.604  22.089  0.00  0.00    +0.012 A 
BRANCH  29  32
ATOM      1  F   UNL     1       5.610   0.142  22.062  0.00  0.00    -0.166 F 
ATOM      2  F   UNL     1       5.413   1.262  23.916  0.00  0.00    -0.166 F 
ATOM      3  F   UNL     1       5.350  -0.905  23.950  0.00  0.00    -0.166 F 
ATOM     32  C   UNL     1       4.923   0.181  23.241  0.00  0.00    +0.417 C 
ENDBRANCH  29  32
ENDBRANCH  12  26
ENDBRANCH  15  10
BRANCH  13   9
ATOM      9  N   UNL     1      -3.817   1.323  24.669  0.00  0.00    -0.293 NA
ATOM     19  C   UNL     1      -4.682   0.457  25.481  0.00  0.00    +0.085 C 
ATOM     20  C   UNL     1      -3.643   0.780  23.315  0.00  0.00    +0.085 C 
ATOM     21  C   UNL     1      -4.096  -0.951  25.600  0.00  0.00    +0.028 C 
ATOM     22  C   UNL     1      -3.022  -0.617  23.358  0.00  0.00    +0.028 C 
ATOM     23  C   UNL     1      -3.849  -1.566  24.224  0.00  0.00    +0.077 C 
BRANCH  23  24
ATOM      7  O   UNL     1      -3.721  -3.951  24.288  0.00  0.00    -0.276 OA
ATOM     11  N   UNL     1      -1.785  -2.746  24.593  0.00  0.00    -0.329 N 
ATOM     24  C   UNL     1      -3.133  -2.874  24.362  0.00  0.00    +0.214 C 
ATOM     35  H   UNL     1      -1.326  -1.844  24.662  0.00  0.00    +0.145 HD
ATOM     36  H   UNL     1      -1.196  -3.565  24.708  0.00  0.00    +0.145 HD
ENDBRANCH  23  24
ENDBRANCH  13   9
BRANCH  14   6
ATOM      6  O   UNL     1      -4.071   4.695  23.323  0.00  0.00    -0.388 OA
ATOM     34  H   UNL     1      -4.997   4.408  23.251  0.00  0.00    +0.210 HD
ENDBRANCH  14   6
TORSDOF 6
ENDMDL
MODEL 2
REMARK VINA RESULT:       2.9      2.151      4.961
REMARK  Name = 28960541
REMARK  6 active torsions:
REMARK  status: ('A' for Active; 'I' for Inactive)
REMARK    1  A    between atoms: O_6  and  C_14
REMARK    2  A    between atoms: N_9  and  C_13
REMARK    3  A    between atoms: N_10  and  C_15
REMARK    4  A    between atoms: N_12  and  C_26
REMARK    5  A    between atoms: C_23  and  C_24
REMARK    6  A    between atoms: C_29  and  C_32
REMARK                            x       y       z     vdW  Elec       q    Type
REMARK                         _______ _______ _______ _____ _____    ______ ____
ROOT
ATOM      4  O   UNL     1      -3.971  -0.534  23.186  0.00  0.00    -0.342 OA
ATOM      5  O   UNL     1      -5.106  -1.533  24.944  0.00  0.00    -0.347 OA
ATOM     13  C   UNL     1      -3.354   0.060  25.440  0.00  0.00    +0.143 C 
ATOM     14  C   UNL     1      -2.303  -1.074  25.472  0.00  0.00    +0.159 C 
ATOM     15  C   UNL     1      -2.152  -1.811  24.123  0.00  0.00    +0.136 C 
ATOM     16  C   UNL     1      -4.513  -0.304  24.492  0.00  0.00    +0.270 C 
ATOM     17  C   UNL     1      -3.463  -1.866  23.311  0.00  0.00    +0.170 C 
ATOM     18  C   UNL     1      -4.616  -2.533  24.039  0.00  0.00    +0.196 C 
ENDROOT
BRANCH  15  10
ATOM      8  O   UNL     1       0.485  -1.123  25.000  0.00  0.00    -0.252 OA
ATOM     10  N   UNL     1      -1.112  -1.191  23.330  0.00  0.00    -0.291 N 
ATOM     12  N   UNL     1       0.944  -0.300  22.850  0.00  0.00    -0.269 N 
ATOM     25  C   UNL     1       0.154  -0.889  23.841  0.00  0.00    +0.304 C 
ATOM     33  H   UNL     1      -1.338  -0.895  22.386  0.00  0.00    +0.151 HD
ATOM     37  H   UNL     1       0.514  -0.177  21.937  0.00  0.00    +0.156 HD
BRANCH  12  26
ATOM     26  C   UNL     1       2.280   0.151  22.961  0.00  0.00    +0.035 A 
ATOM     27  C   UNL     1       3.275  -0.720  23.406  0.00  0.00    +0.035 A 
ATOM     28  C   UNL     1       2.602   1.465  22.625  0.00  0.00    +0.023 A 
ATOM     29  C   UNL     1       4.593  -0.276  23.515  0.00  0.00    +0.057 A 
ATOM     30  C   UNL     1       3.920   1.910  22.735  0.00  0.00    +0.002 A 
ATOM     31  C   UNL     1       4.915   1.040  23.180  0.00  0.00    +0.012 A 
BRANCH  29  32
ATOM      1  F   UNL     1       6.806  -1.107  23.261  0.00  0.00    -0.166 F 
ATOM      2  F   UNL     1       6.028  -0.996  25.289  0.00  0.00    -0.166 F 
ATOM      3  F   UNL     1       5.299  -2.523  23.932  0.00  0.00    -0.166 F 
ATOM     32  C   UNL     1       5.657  -1.206  23.991  0.00  0.00    +0.417 C 
ENDBRANCH  29  32
ENDBRANCH  12  26
ENDBRANCH  15  10
BRANCH  13   9
ATOM      9  N   UNL     1      -2.732   1.312  25.003  0.00  0.00    -0.293 NA
ATOM     19  C   UNL     1      -3.660   2.436  25.182  0.00  0.00    +0.085 C 
ATOM     20  C   UNL     1      -1.476   1.540  25.730  0.00  0.00    +0.085 C 
ATOM     21  C   UNL     1      -3.045   3.743  24.679  0.00  0.00    +0.028 C 
ATOM     22  C   UNL     1      -0.785   2.817  25.247  0.00  0.00    +0.028 C 
ATOM     23  C   UNL     1      -1.711   4.027  25.365  0.00  0.00    +0.077 C 
BRANCH  23  24
ATOM      7  O   UNL     1      -1.360   6.371  25.064  0.00  0.00    -0.276 OA
ATOM     11  N   UNL     1      -0.111   4.910  23.799  0.00  0.00    -0.329 N 
ATOM     24  C   UNL     1      -1.055   5.223  24.748  0.00  0.00    +0.214 C 
ATOM     35  H   UNL     1       0.113   3.953  23.547  0.00  0.00    +0.145 HD
ATOM     36  H   UNL     1       0.397   5.639  23.309  0.00  0.00    +0.145 HD
ENDBRANCH  23  24
ENDBRANCH  13   9
BRANCH  14   6
ATOM      6  O   UNL     1      -2.711  -2.019  26.470  0.00  0.00    -0.388 OA
ATOM     34  H   UNL     1      -3.050  -2.805  26.010  0.00  0.00    +0.210 HD
ENDBRANCH  14   6
TORSDOF 6
ENDMDL
MODEL 3
REMARK VINA RESULT:       3.0      1.838      4.836
REMARK  Name = 28960541
REMARK  6 active torsions:
REMARK  status: ('A' for Active; 'I' for Inactive)
REMARK    1  A    between atoms: O_6  and  C_14
REMARK    2  A    between atoms: N_9  and  C_13
REMARK    3  A    between atoms: N_10  and  C_15
REMARK    4  A    between atoms: N_12  and  C_26
REMARK    5  A    between atoms: C_23  and  C_24
REMARK    6  A    between atoms: C_29  and  C_32
REMARK                            x       y       z     vdW  Elec       q    Type
REMARK                         _______ _______ _______ _____ _____    ______ ____
ROOT
ATOM      4  O   UNL     1      -3.092  -0.947  23.265  0.00  0.00    -0.342 OA
ATOM      5  O   UNL     1      -5.049  -1.837  24.134  0.00  0.00    -0.347 OA
ATOM     13  C   UNL     1      -4.120   0.151  25.151  0.00  0.00    +0.143 C 
ATOM     14  C   UNL     1      -3.290  -0.711  26.130  0.00  0.00    +0.159 C 
ATOM     15  C   UNL     1      -2.263  -1.625  25.426  0.00  0.00    +0.136 C 
ATOM     16  C   UNL     1      -4.364  -0.610  23.834  0.00  0.00    +0.270 C 
ATOM     17  C   UNL     1      -2.725  -2.098  24.032  0.00  0.00    +0.170 C 
ATOM     18  C   UNL     1      -4.040  -2.855  24.039  0.00  0.00    +0.196 C 
ENDROOT
BRANCH  15  10
ATOM      8  O   UNL     1      -0.464  -1.721  23.200  0.00  0.00    -0.252 OA
ATOM     10  N   UNL     1      -0.988  -0.948  25.315  0.00  0.00    -0.291 N 
ATOM     12  N   UNL     1       0.991  -0.292  24.364  0.00  0.00    -0.269 N 
ATOM     25  C   UNL     1      -0.169  -1.050  24.186  0.00  0.00    +0.304 C 
ATOM     33  H   UNL     1      -0.640  -0.440  26.122  0.00  0.00    +0.151 HD
ATOM     37  H   UNL     1       1.080   0.207  25.246  0.00  0.00    +0.156 HD
BRANCH  12  26
ATOM     26  C   UNL     1       2.069  -0.132  23.461  0.00  0.00    +0.035 A 
ATOM     27  C   UNL     1       3.380  -0.117  23.936  0.00  0.00    +0.035 A 
ATOM     28  C   UNL     1       1.819   0.012  22.097  0.00  0.00    +0.023 A 
ATOM     29  C   UNL     1       4.443   0.041  23.046  0.00  0.00    +0.057 A 
ATOM     30  C   UNL     1       2.881   0.171  21.207  0.00  0.00    +0.002 A 
ATOM     31  C   UNL     1       4.193   0.185  21.681  0.00  0.00    +0.012 A 
BRANCH  29  32
ATOM      1  F   UNL     1       6.246   1.300  23.949  0.00  0.00    -0.166 F 
ATOM      2  F   UNL     1       6.046  -0.754  24.634  0.00  0.00    -0.166 F 
ATOM      3  F   UNL     1       6.766  -0.347  22.629  0.00  0.00    -0.166 F 
ATOM     32  C   UNL     1       5.845   0.057  23.554  0.00  0.00    +0.417 C 
ENDBRANCH  29  32
ENDBRANCH  12  26
ENDBRANCH  15  10
BRANCH  13   9
ATOM      9  N   UNL     1      -3.424   1.410  24.874  0.00  0.00    -0.293 NA
ATOM     19  C   UNL     1      -4.313   2.553  25.123  0.00  0.00    +0.085 C 
ATOM     20  C   UNL     1      -2.198   1.506  25.677  0.00  0.00    +0.085 C 
ATOM     21  C   UNL     1      -3.619   3.873  24.785  0.00  0.00    +0.028 C 
ATOM     22  C   UNL     1      -1.431   2.791  25.360  0.00  0.00    +0.028 C 
ATOM     23  C   UNL     1      -2.310   4.024  25.558  0.00  0.00    +0.077 C 
BRANCH  23  24
ATOM      7  O   UNL     1      -2.062   6.370  25.176  0.00  0.00    -0.276 OA
ATOM     11  N   UNL     1      -0.333   4.977  24.571  0.00  0.00    -0.329 N 
ATOM     24  C   UNL     1      -1.574   5.245  25.097  0.00  0.00    +0.214 C 
ATOM     35  H   UNL     1       0.041   4.036  24.505  0.00  0.00    +0.145 HD
ATOM     36  H   UNL     1       0.257   5.726  24.221  0.00  0.00    +0.145 HD
ENDBRANCH  23  24
ENDBRANCH  13   9
BRANCH  14   6
ATOM      6  O   UNL     1      -4.203  -1.530  26.872  0.00  0.00    -0.388 OA
ATOM     34  H   UNL     1      -4.354  -2.341  26.358  0.00  0.00    +0.210 HD
ENDBRANCH  14   6
TORSDOF 6
ENDMDL
