MODEL 1
REMARK VINA RESULT:      -1.4      0.000      0.000
REMARK  Name = 45361082
REMARK  6 active torsions:
REMARK  status: ('A' for Active; 'I' for Inactive)
REMARK    1  A    between atoms: N_4  and  C_19
REMARK    2  A    between atoms: N_5  and  C_18
REMARK    3  A    between atoms: C_14  and  C_17
REMARK    4  A    between atoms: C_17  and  C_20
REMARK    5  A    between atoms: C_18  and  C_21
REMARK    6  A    between atoms: C_20  and  C_22
REMARK                            x       y       z     vdW  Elec       q    Type
REMARK                         _______ _______ _______ _____ _____    ______ ____
ROOT
ATOM      1  O   UNL     1      -2.883   2.346  22.733  0.00  0.00    -0.274 OA
ATOM      4  N   UNL     1      -2.892  -1.081  24.536  0.00  0.00    -0.296 NA
ATOM      5  N   UNL     1      -4.883   1.990  24.512  0.00  0.00    -0.283 NA
ATOM      6  N   UNL     1      -1.303   1.264  23.987  0.00  0.00    -0.312 N 
ATOM     10  C   UNL     1      -3.818  -0.098  25.142  0.00  0.00    +0.084 C 
ATOM     11  C   UNL     1      -3.573   1.415  24.874  0.00  0.00    +0.161 C 
ATOM     12  C   UNL     1      -5.284  -0.269  24.704  0.00  0.00    +0.036 C 
ATOM     13  C   UNL     1      -5.904   1.078  25.014  0.00  0.00    +0.087 C 
ATOM     14  C   UNL     1      -1.486  -0.980  25.018  0.00  0.00    +0.074 C 
ATOM     15  C   UNL     1      -2.586   1.721  23.750  0.00  0.00    +0.232 C 
ATOM     16  C   UNL     1      -0.940   0.457  25.134  0.00  0.00    +0.123 C 
ATOM     19  C   UNL     1      -3.395  -2.453  24.713  0.00  0.00    +0.105 C 
ATOM     29  H   UNL     1      -0.581   1.504  23.314  0.00  0.00    +0.149 HD
ENDROOT
BRANCH  14  17
ATOM     17  C   UNL     1      -0.537  -1.762  24.084  0.00  0.00    +0.029 C 
BRANCH  17  20
ATOM     20  C   UNL     1       0.917  -1.405  24.325  0.00  0.00    +0.097 C 
BRANCH  20  22
ATOM      2  O   UNL     1       0.679   0.095  22.504  0.00  0.00    -0.276 OA
ATOM      3  O   UNL     1       5.586   0.099  23.129  0.00  0.00    -0.377 OA
ATOM      7  N   UNL     1       2.845  -0.547  23.045  0.00  0.00    -0.297 N 
ATOM     22  C   UNL     1       1.460  -0.551  23.207  0.00  0.00    +0.216 C 
ATOM     23  C   UNL     1       3.456   0.258  21.988  0.00  0.00    +0.136 C 
ATOM     24  C   UNL     1       3.789  -1.397  23.777  0.00  0.00    +0.136 C 
ATOM     26  C   UNL     1       4.664   1.010  22.526  0.00  0.00    +0.179 C 
ATOM     27  C   UNL     1       4.988  -0.578  24.238  0.00  0.00    +0.179 C 
ENDBRANCH  20  22
ENDBRANCH  17  20
ENDBRANCH  14  17
BRANCH   5  18
ATOM     18  C   UNL     1      -5.072   3.348  25.003  0.00  0.00    +0.159 C 
BRANCH  18  21
ATOM      8  N   UNL     1      -3.079   4.729  24.372  0.00  0.00    -0.347 N 
ATOM      9  N   UNL     1      -3.132   4.014  26.473  0.00  0.00    -0.239 NA
ATOM     21  C   UNL     1      -3.762   4.018  25.320  0.00  0.00    +0.121 A 
ATOM     25  C   UNL     1      -1.941   5.209  24.959  0.00  0.00    +0.104 A 
ATOM     28  C   UNL     1      -1.997   4.754  26.256  0.00  0.00    +0.130 A 
ATOM     30  H   UNL     1      -3.362   4.876  23.412  0.00  0.00    +0.167 HD
ENDBRANCH  18  21
ENDBRANCH   5  18
TORSDOF 5
ENDMDL
MODEL 2
REMARK VINA RESULT:      -1.3      1.818      6.858
REMARK  Name = 45361082
REMARK  6 active torsions:
REMARK  status: ('A' for Active; 'I' for Inactive)
REMARK    1  A    between atoms: N_4  and  C_19
REMARK    2  A    between atoms: N_5  and  C_18
REMARK    3  A    between atoms: C_14  and  C_17
REMARK    4  A    between atoms: C_17  and  C_20
REMARK    5  A    between atoms: C_18  and  C_21
REMARK    6  A    between atoms: C_20  and  C_22
REMARK                            x       y       z     vdW  Elec       q    Type
REMARK                         _______ _______ _______ _____ _____    ______ ____
ROOT
ATOM      1  O   UNL     1      -0.345   1.973  24.154  0.00  0.00    -0.274 OA
ATOM      4  N   UNL     1      -2.637  -0.993  25.126  0.00  0.00    -0.296 NA
ATOM      5  N   UNL     1       0.735  -0.477  23.802  0.00  0.00    -0.283 NA
ATOM      6  N   UNL     1      -2.445   1.366  23.476  0.00  0.00    -0.312 N 
ATOM     10  C   UNL     1      -1.433  -1.407  24.372  0.00  0.00    +0.084 C 
ATOM     11  C   UNL     1      -0.703  -0.345  23.499  0.00  0.00    +0.161 C 
ATOM     12  C   UNL     1      -0.290  -1.934  25.259  0.00  0.00    +0.036 C 
ATOM     13  C   UNL     1       0.932  -1.803  24.375  0.00  0.00    +0.087 C 
ATOM     14  C   UNL     1      -3.780  -0.562  24.273  0.00  0.00    +0.074 C 
ATOM     15  C   UNL     1      -1.118   1.101  23.760  0.00  0.00    +0.232 C 
ATOM     16  C   UNL     1      -3.399   0.346  23.088  0.00  0.00    +0.123 C 
ATOM     19  C   UNL     1      -3.064  -2.054  26.054  0.00  0.00    +0.105 C 
ATOM     29  H   UNL     1      -2.766   2.326  23.553  0.00  0.00    +0.149 HD
ENDROOT
BRANCH  14  17
ATOM     17  C   UNL     1      -4.829   0.192  25.118  0.00  0.00    +0.029 C 
BRANCH  17  20
ATOM     20  C   UNL     1      -5.173   1.543  24.519  0.00  0.00    +0.097 C 
BRANCH  20  22
ATOM      2  O   UNL     1      -5.914   2.523  26.547  0.00  0.00    -0.276 OA
ATOM      3  O   UNL     1      -2.070   5.423  25.418  0.00  0.00    -0.377 OA
ATOM      7  N   UNL     1      -4.287   3.685  25.366  0.00  0.00    -0.297 N 
ATOM     22  C   UNL     1      -5.165   2.623  25.572  0.00  0.00    +0.216 C 
ATOM     23  C   UNL     1      -4.213   4.773  26.341  0.00  0.00    +0.136 C 
ATOM     24  C   UNL     1      -3.478   3.899  24.161  0.00  0.00    +0.136 C 
ATOM     26  C   UNL     1      -2.761   5.124  26.633  0.00  0.00    +0.179 C 
ATOM     27  C   UNL     1      -2.057   4.292  24.543  0.00  0.00    +0.179 C 
ENDBRANCH  20  22
ENDBRANCH  17  20
ENDBRANCH  14  17
BRANCH   5  18
ATOM     18  C   UNL     1       1.591  -0.247  22.646  0.00  0.00    +0.159 C 
BRANCH  18  21
ATOM      8  N   UNL     1       3.759  -1.145  23.526  0.00  0.00    -0.347 N 
ATOM      9  N   UNL     1       3.757   1.006  22.975  0.00  0.00    -0.239 NA
ATOM     21  C   UNL     1       3.036  -0.091  23.040  0.00  0.00    +0.121 A 
ATOM     25  C   UNL     1       5.021  -0.691  23.789  0.00  0.00    +0.104 A 
ATOM     28  C   UNL     1       4.995   0.640  23.441  0.00  0.00    +0.130 A 
ATOM     30  H   UNL     1       3.423  -2.090  23.666  0.00  0.00    +0.167 HD
ENDBRANCH  18  21
ENDBRANCH   5  18
TORSDOF 5
ENDMDL
MODEL 3
REMARK VINA RESULT:       0.4      2.163      6.598
REMARK  Name = 45361082
REMARK  6 active torsions:
REMARK  status: ('A' for Active; 'I' for Inactive)
REMARK    1  A    between atoms: N_4  and  C_19
REMARK    2  A    between atoms: N_5  and  C_18
REMARK    3  A    between atoms: C_14  and  C_17
REMARK    4  A    between atoms: C_17  and  C_20
REMARK    5  A    between atoms: C_18  and  C_21
REMARK    6  A    between atoms: C_20  and  C_22
REMARK                            x       y       z     vdW  Elec       q    Type
REMARK                         _______ _______ _______ _____ _____    ______ ____
ROOT
ATOM      1  O   UNL     1       0.846   1.813  25.859  0.00  0.00    -0.274 OA
ATOM      4  N   UNL     1      -2.080   1.392  23.357  0.00  0.00    -0.296 NA
ATOM      5  N   UNL     1       1.547   0.908  23.412  0.00  0.00    -0.283 NA
ATOM      6  N   UNL     1      -0.739   3.273  25.087  0.00  0.00    -0.312 N 
ATOM     10  C   UNL     1      -0.748   1.293  22.721  0.00  0.00    +0.084 C 
ATOM     11  C   UNL     1       0.474   1.920  23.455  0.00  0.00    +0.161 C 
ATOM     12  C   UNL     1      -0.273  -0.153  22.487  0.00  0.00    +0.036 C 
ATOM     13  C   UNL     1       1.226  -0.011  22.328  0.00  0.00    +0.087 C 
ATOM     14  C   UNL     1      -2.586   2.785  23.511  0.00  0.00    +0.074 C 
ATOM     15  C   UNL     1       0.226   2.298  24.913  0.00  0.00    +0.232 C 
ATOM     16  C   UNL     1      -1.542   3.805  24.004  0.00  0.00    +0.123 C 
ATOM     19  C   UNL     1      -3.066   0.567  22.640  0.00  0.00    +0.105 C 
ATOM     29  H   UNL     1      -0.896   3.625  26.026  0.00  0.00    +0.149 HD
ENDROOT
BRANCH  14  17
ATOM     17  C   UNL     1      -3.773   2.822  24.498  0.00  0.00    +0.029 C 
BRANCH  17  20
ATOM     20  C   UNL     1      -3.561   1.887  25.673  0.00  0.00    +0.097 C 
BRANCH  20  22
ATOM      2  O   UNL     1      -5.291   0.405  25.015  0.00  0.00    -0.276 OA
ATOM      3  O   UNL     1      -1.402  -2.648  25.159  0.00  0.00    -0.377 OA
ATOM      7  N   UNL     1      -3.250  -0.559  25.560  0.00  0.00    -0.297 N 
ATOM     22  C   UNL     1      -4.120   0.516  25.386  0.00  0.00    +0.216 C 
ATOM     23  C   UNL     1      -3.709  -1.922  25.299  0.00  0.00    +0.136 C 
ATOM     24  C   UNL     1      -1.896  -0.475  26.119  0.00  0.00    +0.136 C 
ATOM     26  C   UNL     1      -2.668  -2.687  24.495  0.00  0.00    +0.179 C 
ATOM     27  C   UNL     1      -0.929  -1.304  25.284  0.00  0.00    +0.179 C 
ENDBRANCH  20  22
ENDBRANCH  17  20
ENDBRANCH  14  17
BRANCH   5  18
ATOM     18  C   UNL     1       2.877   1.485  23.266  0.00  0.00    +0.159 C 
BRANCH  18  21
ATOM      8  N   UNL     1       3.694  -0.868  23.539  0.00  0.00    -0.347 N 
ATOM      9  N   UNL     1       5.226   0.720  23.780  0.00  0.00    -0.239 NA
ATOM     21  C   UNL     1       3.960   0.473  23.533  0.00  0.00    +0.121 A 
ATOM     25  C   UNL     1       4.866  -1.517  23.808  0.00  0.00    +0.104 A 
ATOM     28  C   UNL     1       5.798  -0.516  23.953  0.00  0.00    +0.130 A 
ATOM     30  H   UNL     1       2.795  -1.303  23.374  0.00  0.00    +0.167 HD
ENDBRANCH  18  21
ENDBRANCH   5  18
TORSDOF 5
ENDMDL
MODEL 4
REMARK VINA RESULT:       1.9      2.594      7.385
REMARK  Name = 45361082
REMARK  6 active torsions:
REMARK  status: ('A' for Active; 'I' for Inactive)
REMARK    1  A    between atoms: N_4  and  C_19
REMARK    2  A    between atoms: N_5  and  C_18
REMARK    3  A    between atoms: C_14  and  C_17
REMARK    4  A    between atoms: C_17  and  C_20
REMARK    5  A    between atoms: C_18  and  C_21
REMARK    6  A    between atoms: C_20  and  C_22
REMARK                            x       y       z     vdW  Elec       q    Type
REMARK                         _______ _______ _______ _____ _____    ______ ____
ROOT
ATOM      1  O   UNL     1      -2.806   0.411  24.188  0.00  0.00    -0.274 OA
ATOM      4  N   UNL     1      -0.237   3.308  24.179  0.00  0.00    -0.296 NA
ATOM      5  N   UNL     1      -0.220  -0.348  24.021  0.00  0.00    -0.283 NA
ATOM      6  N   UNL     1      -2.419   2.127  25.652  0.00  0.00    -0.312 N 
ATOM     10  C   UNL     1       0.382   1.977  24.369  0.00  0.00    +0.084 C 
ATOM     11  C   UNL     1      -0.509   0.811  24.887  0.00  0.00    +0.161 C 
ATOM     12  C   UNL     1       0.980   1.377  23.082  0.00  0.00    +0.036 C 
ATOM     13  C   UNL     1       1.072  -0.102  23.393  0.00  0.00    +0.087 C 
ATOM     14  C   UNL     1      -0.742   3.936  25.433  0.00  0.00    +0.074 C 
ATOM     15  C   UNL     1      -2.011   1.079  24.847  0.00  0.00    +0.232 C 
ATOM     16  C   UNL     1      -1.501   2.983  26.377  0.00  0.00    +0.123 C 
ATOM     19  C   UNL     1       0.687   4.222  23.486  0.00  0.00    +0.105 C 
ATOM     29  H   UNL     1      -3.415   2.306  25.731  0.00  0.00    +0.149 HD
ENDROOT
BRANCH  14  17
ATOM     17  C   UNL     1      -1.685   5.113  25.105  0.00  0.00    +0.029 C 
BRANCH  17  20
ATOM     20  C   UNL     1      -3.104   4.849  25.573  0.00  0.00    +0.097 C 
BRANCH  20  22
ATOM      2  O   UNL     1      -3.466   3.970  23.401  0.00  0.00    -0.276 OA
ATOM      3  O   UNL     1      -6.779   1.419  26.043  0.00  0.00    -0.377 OA
ATOM      7  N   UNL     1      -4.992   3.352  25.039  0.00  0.00    -0.297 N 
ATOM     22  C   UNL     1      -3.865   4.022  24.567  0.00  0.00    +0.216 C 
ATOM     23  C   UNL     1      -5.785   2.524  24.131  0.00  0.00    +0.136 C 
ATOM     24  C   UNL     1      -5.564   3.492  26.382  0.00  0.00    +0.136 C 
ATOM     26  C   UNL     1      -6.129   1.196  24.789  0.00  0.00    +0.179 C 
ATOM     27  C   UNL     1      -5.923   2.123  26.947  0.00  0.00    +0.179 C 
ENDBRANCH  20  22
ENDBRANCH  17  20
ENDBRANCH  14  17
BRANCH   5  18
ATOM     18  C   UNL     1      -0.250  -1.620  24.732  0.00  0.00    +0.159 C 
BRANCH  18  21
ATOM      8  N   UNL     1      -2.521  -1.954  25.738  0.00  0.00    -0.347 N 
ATOM      9  N   UNL     1      -2.133  -3.046  23.844  0.00  0.00    -0.239 NA
ATOM     21  C   UNL     1      -1.628  -2.226  24.738  0.00  0.00    +0.121 A 
ATOM     25  C   UNL     1      -3.667  -2.646  25.463  0.00  0.00    +0.104 A 
ATOM     28  C   UNL     1      -3.404  -3.312  24.290  0.00  0.00    +0.130 A 
ATOM     30  H   UNL     1      -2.364  -1.351  26.535  0.00  0.00    +0.167 HD
ENDBRANCH  18  21
ENDBRANCH   5  18
TORSDOF 5
ENDMDL
