MODEL 1
REMARK VINA RESULT:      -5.7      0.000      0.000
REMARK  Name = 75536686
REMARK  9 active torsions:
REMARK  status: ('A' for Active; 'I' for Inactive)
REMARK    1  A    between atoms: S_1  and  N_8
REMARK    2  A    between atoms: S_1  and  C_16
REMARK    3  A    between atoms: O_3  and  C_10
REMARK    4  A    between atoms: O_6  and  C_17
REMARK    5  A    between atoms: N_7  and  C_9
REMARK    6  A    between atoms: N_7  and  C_14
REMARK    7  A    between atoms: N_8  and  C_13
REMARK    8  A    between atoms: C_11  and  C_13
REMARK    9  A    between atoms: C_14  and  C_15
REMARK                            x       y       z     vdW  Elec       q    Type
REMARK                         _______ _______ _______ _____ _____    ______ ____
ROOT
ATOM      2  O   UNL     1      -0.338   3.373  25.627  0.00  0.00    -0.371 OA
ATOM      9  C   UNL     1       0.231   1.678  24.063  0.00  0.00    +0.111 C 
ATOM     10  C   UNL     1      -1.262   1.939  23.989  0.00  0.00    +0.164 C 
ATOM     11  C   UNL     1      -1.348   3.328  24.605  0.00  0.00    +0.164 C 
ATOM     12  C   UNL     1       0.575   2.282  25.415  0.00  0.00    +0.181 C 
ENDROOT
BRANCH  10   3
ATOM      3  O   UNL     1      -1.755   1.918  22.663  0.00  0.00    -0.388 OA
ATOM     28  H   UNL     1      -2.708   2.110  22.688  0.00  0.00    +0.210 HD
ENDBRANCH  10   3
BRANCH   9   7
ATOM      7  N   UNL     1       0.583   0.271  23.966  0.00  0.00    -0.305 NA
ATOM     27  H   UNL     1      -0.272  -0.282  23.896  0.00  0.00    +0.123 HD
BRANCH   7  14
ATOM     14  C   UNL     1       1.406   0.015  22.790  0.00  0.00    +0.120 C 
BRANCH  14  15
ATOM     15  C   UNL     1       2.856  -0.175  23.151  0.00  0.00    +0.008 A 
ATOM     17  C   UNL     1       3.755   0.889  23.076  0.00  0.00    +0.121 A 
ATOM     18  C   UNL     1       3.295  -1.432  23.563  0.00  0.00    +0.008 A 
ATOM     21  C   UNL     1       5.094   0.695  23.413  0.00  0.00    +0.046 A 
ATOM     22  C   UNL     1       4.636  -1.627  23.900  0.00  0.00    +0.001 A 
ATOM     23  C   UNL     1       5.534  -0.563  23.825  0.00  0.00    +0.004 A 
BRANCH  17   6
ATOM      6  O   UNL     1       3.342   2.124  22.674  0.00  0.00    -0.506 OA
ATOM     30  H   UNL     1       2.737   2.027  21.920  0.00  0.00    +0.292 HD
ENDBRANCH  17   6
ENDBRANCH  14  15
ENDBRANCH   7  14
ENDBRANCH   9   7
BRANCH  11  13
ATOM     13  C   UNL     1      -2.706   3.633  25.213  0.00  0.00    +0.140 C 
BRANCH  13   8
ATOM      8  N   UNL     1      -3.294   2.394  25.759  0.00  0.00    -0.187 NA
ATOM     29  H   UNL     1      -2.652   1.789  26.284  0.00  0.00    +0.148 HD
BRANCH   8   1
ATOM      1  S   UNL     1      -4.639   1.681  24.997  0.00  0.00    +0.058 S 
ATOM      4  O   UNL     1      -4.746   2.186  23.641  0.00  0.00    -0.153 OA
ATOM      5  O   UNL     1      -5.778   1.747  25.892  0.00  0.00    -0.153 OA
BRANCH   1  16
ATOM     16  C   UNL     1      -4.148  -0.015  24.910  0.00  0.00    +0.105 A 
ATOM     19  C   UNL     1      -4.600  -0.818  23.864  0.00  0.00    +0.028 A 
ATOM     20  C   UNL     1      -3.312  -0.550  25.890  0.00  0.00    +0.028 A 
ATOM     24  C   UNL     1      -4.216  -2.158  23.797  0.00  0.00    +0.002 A 
ATOM     25  C   UNL     1      -2.928  -1.889  25.824  0.00  0.00    +0.002 A 
ATOM     26  C   UNL     1      -3.380  -2.693  24.777  0.00  0.00    +0.000 A 
ENDBRANCH   1  16
ENDBRANCH   8   1
ENDBRANCH  13   8
ENDBRANCH  11  13
TORSDOF 9
ENDMDL
MODEL 2
REMARK VINA RESULT:      -5.0      0.944      1.625
REMARK  Name = 75536686
REMARK  9 active torsions:
REMARK  status: ('A' for Active; 'I' for Inactive)
REMARK    1  A    between atoms: S_1  and  N_8
REMARK    2  A    between atoms: S_1  and  C_16
REMARK    3  A    between atoms: O_3  and  C_10
REMARK    4  A    between atoms: O_6  and  C_17
REMARK    5  A    between atoms: N_7  and  C_9
REMARK    6  A    between atoms: N_7  and  C_14
REMARK    7  A    between atoms: N_8  and  C_13
REMARK    8  A    between atoms: C_11  and  C_13
REMARK    9  A    between atoms: C_14  and  C_15
REMARK                            x       y       z     vdW  Elec       q    Type
REMARK                         _______ _______ _______ _____ _____    ______ ____
ROOT
ATOM      2  O   UNL     1      -0.421   3.375  25.681  0.00  0.00    -0.371 OA
ATOM      9  C   UNL     1       0.156   1.673  24.128  0.00  0.00    +0.111 C 
ATOM     10  C   UNL     1      -1.326   1.974  24.005  0.00  0.00    +0.164 C 
ATOM     11  C   UNL     1      -1.397   3.361  24.626  0.00  0.00    +0.164 C 
ATOM     12  C   UNL     1       0.470   2.261  25.494  0.00  0.00    +0.181 C 
ENDROOT
BRANCH  10   3
ATOM      3  O   UNL     1      -1.774   1.973  22.663  0.00  0.00    -0.388 OA
ATOM     28  H   UNL     1      -2.747   1.954  22.666  0.00  0.00    +0.210 HD
ENDBRANCH  10   3
BRANCH   9   7
ATOM      7  N   UNL     1       0.474   0.258  24.034  0.00  0.00    -0.305 NA
ATOM     27  H   UNL     1      -0.394  -0.279  24.026  0.00  0.00    +0.123 HD
BRANCH   7  14
ATOM     14  C   UNL     1       1.219  -0.033  22.815  0.00  0.00    +0.120 C 
BRANCH  14  15
ATOM     15  C   UNL     1       2.706  -0.027  23.051  0.00  0.00    +0.008 A 
ATOM     17  C   UNL     1       3.325  -1.078  23.729  0.00  0.00    +0.121 A 
ATOM     18  C   UNL     1       3.466   1.045  22.584  0.00  0.00    +0.008 A 
ATOM     21  C   UNL     1       4.703  -1.056  23.940  0.00  0.00    +0.046 A 
ATOM     22  C   UNL     1       4.845   1.067  22.795  0.00  0.00    +0.001 A 
ATOM     23  C   UNL     1       5.463   0.017  23.473  0.00  0.00    +0.004 A 
BRANCH  17   6
ATOM      6  O   UNL     1       2.598  -2.133  24.193  0.00  0.00    -0.506 OA
ATOM     30  H   UNL     1       2.364  -2.710  23.446  0.00  0.00    +0.292 HD
ENDBRANCH  17   6
ENDBRANCH  14  15
ENDBRANCH   7  14
ENDBRANCH   9   7
BRANCH  11  13
ATOM     13  C   UNL     1      -2.766   3.699  25.189  0.00  0.00    +0.140 C 
BRANCH  13   8
ATOM      8  N   UNL     1      -3.381   2.484  25.759  0.00  0.00    -0.187 NA
ATOM     29  H   UNL     1      -2.766   1.905  26.344  0.00  0.00    +0.148 HD
BRANCH   8   1
ATOM      1  S   UNL     1      -4.683   1.733  24.960  0.00  0.00    +0.058 S 
ATOM      4  O   UNL     1      -4.762   2.230  23.599  0.00  0.00    -0.153 OA
ATOM      5  O   UNL     1      -5.850   1.772  25.820  0.00  0.00    -0.153 OA
BRANCH   1  16
ATOM     16  C   UNL     1      -4.145   0.050  24.896  0.00  0.00    +0.105 A 
ATOM     19  C   UNL     1      -3.240  -0.429  25.842  0.00  0.00    +0.028 A 
ATOM     20  C   UNL     1      -4.624  -0.797  23.895  0.00  0.00    +0.028 A 
ATOM     24  C   UNL     1      -2.813  -1.756  25.788  0.00  0.00    +0.002 A 
ATOM     25  C   UNL     1      -4.197  -2.123  23.841  0.00  0.00    +0.002 A 
ATOM     26  C   UNL     1      -3.292  -2.603  24.789  0.00  0.00    +0.000 A 
ENDBRANCH   1  16
ENDBRANCH   8   1
ENDBRANCH  13   8
ENDBRANCH  11  13
TORSDOF 9
ENDMDL
MODEL 3
REMARK VINA RESULT:      -5.0      1.641      3.692
REMARK  Name = 75536686
REMARK  9 active torsions:
REMARK  status: ('A' for Active; 'I' for Inactive)
REMARK    1  A    between atoms: S_1  and  N_8
REMARK    2  A    between atoms: S_1  and  C_16
REMARK    3  A    between atoms: O_3  and  C_10
REMARK    4  A    between atoms: O_6  and  C_17
REMARK    5  A    between atoms: N_7  and  C_9
REMARK    6  A    between atoms: N_7  and  C_14
REMARK    7  A    between atoms: N_8  and  C_13
REMARK    8  A    between atoms: C_11  and  C_13
REMARK    9  A    between atoms: C_14  and  C_15
REMARK                            x       y       z     vdW  Elec       q    Type
REMARK                         _______ _______ _______ _____ _____    ______ ____
ROOT
ATOM      2  O   UNL     1      -1.871  -2.257  24.053  0.00  0.00    -0.371 OA
ATOM      9  C   UNL     1      -0.020  -0.812  24.411  0.00  0.00    +0.111 C 
ATOM     10  C   UNL     1      -1.201  -0.313  25.222  0.00  0.00    +0.164 C 
ATOM     11  C   UNL     1      -2.054  -1.571  25.303  0.00  0.00    +0.164 C 
ATOM     12  C   UNL     1      -0.708  -1.716  23.401  0.00  0.00    +0.181 C 
ENDROOT
BRANCH  10   3
ATOM      3  O   UNL     1      -0.825   0.153  26.504  0.00  0.00    -0.388 OA
ATOM     28  H   UNL     1      -1.485  -0.156  27.147  0.00  0.00    +0.210 HD
ENDBRANCH  10   3
BRANCH   9   7
ATOM      7  N   UNL     1       0.751   0.251  23.786  0.00  0.00    -0.305 NA
ATOM     27  H   UNL     1       1.339   0.694  24.492  0.00  0.00    +0.123 HD
BRANCH   7  14
ATOM     14  C   UNL     1       1.603  -0.272  22.725  0.00  0.00    +0.120 C 
BRANCH  14  15
ATOM     15  C   UNL     1       3.049  -0.322  23.141  0.00  0.00    +0.008 A 
ATOM     17  C   UNL     1       3.843   0.824  23.100  0.00  0.00    +0.121 A 
ATOM     18  C   UNL     1       3.593  -1.533  23.570  0.00  0.00    +0.008 A 
ATOM     21  C   UNL     1       5.181   0.760  23.488  0.00  0.00    +0.046 A 
ATOM     22  C   UNL     1       4.932  -1.597  23.957  0.00  0.00    +0.001 A 
ATOM     23  C   UNL     1       5.725  -0.451  23.916  0.00  0.00    +0.004 A 
BRANCH  17   6
ATOM      6  O   UNL     1       3.328   2.014  22.683  0.00  0.00    -0.506 OA
ATOM     30  H   UNL     1       2.628   1.846  22.029  0.00  0.00    +0.292 HD
ENDBRANCH  17   6
ENDBRANCH  14  15
ENDBRANCH   7  14
ENDBRANCH   9   7
BRANCH  11  13
ATOM     13  C   UNL     1      -3.529  -1.284  25.519  0.00  0.00    +0.140 C 
BRANCH  13   8
ATOM      8  N   UNL     1      -3.721   0.156  25.779  0.00  0.00    -0.187 NA
ATOM     29  H   UNL     1      -3.999   0.403  26.737  0.00  0.00    +0.148 HD
BRANCH   8   1
ATOM      1  S   UNL     1      -4.169   1.199  24.511  0.00  0.00    +0.058 S 
ATOM      4  O   UNL     1      -5.542   1.627  24.703  0.00  0.00    -0.153 OA
ATOM      5  O   UNL     1      -3.759   0.611  23.250  0.00  0.00    -0.153 OA
BRANCH   1  16
ATOM     16  C   UNL     1      -3.118   2.590  24.798  0.00  0.00    +0.105 A 
ATOM     19  C   UNL     1      -1.884   2.676  24.155  0.00  0.00    +0.028 A 
ATOM     20  C   UNL     1      -3.522   3.601  25.671  0.00  0.00    +0.028 A 
ATOM     24  C   UNL     1      -1.052   3.773  24.385  0.00  0.00    +0.002 A 
ATOM     25  C   UNL     1      -2.692   4.698  25.901  0.00  0.00    +0.002 A 
ATOM     26  C   UNL     1      -1.457   4.784  25.257  0.00  0.00    +0.000 A 
ENDBRANCH   1  16
ENDBRANCH   8   1
ENDBRANCH  13   8
ENDBRANCH  11  13
TORSDOF 9
ENDMDL
MODEL 4
REMARK VINA RESULT:      -4.8      2.073      6.741
REMARK  Name = 75536686
REMARK  9 active torsions:
REMARK  status: ('A' for Active; 'I' for Inactive)
REMARK    1  A    between atoms: S_1  and  N_8
REMARK    2  A    between atoms: S_1  and  C_16
REMARK    3  A    between atoms: O_3  and  C_10
REMARK    4  A    between atoms: O_6  and  C_17
REMARK    5  A    between atoms: N_7  and  C_9
REMARK    6  A    between atoms: N_7  and  C_14
REMARK    7  A    between atoms: N_8  and  C_13
REMARK    8  A    between atoms: C_11  and  C_13
REMARK    9  A    between atoms: C_14  and  C_15
REMARK                            x       y       z     vdW  Elec       q    Type
REMARK                         _______ _______ _______ _____ _____    ______ ____
ROOT
ATOM      2  O   UNL     1      -1.440   1.979  22.718  0.00  0.00    -0.371 OA
ATOM      9  C   UNL     1      -3.386   2.417  24.008  0.00  0.00    +0.111 C 
ATOM     10  C   UNL     1      -2.177   2.408  24.925  0.00  0.00    +0.164 C 
ATOM     11  C   UNL     1      -1.052   2.651  23.929  0.00  0.00    +0.164 C 
ATOM     12  C   UNL     1      -2.847   1.685  22.791  0.00  0.00    +0.181 C 
ENDROOT
BRANCH  10   3
ATOM      3  O   UNL     1      -2.233   3.419  25.913  0.00  0.00    -0.388 OA
ATOM     28  H   UNL     1      -3.134   3.784  25.926  0.00  0.00    +0.210 HD
ENDBRANCH  10   3
BRANCH   9   7
ATOM      7  N   UNL     1      -4.558   1.776  24.582  0.00  0.00    -0.305 NA
ATOM     27  H   UNL     1      -5.059   1.278  23.845  0.00  0.00    +0.123 HD
BRANCH   7  14
ATOM     14  C   UNL     1      -4.180   0.824  25.620  0.00  0.00    +0.120 C 
BRANCH  14  15
ATOM     15  C   UNL     1      -3.814  -0.519  25.044  0.00  0.00    +0.008 A 
ATOM     17  C   UNL     1      -2.600  -1.125  25.364  0.00  0.00    +0.121 A 
ATOM     18  C   UNL     1      -4.705  -1.155  24.180  0.00  0.00    +0.008 A 
ATOM     21  C   UNL     1      -2.276  -2.368  24.821  0.00  0.00    +0.046 A 
ATOM     22  C   UNL     1      -4.381  -2.398  23.636  0.00  0.00    +0.001 A 
ATOM     23  C   UNL     1      -3.167  -3.004  23.957  0.00  0.00    +0.004 A 
BRANCH  17   6
ATOM      6  O   UNL     1      -1.717  -0.517  26.206  0.00  0.00    -0.506 OA
ATOM     30  H   UNL     1      -1.737  -0.968  27.067  0.00  0.00    +0.292 HD
ENDBRANCH  17   6
ENDBRANCH  14  15
ENDBRANCH   7  14
ENDBRANCH   9   7
BRANCH  11  13
ATOM     13  C   UNL     1       0.292   2.124  24.399  0.00  0.00    +0.140 C 
BRANCH  13   8
ATOM      8  N   UNL     1       1.086   1.681  23.236  0.00  0.00    -0.187 NA
ATOM     29  H   UNL     1       1.096   2.321  22.433  0.00  0.00    +0.148 HD
BRANCH   8   1
ATOM      1  S   UNL     1       1.328   0.021  22.952  0.00  0.00    +0.058 S 
ATOM      4  O   UNL     1       1.092  -0.266  21.549  0.00  0.00    -0.153 OA
ATOM      5  O   UNL     1       0.638  -0.739  23.977  0.00  0.00    -0.153 OA
BRANCH   1  16
ATOM     16  C   UNL     1       3.060  -0.151  23.260  0.00  0.00    +0.105 A 
ATOM     19  C   UNL     1       3.573  -1.371  23.698  0.00  0.00    +0.028 A 
ATOM     20  C   UNL     1       3.913   0.937  23.069  0.00  0.00    +0.028 A 
ATOM     24  C   UNL     1       4.939  -1.505  23.945  0.00  0.00    +0.002 A 
ATOM     25  C   UNL     1       5.279   0.803  23.316  0.00  0.00    +0.002 A 
ATOM     26  C   UNL     1       5.792  -0.418  23.753  0.00  0.00    +0.000 A 
ENDBRANCH   1  16
ENDBRANCH   8   1
ENDBRANCH  13   8
ENDBRANCH  11  13
TORSDOF 9
ENDMDL
MODEL 5
REMARK VINA RESULT:      -4.8      3.004      6.834
REMARK  Name = 75536686
REMARK  9 active torsions:
REMARK  status: ('A' for Active; 'I' for Inactive)
REMARK    1  A    between atoms: S_1  and  N_8
REMARK    2  A    between atoms: S_1  and  C_16
REMARK    3  A    between atoms: O_3  and  C_10
REMARK    4  A    between atoms: O_6  and  C_17
REMARK    5  A    between atoms: N_7  and  C_9
REMARK    6  A    between atoms: N_7  and  C_14
REMARK    7  A    between atoms: N_8  and  C_13
REMARK    8  A    between atoms: C_11  and  C_13
REMARK    9  A    between atoms: C_14  and  C_15
REMARK                            x       y       z     vdW  Elec       q    Type
REMARK                         _______ _______ _______ _____ _____    ______ ____
ROOT
ATOM      2  O   UNL     1      -1.539  -1.061  26.461  0.00  0.00    -0.371 OA
ATOM      9  C   UNL     1      -3.473  -1.741  25.263  0.00  0.00    +0.111 C 
ATOM     10  C   UNL     1      -2.259  -1.887  24.366  0.00  0.00    +0.164 C 
ATOM     11  C   UNL     1      -1.138  -1.936  25.394  0.00  0.00    +0.164 C 
ATOM     12  C   UNL     1      -2.947  -0.796  26.331  0.00  0.00    +0.181 C 
ENDROOT
BRANCH  10   3
ATOM      3  O   UNL     1      -2.302  -3.060  23.575  0.00  0.00    -0.388 OA
ATOM     28  H   UNL     1      -2.642  -3.786  24.124  0.00  0.00    +0.210 HD
ENDBRANCH  10   3
BRANCH   9   7
ATOM      7  N   UNL     1      -4.646  -1.223  24.578  0.00  0.00    -0.305 NA
ATOM     27  H   UNL     1      -5.296  -0.847  25.269  0.00  0.00    +0.123 HD
BRANCH   7  14
ATOM     14  C   UNL     1      -4.284  -0.161  23.646  0.00  0.00    +0.120 C 
BRANCH  14  15
ATOM     15  C   UNL     1      -4.571   1.204  24.213  0.00  0.00    +0.008 A 
ATOM     17  C   UNL     1      -3.980   2.342  23.664  0.00  0.00    +0.121 A 
ATOM     18  C   UNL     1      -5.438   1.322  25.298  0.00  0.00    +0.008 A 
ATOM     21  C   UNL     1      -4.256   3.599  24.202  0.00  0.00    +0.046 A 
ATOM     22  C   UNL     1      -5.714   2.580  25.837  0.00  0.00    +0.001 A 
ATOM     23  C   UNL     1      -5.123   3.718  25.288  0.00  0.00    +0.004 A 
BRANCH  17   6
ATOM      6  O   UNL     1      -3.130   2.245  22.604  0.00  0.00    -0.506 OA
ATOM     30  H   UNL     1      -3.002   1.306  22.385  0.00  0.00    +0.292 HD
ENDBRANCH  17   6
ENDBRANCH  14  15
ENDBRANCH   7  14
ENDBRANCH   9   7
BRANCH  11  13
ATOM     13  C   UNL     1       0.204  -1.491  24.842  0.00  0.00    +0.140 C 
BRANCH  13   8
ATOM      8  N   UNL     1       0.400  -0.054  25.113  0.00  0.00    -0.187 NA
ATOM     29  H   UNL     1       0.087   0.273  26.035  0.00  0.00    +0.148 HD
BRANCH   8   1
ATOM      1  S   UNL     1       0.431   1.059  23.826  0.00  0.00    +0.058 S 
ATOM      4  O   UNL     1      -0.432   0.586  22.760  0.00  0.00    -0.153 OA
ATOM      5  O   UNL     1       1.809   1.416  23.544  0.00  0.00    -0.153 OA
BRANCH   1  16
ATOM     16  C   UNL     1      -0.331   2.477  24.555  0.00  0.00    +0.105 A 
ATOM     19  C   UNL     1      -1.066   2.346  25.733  0.00  0.00    +0.028 A 
ATOM     20  C   UNL     1      -0.200   3.728  23.950  0.00  0.00    +0.028 A 
ATOM     24  C   UNL     1      -1.671   3.465  26.306  0.00  0.00    +0.002 A 
ATOM     25  C   UNL     1      -0.805   4.847  24.523  0.00  0.00    +0.002 A 
ATOM     26  C   UNL     1      -1.540   4.714  25.702  0.00  0.00    +0.000 A 
ENDBRANCH   1  16
ENDBRANCH   8   1
ENDBRANCH  13   8
ENDBRANCH  11  13
TORSDOF 9
ENDMDL
MODEL 6
REMARK VINA RESULT:      -4.8      2.300      5.870
REMARK  Name = 75536686
REMARK  9 active torsions:
REMARK  status: ('A' for Active; 'I' for Inactive)
REMARK    1  A    between atoms: S_1  and  N_8
REMARK    2  A    between atoms: S_1  and  C_16
REMARK    3  A    between atoms: O_3  and  C_10
REMARK    4  A    between atoms: O_6  and  C_17
REMARK    5  A    between atoms: N_7  and  C_9
REMARK    6  A    between atoms: N_7  and  C_14
REMARK    7  A    between atoms: N_8  and  C_13
REMARK    8  A    between atoms: C_11  and  C_13
REMARK    9  A    between atoms: C_14  and  C_15
REMARK                            x       y       z     vdW  Elec       q    Type
REMARK                         _______ _______ _______ _____ _____    ______ ____
ROOT
ATOM      2  O   UNL     1      -2.591   3.229  23.390  0.00  0.00    -0.371 OA
ATOM      9  C   UNL     1      -4.640   2.400  24.259  0.00  0.00    +0.111 C 
ATOM     10  C   UNL     1      -3.951   3.232  25.324  0.00  0.00    +0.164 C 
ATOM     11  C   UNL     1      -3.008   4.072  24.477  0.00  0.00    +0.164 C 
ATOM     12  C   UNL     1      -3.486   2.106  23.314  0.00  0.00    +0.181 C 
ENDROOT
BRANCH  10   3
ATOM      3  O   UNL     1      -4.855   4.033  26.061  0.00  0.00    -0.388 OA
ATOM     28  H   UNL     1      -4.947   3.652  26.951  0.00  0.00    +0.210 HD
ENDBRANCH  10   3
BRANCH   9   7
ATOM      7  N   UNL     1      -5.271   1.196  24.774  0.00  0.00    -0.305 NA
ATOM     27  H   UNL     1      -5.503   0.582  23.993  0.00  0.00    +0.123 HD
BRANCH   7  14
ATOM     14  C   UNL     1      -4.380   0.485  25.684  0.00  0.00    +0.120 C 
BRANCH  14  15
ATOM     15  C   UNL     1      -3.883  -0.805  25.087  0.00  0.00    +0.008 A 
ATOM     17  C   UNL     1      -2.712  -1.402  25.553  0.00  0.00    +0.121 A 
ATOM     18  C   UNL     1      -4.609  -1.403  24.058  0.00  0.00    +0.008 A 
ATOM     21  C   UNL     1      -2.265  -2.596  24.988  0.00  0.00    +0.046 A 
ATOM     22  C   UNL     1      -4.163  -2.599  23.493  0.00  0.00    +0.001 A 
ATOM     23  C   UNL     1      -2.991  -3.195  23.958  0.00  0.00    +0.004 A 
BRANCH  17   6
ATOM      6  O   UNL     1      -1.990  -0.831  26.557  0.00  0.00    -0.506 OA
ATOM     30  H   UNL     1      -2.550  -0.757  27.349  0.00  0.00    +0.292 HD
ENDBRANCH  17   6
ENDBRANCH  14  15
ENDBRANCH   7  14
ENDBRANCH   9   7
BRANCH  11  13
ATOM     13  C   UNL     1      -1.791   4.565  25.240  0.00  0.00    +0.140 C 
BRANCH  13   8
ATOM      8  N   UNL     1      -0.599   3.803  24.818  0.00  0.00    -0.187 NA
ATOM     29  H   UNL     1      -0.353   3.875  23.824  0.00  0.00    +0.148 HD
BRANCH   8   1
ATOM      1  S   UNL     1      -0.140   2.402  25.668  0.00  0.00    +0.058 S 
ATOM      4  O   UNL     1      -1.322   1.756  26.206  0.00  0.00    -0.153 OA
ATOM      5  O   UNL     1       0.975   2.723  26.539  0.00  0.00    -0.153 OA
BRANCH   1  16
ATOM     16  C   UNL     1       0.495   1.383  24.371  0.00  0.00    +0.105 A 
ATOM     19  C   UNL     1      -0.285   0.353  23.848  0.00  0.00    +0.028 A 
ATOM     20  C   UNL     1       1.779   1.608  23.873  0.00  0.00    +0.028 A 
ATOM     24  C   UNL     1       0.218  -0.454  22.827  0.00  0.00    +0.002 A 
ATOM     25  C   UNL     1       2.282   0.802  22.852  0.00  0.00    +0.002 A 
ATOM     26  C   UNL     1       1.500  -0.229  22.328  0.00  0.00    +0.000 A 
ENDBRANCH   1  16
ENDBRANCH   8   1
ENDBRANCH  13   8
ENDBRANCH  11  13
TORSDOF 9
ENDMDL
MODEL 7
REMARK VINA RESULT:      -4.7      2.980      6.110
REMARK  Name = 75536686
REMARK  9 active torsions:
REMARK  status: ('A' for Active; 'I' for Inactive)
REMARK    1  A    between atoms: S_1  and  N_8
REMARK    2  A    between atoms: S_1  and  C_16
REMARK    3  A    between atoms: O_3  and  C_10
REMARK    4  A    between atoms: O_6  and  C_17
REMARK    5  A    between atoms: N_7  and  C_9
REMARK    6  A    between atoms: N_7  and  C_14
REMARK    7  A    between atoms: N_8  and  C_13
REMARK    8  A    between atoms: C_11  and  C_13
REMARK    9  A    between atoms: C_14  and  C_15
REMARK                            x       y       z     vdW  Elec       q    Type
REMARK                         _______ _______ _______ _____ _____    ______ ____
ROOT
ATOM      2  O   UNL     1      -0.402   4.655  24.192  0.00  0.00    -0.371 OA
ATOM      9  C   UNL     1      -1.861   4.429  26.053  0.00  0.00    +0.111 C 
ATOM     10  C   UNL     1      -1.139   3.114  25.827  0.00  0.00    +0.164 C 
ATOM     11  C   UNL     1       0.064   3.574  25.017  0.00  0.00    +0.164 C 
ATOM     12  C   UNL     1      -1.663   5.115  24.711  0.00  0.00    +0.181 C 
ENDROOT
BRANCH  10   3
ATOM      3  O   UNL     1      -0.753   2.488  27.036  0.00  0.00    -0.388 OA
ATOM     28  H   UNL     1      -1.395   2.732  27.724  0.00  0.00    +0.210 HD
ENDBRANCH  10   3
BRANCH   9   7
ATOM      7  N   UNL     1      -3.263   4.272  26.406  0.00  0.00    -0.305 NA
ATOM     27  H   UNL     1      -3.561   5.082  26.951  0.00  0.00    +0.123 HD
BRANCH   7  14
ATOM     14  C   UNL     1      -4.097   4.173  25.214  0.00  0.00    +0.120 C 
BRANCH  14  15
ATOM     15  C   UNL     1      -4.368   2.740  24.838  0.00  0.00    +0.008 A 
ATOM     17  C   UNL     1      -5.371   2.012  25.479  0.00  0.00    +0.121 A 
ATOM     18  C   UNL     1      -3.604   2.143  23.836  0.00  0.00    +0.008 A 
ATOM     21  C   UNL     1      -5.608   0.686  25.118  0.00  0.00    +0.046 A 
ATOM     22  C   UNL     1      -3.840   0.816  23.476  0.00  0.00    +0.001 A 
ATOM     23  C   UNL     1      -4.843   0.088  24.116  0.00  0.00    +0.004 A 
BRANCH  17   6
ATOM      6  O   UNL     1      -6.127   2.580  26.459  0.00  0.00    -0.506 OA
ATOM     30  H   UNL     1      -7.048   2.283  26.362  0.00  0.00    +0.292 HD
ENDBRANCH  17   6
ENDBRANCH  14  15
ENDBRANCH   7  14
ENDBRANCH   9   7
BRANCH  11  13
ATOM     13  C   UNL     1       0.655   2.482  24.144  0.00  0.00    +0.140 C 
BRANCH  13   8
ATOM      8  N   UNL     1       0.410   1.165  24.764  0.00  0.00    -0.187 NA
ATOM     29  H   UNL     1       0.777   1.045  25.716  0.00  0.00    +0.148 HD
BRANCH   8   1
ATOM      1  S   UNL     1       0.225  -0.216  23.787  0.00  0.00    +0.058 S 
ATOM      4  O   UNL     1       1.399  -1.058  23.918  0.00  0.00    -0.153 OA
ATOM      5  O   UNL     1      -0.235   0.194  22.474  0.00  0.00    -0.153 OA
BRANCH   1  16
ATOM     16  C   UNL     1      -1.127  -1.038  24.574  0.00  0.00    +0.105 A 
ATOM     19  C   UNL     1      -1.597  -0.584  25.805  0.00  0.00    +0.028 A 
ATOM     20  C   UNL     1      -1.720  -2.145  23.965  0.00  0.00    +0.028 A 
ATOM     24  C   UNL     1      -2.662  -1.236  26.429  0.00  0.00    +0.002 A 
ATOM     25  C   UNL     1      -2.784  -2.796  24.588  0.00  0.00    +0.002 A 
ATOM     26  C   UNL     1      -3.255  -2.341  25.820  0.00  0.00    +0.000 A 
ENDBRANCH   1  16
ENDBRANCH   8   1
ENDBRANCH  13   8
ENDBRANCH  11  13
TORSDOF 9
ENDMDL
MODEL 8
REMARK VINA RESULT:      -4.5      2.701      6.027
REMARK  Name = 75536686
REMARK  9 active torsions:
REMARK  status: ('A' for Active; 'I' for Inactive)
REMARK    1  A    between atoms: S_1  and  N_8
REMARK    2  A    between atoms: S_1  and  C_16
REMARK    3  A    between atoms: O_3  and  C_10
REMARK    4  A    between atoms: O_6  and  C_17
REMARK    5  A    between atoms: N_7  and  C_9
REMARK    6  A    between atoms: N_7  and  C_14
REMARK    7  A    between atoms: N_8  and  C_13
REMARK    8  A    between atoms: C_11  and  C_13
REMARK    9  A    between atoms: C_14  and  C_15
REMARK                            x       y       z     vdW  Elec       q    Type
REMARK                         _______ _______ _______ _____ _____    ______ ____
ROOT
ATOM      2  O   UNL     1       0.369   3.521  23.459  0.00  0.00    -0.371 OA
ATOM      9  C   UNL     1      -0.784   4.275  25.395  0.00  0.00    +0.111 C 
ATOM     10  C   UNL     1      -0.605   2.770  25.480  0.00  0.00    +0.164 C 
ATOM     11  C   UNL     1       0.549   2.557  24.510  0.00  0.00    +0.164 C 
ATOM     12  C   UNL     1      -0.562   4.521  23.911  0.00  0.00    +0.181 C 
ENDROOT
BRANCH  10   3
ATOM      3  O   UNL     1      -0.284   2.332  26.786  0.00  0.00    -0.388 OA
ATOM     28  H   UNL     1       0.211   3.040  27.233  0.00  0.00    +0.210 HD
ENDBRANCH  10   3
BRANCH   9   7
ATOM      7  N   UNL     1      -2.083   4.735  25.857  0.00  0.00    -0.305 NA
ATOM     27  H   UNL     1      -1.988   5.679  26.232  0.00  0.00    +0.123 HD
BRANCH   7  14
ATOM     14  C   UNL     1      -3.050   4.758  24.765  0.00  0.00    +0.120 C 
BRANCH  14  15
ATOM     15  C   UNL     1      -4.083   3.671  24.909  0.00  0.00    +0.008 A 
ATOM     17  C   UNL     1      -4.090   2.575  24.046  0.00  0.00    +0.121 A 
ATOM     18  C   UNL     1      -5.040   3.771  25.919  0.00  0.00    +0.008 A 
ATOM     21  C   UNL     1      -5.055   1.579  24.193  0.00  0.00    +0.046 A 
ATOM     22  C   UNL     1      -6.005   2.774  26.066  0.00  0.00    +0.001 A 
ATOM     23  C   UNL     1      -6.012   1.678  25.203  0.00  0.00    +0.004 A 
BRANCH  17   6
ATOM      6  O   UNL     1      -3.163   2.463  23.054  0.00  0.00    -0.506 OA
ATOM     30  H   UNL     1      -3.028   1.522  22.851  0.00  0.00    +0.292 HD
ENDBRANCH  17   6
ENDBRANCH  14  15
ENDBRANCH   7  14
ENDBRANCH   9   7
BRANCH  11  13
ATOM     13  C   UNL     1       0.588   1.158  23.921  0.00  0.00    +0.140 C 
BRANCH  13   8
ATOM      8  N   UNL     1      -0.705   0.484  24.157  0.00  0.00    -0.187 NA
ATOM     29  H   UNL     1      -1.539   1.076  24.066  0.00  0.00    +0.148 HD
BRANCH   8   1
ATOM      1  S   UNL     1      -0.783  -0.877  25.175  0.00  0.00    +0.058 S 
ATOM      4  O   UNL     1      -0.996  -0.441  26.543  0.00  0.00    -0.153 OA
ATOM      5  O   UNL     1       0.316  -1.768  24.857  0.00  0.00    -0.153 OA
BRANCH   1  16
ATOM     16  C   UNL     1      -2.264  -1.663  24.616  0.00  0.00    +0.105 A 
ATOM     19  C   UNL     1      -3.354  -0.891  24.217  0.00  0.00    +0.028 A 
ATOM     20  C   UNL     1      -2.343  -3.055  24.578  0.00  0.00    +0.028 A 
ATOM     24  C   UNL     1      -4.525  -1.511  23.780  0.00  0.00    +0.002 A 
ATOM     25  C   UNL     1      -3.513  -3.676  24.141  0.00  0.00    +0.002 A 
ATOM     26  C   UNL     1      -4.604  -2.903  23.741  0.00  0.00    +0.000 A 
ENDBRANCH   1  16
ENDBRANCH   8   1
ENDBRANCH  13   8
ENDBRANCH  11  13
TORSDOF 9
ENDMDL
MODEL 9
REMARK VINA RESULT:      -3.1      2.627      4.182
REMARK  Name = 75536686
REMARK  9 active torsions:
REMARK  status: ('A' for Active; 'I' for Inactive)
REMARK    1  A    between atoms: S_1  and  N_8
REMARK    2  A    between atoms: S_1  and  C_16
REMARK    3  A    between atoms: O_3  and  C_10
REMARK    4  A    between atoms: O_6  and  C_17
REMARK    5  A    between atoms: N_7  and  C_9
REMARK    6  A    between atoms: N_7  and  C_14
REMARK    7  A    between atoms: N_8  and  C_13
REMARK    8  A    between atoms: C_11  and  C_13
REMARK    9  A    between atoms: C_14  and  C_15
REMARK                            x       y       z     vdW  Elec       q    Type
REMARK                         _______ _______ _______ _____ _____    ______ ____
ROOT
ATOM      2  O   UNL     1      -0.766   2.951  26.419  0.00  0.00    -0.371 OA
ATOM      9  C   UNL     1       0.116   1.756  24.565  0.00  0.00    +0.111 C 
ATOM     10  C   UNL     1      -0.554   3.022  24.064  0.00  0.00    +0.164 C 
ATOM     11  C   UNL     1      -0.567   3.868  25.329  0.00  0.00    +0.164 C 
ATOM     12  C   UNL     1      -0.497   1.618  25.949  0.00  0.00    +0.181 C 
ENDROOT
BRANCH  10   3
ATOM      3  O   UNL     1       0.168   3.645  23.019  0.00  0.00    -0.388 OA
ATOM     28  H   UNL     1       1.091   3.343  23.064  0.00  0.00    +0.210 HD
ENDBRANCH  10   3
BRANCH   9   7
ATOM      7  N   UNL     1      -0.124   0.596  23.722  0.00  0.00    -0.305 NA
ATOM     27  H   UNL     1       0.459   0.665  22.887  0.00  0.00    +0.123 HD
BRANCH   7  14
ATOM     14  C   UNL     1       0.204  -0.640  24.424  0.00  0.00    +0.120 C 
BRANCH  14  15
ATOM     15  C   UNL     1      -1.022  -1.471  24.698  0.00  0.00    +0.008 A 
ATOM     17  C   UNL     1      -1.658  -1.417  25.938  0.00  0.00    +0.121 A 
ATOM     18  C   UNL     1      -1.519  -2.302  23.694  0.00  0.00    +0.008 A 
ATOM     21  C   UNL     1      -2.791  -2.194  26.174  0.00  0.00    +0.046 A 
ATOM     22  C   UNL     1      -2.652  -3.080  23.931  0.00  0.00    +0.001 A 
ATOM     23  C   UNL     1      -3.288  -3.026  25.171  0.00  0.00    +0.004 A 
BRANCH  17   6
ATOM      6  O   UNL     1      -1.185  -0.611  26.930  0.00  0.00    -0.506 OA
ATOM     30  H   UNL     1      -0.219  -0.706  26.982  0.00  0.00    +0.292 HD
ENDBRANCH  17   6
ENDBRANCH  14  15
ENDBRANCH   7  14
ENDBRANCH   9   7
BRANCH  11  13
ATOM     13  C   UNL     1      -1.661   4.920  25.338  0.00  0.00    +0.140 C 
BRANCH  13   8
ATOM      8  N   UNL     1      -2.890   4.353  25.925  0.00  0.00    -0.187 NA
ATOM     29  H   UNL     1      -2.750   3.680  26.689  0.00  0.00    +0.148 HD
BRANCH   8   1
ATOM      1  S   UNL     1      -4.306   4.233  24.988  0.00  0.00    +0.058 S 
ATOM      4  O   UNL     1      -4.120   4.954  23.743  0.00  0.00    -0.153 OA
ATOM      5  O   UNL     1      -5.453   4.513  25.830  0.00  0.00    -0.153 OA
BRANCH   1  16
ATOM     16  C   UNL     1      -4.348   2.505  24.617  0.00  0.00    +0.105 A 
ATOM     19  C   UNL     1      -5.182   1.656  25.343  0.00  0.00    +0.028 A 
ATOM     20  C   UNL     1      -3.544   1.991  23.599  0.00  0.00    +0.028 A 
ATOM     24  C   UNL     1      -5.212   0.292  25.053  0.00  0.00    +0.002 A 
ATOM     25  C   UNL     1      -3.574   0.627  23.308  0.00  0.00    +0.002 A 
ATOM     26  C   UNL     1      -4.409  -0.222  24.035  0.00  0.00    +0.000 A 
ENDBRANCH   1  16
ENDBRANCH   8   1
ENDBRANCH  13   8
ENDBRANCH  11  13
TORSDOF 9
ENDMDL
MODEL 10
REMARK VINA RESULT:      -2.6      1.920      3.802
REMARK  Name = 75536686
REMARK  9 active torsions:
REMARK  status: ('A' for Active; 'I' for Inactive)
REMARK    1  A    between atoms: S_1  and  N_8
REMARK    2  A    between atoms: S_1  and  C_16
REMARK    3  A    between atoms: O_3  and  C_10
REMARK    4  A    between atoms: O_6  and  C_17
REMARK    5  A    between atoms: N_7  and  C_9
REMARK    6  A    between atoms: N_7  and  C_14
REMARK    7  A    between atoms: N_8  and  C_13
REMARK    8  A    between atoms: C_11  and  C_13
REMARK    9  A    between atoms: C_14  and  C_15
REMARK                            x       y       z     vdW  Elec       q    Type
REMARK                         _______ _______ _______ _____ _____    ______ ____
ROOT
ATOM      2  O   UNL     1      -2.943   1.386  23.114  0.00  0.00    -0.371 OA
ATOM      9  C   UNL     1      -0.940   0.133  23.361  0.00  0.00    +0.111 C 
ATOM     10  C   UNL     1      -1.870  -0.188  24.516  0.00  0.00    +0.164 C 
ATOM     11  C   UNL     1      -3.212   0.241  23.940  0.00  0.00    +0.164 C 
ATOM     12  C   UNL     1      -1.529   1.440  22.855  0.00  0.00    +0.181 C 
ENDROOT
BRANCH  10   3
ATOM      3  O   UNL     1      -1.858  -1.560  24.862  0.00  0.00    -0.388 OA
ATOM     28  H   UNL     1      -0.933  -1.838  24.976  0.00  0.00    +0.210 HD
ENDBRANCH  10   3
BRANCH   9   7
ATOM      7  N   UNL     1       0.455   0.255  23.752  0.00  0.00    -0.305 NA
ATOM     27  H   UNL     1       0.577  -0.146  24.682  0.00  0.00    +0.123 HD
BRANCH   7  14
ATOM     14  C   UNL     1       1.325  -0.450  22.818  0.00  0.00    +0.120 C 
BRANCH  14  15
ATOM     15  C   UNL     1       2.779  -0.140  23.064  0.00  0.00    +0.008 A 
ATOM     17  C   UNL     1       3.595  -1.045  23.742  0.00  0.00    +0.121 A 
ATOM     18  C   UNL     1       3.305   1.066  22.605  0.00  0.00    +0.008 A 
ATOM     21  C   UNL     1       4.939  -0.742  23.962  0.00  0.00    +0.046 A 
ATOM     22  C   UNL     1       4.649   1.370  22.825  0.00  0.00    +0.001 A 
ATOM     23  C   UNL     1       5.466   0.465  23.503  0.00  0.00    +0.004 A 
BRANCH  17   6
ATOM      6  O   UNL     1       3.097  -2.228  24.198  0.00  0.00    -0.506 OA
ATOM     30  H   UNL     1       3.702  -2.591  24.867  0.00  0.00    +0.292 HD
ENDBRANCH  17   6
ENDBRANCH  14  15
ENDBRANCH   7  14
ENDBRANCH   9   7
BRANCH  11  13
ATOM     13  C   UNL     1      -4.234   0.604  25.003  0.00  0.00    +0.140 C 
BRANCH  13   8
ATOM      8  N   UNL     1      -4.928   1.849  24.619  0.00  0.00    -0.187 NA
ATOM     29  H   UNL     1      -5.076   1.984  23.612  0.00  0.00    +0.148 HD
BRANCH   8   1
ATOM      1  S   UNL     1      -4.823   3.224  25.615  0.00  0.00    +0.058 S 
ATOM      4  O   UNL     1      -5.108   2.847  26.987  0.00  0.00    -0.153 OA
ATOM      5  O   UNL     1      -5.551   4.314  24.993  0.00  0.00    -0.153 OA
BRANCH   1  16
ATOM     16  C   UNL     1      -3.104   3.622  25.504  0.00  0.00    +0.105 A 
ATOM     19  C   UNL     1      -2.159   2.804  26.121  0.00  0.00    +0.028 A 
ATOM     20  C   UNL     1      -2.695   4.756  24.802  0.00  0.00    +0.028 A 
ATOM     24  C   UNL     1      -0.802   3.120  26.038  0.00  0.00    +0.002 A 
ATOM     25  C   UNL     1      -1.339   5.072  24.718  0.00  0.00    +0.002 A 
ATOM     26  C   UNL     1      -0.393   4.253  25.335  0.00  0.00    +0.000 A 
ENDBRANCH   1  16
ENDBRANCH   8   1
ENDBRANCH  13   8
ENDBRANCH  11  13
TORSDOF 9
ENDMDL
