MODEL 1
REMARK VINA RESULT:       7.4      0.000      0.000
REMARK  Name = 45361317
REMARK  7 active torsions:
REMARK  status: ('A' for Active; 'I' for Inactive)
REMARK    1  A    between atoms: O_3  and  C_9
REMARK    2  A    between atoms: C_7  and  C_15
REMARK    3  A    between atoms: C_10  and  C_16
REMARK    4  A    between atoms: C_12  and  C_19
REMARK    5  A    between atoms: C_16  and  C_20
REMARK    6  A    between atoms: C_16  and  C_21
REMARK    7  A    between atoms: C_22  and  C_27
REMARK                            x       y       z     vdW  Elec       q    Type
REMARK                         _______ _______ _______ _____ _____    ______ ____
ROOT
ATOM      1  S   UNL     1       1.419  -1.950  24.136  0.00  0.00    -0.072 S 
ATOM      5  N   UNL     1       1.360   0.584  23.621  0.00  0.00    -0.243 NA
ATOM      7  C   UNL     1      -2.395  -0.750  25.100  0.00  0.00    -0.022 C 
ATOM      8  C   UNL     1      -2.461   0.436  24.058  0.00  0.00    +0.033 C 
ATOM      9  C   UNL     1      -3.651   1.392  24.362  0.00  0.00    +0.123 C 
ATOM     10  C   UNL     1      -4.994   0.644  24.508  0.00  0.00    +0.029 C 
ATOM     11  C   UNL     1      -3.769  -1.457  25.170  0.00  0.00    +0.008 C 
ATOM     12  C   UNL     1      -1.072   1.184  23.924  0.00  0.00    +0.042 C 
ATOM     13  C   UNL     1      -4.914  -0.511  25.505  0.00  0.00    +0.007 C 
ATOM     14  C   UNL     1      -1.348  -1.807  24.630  0.00  0.00    +0.051 C 
ATOM     15  C   UNL     1      -2.010  -0.257  26.518  0.00  0.00    +0.012 C 
ATOM     17  C   UNL     1       0.066   0.190  23.911  0.00  0.00    +0.055 A 
ATOM     18  C   UNL     1      -0.077  -1.143  24.239  0.00  0.00    +0.014 A 
ATOM     19  C   UNL     1      -0.988   2.090  22.687  0.00  0.00    +0.014 C 
ATOM     22  C   UNL     1       2.155  -0.462  23.698  0.00  0.00    +0.109 A 
ENDROOT
BRANCH  22  27
ATOM      2  F   UNL     1       7.643  -0.380  22.734  0.00  0.00    -0.205 F 
ATOM     27  C   UNL     1       3.576  -0.441  23.447  0.00  0.00    +0.007 A 
ATOM     28  C   UNL     1       4.379  -1.487  23.901  0.00  0.00    +0.013 A 
ATOM     29  C   UNL     1       4.146   0.625  22.753  0.00  0.00    +0.013 A 
ATOM     30  C   UNL     1       5.754  -1.467  23.660  0.00  0.00    +0.039 A 
ATOM     31  C   UNL     1       5.520   0.646  22.511  0.00  0.00    +0.039 A 
ATOM     32  C   UNL     1       6.324  -0.400  22.965  0.00  0.00    +0.123 A 
ENDBRANCH  22  27
BRANCH   9   3
ATOM      3  O   UNL     1      -3.797   2.320  23.289  0.00  0.00    -0.391 OA
ATOM     33  H   UNL     1      -4.117   3.160  23.657  0.00  0.00    +0.210 HD
ENDBRANCH   9   3
BRANCH  10  16
ATOM     16  C   UNL     1      -6.132   1.591  24.910  0.00  0.00    +0.078 C 
ATOM     21  C   UNL     1      -6.457   2.563  23.791  0.00  0.00    +0.017 C 
BRANCH  16  20
ATOM      4  O   UNL     1      -6.257   2.116  27.230  0.00  0.00    -0.275 OA
ATOM      6  N   UNL     1      -4.721   3.287  25.965  0.00  0.00    -0.301 N 
ATOM     20  C   UNL     1      -5.716   2.346  26.147  0.00  0.00    +0.219 C 
ATOM     23  C   UNL     1      -4.213   4.104  27.057  0.00  0.00    +0.108 C 
ATOM     24  C   UNL     1      -4.039   3.605  24.713  0.00  0.00    +0.108 C 
ATOM     25  C   UNL     1      -2.946   4.738  26.503  0.00  0.00    +0.020 C 
ATOM     26  C   UNL     1      -3.260   4.876  25.018  0.00  0.00    +0.020 C 
ENDBRANCH  16  20
ENDBRANCH  10  16
TORSDOF 4
ENDMDL
