MODEL 1
REMARK VINA RESULT:      -0.7      0.000      0.000
REMARK  Name = 40777693
REMARK  10 active torsions:
REMARK  status: ('A' for Active; 'I' for Inactive)
REMARK    1  A    between atoms: O_2  and  C_9
REMARK    2  A    between atoms: O_2  and  C_18
REMARK    3  A    between atoms: N_4  and  C_17
REMARK    4  A    between atoms: N_6  and  C_19
REMARK    5  A    between atoms: C_7  and  C_10
REMARK    6  A    between atoms: C_13  and  C_15
REMARK    7  A    between atoms: C_14  and  C_16
REMARK    8  A    between atoms: C_19  and  C_24
REMARK    9  A    between atoms: C_19  and  C_26
REMARK   10  A    between atoms: C_25  and  C_29
REMARK                            x       y       z     vdW  Elec       q    Type
REMARK                         _______ _______ _______ _____ _____    ______ ____
ROOT
ATOM      7  C   UNL     1      -2.800  -0.954  24.387  0.00  0.00    +0.049 C 
ATOM      8  C   UNL     1      -4.070  -0.427  23.692  0.00  0.00    +0.061 C 
ATOM      9  C   UNL     1      -5.159  -0.406  24.769  0.00  0.00    +0.202 C 
ATOM     11  C   UNL     1      -3.092  -0.695  25.837  0.00  0.00    -0.019 C 
ATOM     12  C   UNL     1      -4.378  -0.390  26.041  0.00  0.00    +0.013 C 
ENDROOT
BRANCH   7  10
ATOM      4  N   UNL     1       0.550   0.172  23.423  0.00  0.00    -0.236 N 
ATOM      5  N   UNL     1      -0.135   1.161  22.826  0.00  0.00    -0.171 NA
ATOM     10  C   UNL     1      -1.531  -0.308  23.880  0.00  0.00    +0.003 A 
ATOM     13  C   UNL     1      -0.240  -0.735  24.068  0.00  0.00    +0.046 A 
ATOM     14  C   UNL     1      -1.406   0.863  23.108  0.00  0.00    +0.064 A 
ATOM     15  C   UNL     1       0.296  -1.905  24.793  0.00  0.00    +0.066 C 
ATOM     16  C   UNL     1      -2.483   1.738  22.611  0.00  0.00    +0.068 C 
BRANCH   4  17
ATOM      1 CL   UNL     1       4.862  -2.507  23.956  0.00  0.00    -0.083 Cl
ATOM     17  C   UNL     1       1.944   0.148  23.343  0.00  0.00    +0.067 A 
ATOM     20  C   UNL     1       2.640  -1.021  23.648  0.00  0.00    +0.048 A 
ATOM     21  C   UNL     1       2.638   1.295  22.959  0.00  0.00    +0.028 A 
ATOM     22  C   UNL     1       4.033  -1.043  23.570  0.00  0.00    +0.046 A 
ATOM     23  C   UNL     1       4.031   1.272  22.880  0.00  0.00    +0.007 A 
ATOM     25  C   UNL     1       4.728   0.103  23.186  0.00  0.00    -0.032 A 
ATOM     29  C   UNL     1       6.220   0.120  23.089  0.00  0.00    +0.045 C 
ENDBRANCH   4  17
ENDBRANCH   7  10
BRANCH   9   2
ATOM      2  O   UNL     1      -5.949   0.764  24.638  0.00  0.00    -0.443 OA
BRANCH   2  18
ATOM      3  O   UNL     1      -6.300   2.002  26.540  0.00  0.00    -0.226 OA
ATOM      6  N   UNL     1      -4.596   2.521  25.054  0.00  0.00    -0.275 N 
ATOM     18  C   UNL     1      -5.671   1.787  25.510  0.00  0.00    +0.401 C 
ATOM     33  H   UNL     1      -4.139   2.208  24.201  0.00  0.00    +0.153 HD
BRANCH   6  19
ATOM     19  C   UNL     1      -4.055   3.667  25.748  0.00  0.00    +0.103 C 
ATOM     26  C   UNL     1      -4.763   4.940  25.289  0.00  0.00    +0.033 C 
BRANCH  19  24
ATOM     24  C   UNL     1      -2.552   3.750  25.595  0.00  0.00    -0.027 A 
ATOM     27  C   UNL     1      -1.974   4.855  24.970  0.00  0.00    +0.005 A 
ATOM     28  C   UNL     1      -1.744   2.721  26.079  0.00  0.00    +0.005 A 
ATOM     30  C   UNL     1      -0.589   4.932  24.830  0.00  0.00    +0.000 A 
ATOM     31  C   UNL     1      -0.358   2.797  25.938  0.00  0.00    +0.000 A 
ATOM     32  C   UNL     1       0.219   3.902  25.313  0.00  0.00    +0.000 A 
ENDBRANCH  19  24
ENDBRANCH   6  19
ENDBRANCH   2  18
ENDBRANCH   9   2
TORSDOF 6
ENDMDL
MODEL 2
REMARK VINA RESULT:       1.5      1.411      3.822
REMARK  Name = 40777693
REMARK  10 active torsions:
REMARK  status: ('A' for Active; 'I' for Inactive)
REMARK    1  A    between atoms: O_2  and  C_9
REMARK    2  A    between atoms: O_2  and  C_18
REMARK    3  A    between atoms: N_4  and  C_17
REMARK    4  A    between atoms: N_6  and  C_19
REMARK    5  A    between atoms: C_7  and  C_10
REMARK    6  A    between atoms: C_13  and  C_15
REMARK    7  A    between atoms: C_14  and  C_16
REMARK    8  A    between atoms: C_19  and  C_24
REMARK    9  A    between atoms: C_19  and  C_26
REMARK   10  A    between atoms: C_25  and  C_29
REMARK                            x       y       z     vdW  Elec       q    Type
REMARK                         _______ _______ _______ _____ _____    ______ ____
ROOT
ATOM      7  C   UNL     1      -2.486   3.747  24.991  0.00  0.00    +0.049 C 
ATOM      8  C   UNL     1      -3.309   3.076  26.109  0.00  0.00    +0.061 C 
ATOM      9  C   UNL     1      -4.654   3.809  26.135  0.00  0.00    +0.202 C 
ATOM     11  C   UNL     1      -3.547   4.403  24.156  0.00  0.00    -0.019 C 
ATOM     12  C   UNL     1      -4.729   4.429  24.780  0.00  0.00    +0.013 C 
ENDROOT
BRANCH   7  10
ATOM      4  N   UNL     1       0.004   1.437  23.620  0.00  0.00    -0.236 N 
ATOM      5  N   UNL     1      -0.855   1.385  22.589  0.00  0.00    -0.171 NA
ATOM     10  C   UNL     1      -1.605   2.779  24.236  0.00  0.00    +0.003 A 
ATOM     13  C   UNL     1      -0.399   2.258  24.633  0.00  0.00    +0.046 A 
ATOM     14  C   UNL     1      -1.837   2.206  22.971  0.00  0.00    +0.064 A 
ATOM     15  C   UNL     1       0.387   2.468  25.866  0.00  0.00    +0.066 C 
ATOM     16  C   UNL     1      -2.993   2.416  22.081  0.00  0.00    +0.068 C 
BRANCH   4  17
ATOM      1 CL   UNL     1       5.069   1.384  22.990  0.00  0.00    -0.083 Cl
ATOM     17  C   UNL     1       1.182   0.688  23.578  0.00  0.00    +0.067 A 
ATOM     20  C   UNL     1       2.402   1.319  23.337  0.00  0.00    +0.048 A 
ATOM     21  C   UNL     1       1.136  -0.691  23.777  0.00  0.00    +0.028 A 
ATOM     22  C   UNL     1       3.578   0.570  23.293  0.00  0.00    +0.046 A 
ATOM     23  C   UNL     1       2.312  -1.441  23.734  0.00  0.00    +0.007 A 
ATOM     25  C   UNL     1       3.533  -0.810  23.492  0.00  0.00    -0.032 A 
ATOM     29  C   UNL     1       4.770  -1.648  23.454  0.00  0.00    +0.045 C 
ENDBRANCH   4  17
ENDBRANCH   7  10
BRANCH   9   2
ATOM      2  O   UNL     1      -5.708   2.882  26.333  0.00  0.00    -0.443 OA
BRANCH   2  18
ATOM      3  O   UNL     1      -6.861   1.758  24.697  0.00  0.00    -0.226 OA
ATOM      6  N   UNL     1      -4.707   1.143  25.302  0.00  0.00    -0.275 N 
ATOM     18  C   UNL     1      -5.851   1.909  25.377  0.00  0.00    +0.401 C 
ATOM     33  H   UNL     1      -3.926   1.404  25.897  0.00  0.00    +0.153 HD
BRANCH   6  19
ATOM     19  C   UNL     1      -4.541   0.035  24.389  0.00  0.00    +0.103 C 
ATOM     26  C   UNL     1      -5.822  -0.795  24.334  0.00  0.00    +0.033 C 
BRANCH  19  24
ATOM     24  C   UNL     1      -3.325  -0.794  24.738  0.00  0.00    -0.027 A 
ATOM     27  C   UNL     1      -2.427  -0.343  25.705  0.00  0.00    +0.005 A 
ATOM     28  C   UNL     1      -3.102  -2.011  24.093  0.00  0.00    +0.005 A 
ATOM     30  C   UNL     1      -1.307  -1.108  26.028  0.00  0.00    +0.000 A 
ATOM     31  C   UNL     1      -1.980  -2.776  24.414  0.00  0.00    +0.000 A 
ATOM     32  C   UNL     1      -1.083  -2.324  25.381  0.00  0.00    +0.000 A 
ENDBRANCH  19  24
ENDBRANCH   6  19
ENDBRANCH   2  18
ENDBRANCH   9   2
TORSDOF 6
ENDMDL
MODEL 3
REMARK VINA RESULT:       1.5      0.925      1.521
REMARK  Name = 40777693
REMARK  10 active torsions:
REMARK  status: ('A' for Active; 'I' for Inactive)
REMARK    1  A    between atoms: O_2  and  C_9
REMARK    2  A    between atoms: O_2  and  C_18
REMARK    3  A    between atoms: N_4  and  C_17
REMARK    4  A    between atoms: N_6  and  C_19
REMARK    5  A    between atoms: C_7  and  C_10
REMARK    6  A    between atoms: C_13  and  C_15
REMARK    7  A    between atoms: C_14  and  C_16
REMARK    8  A    between atoms: C_19  and  C_24
REMARK    9  A    between atoms: C_19  and  C_26
REMARK   10  A    between atoms: C_25  and  C_29
REMARK                            x       y       z     vdW  Elec       q    Type
REMARK                         _______ _______ _______ _____ _____    ______ ____
ROOT
ATOM      7  C   UNL     1      -2.900  -1.100  24.489  0.00  0.00    +0.049 C 
ATOM      8  C   UNL     1      -4.155  -0.570  23.768  0.00  0.00    +0.061 C 
ATOM      9  C   UNL     1      -5.248  -0.487  24.837  0.00  0.00    +0.202 C 
ATOM     11  C   UNL     1      -3.195  -0.785  25.927  0.00  0.00    -0.019 C 
ATOM     12  C   UNL     1      -4.474  -0.444  26.112  0.00  0.00    +0.013 C 
ENDROOT
BRANCH   7  10
ATOM      4  N   UNL     1       0.480  -0.081  23.511  0.00  0.00    -0.236 N 
ATOM      5  N   UNL     1      -0.180   0.895  22.866  0.00  0.00    -0.171 NA
ATOM     10  C   UNL     1      -1.614  -0.501  23.968  0.00  0.00    +0.003 A 
ATOM     13  C   UNL     1      -0.333  -0.944  24.186  0.00  0.00    +0.046 A 
ATOM     14  C   UNL     1      -1.459   0.633  23.149  0.00  0.00    +0.064 A 
ATOM     15  C   UNL     1       0.173  -2.093  24.965  0.00  0.00    +0.066 C 
ATOM     16  C   UNL     1      -2.515   1.507  22.605  0.00  0.00    +0.068 C 
BRANCH   4  17
ATOM      1 CL   UNL     1       4.848   2.319  22.412  0.00  0.00    -0.083 Cl
ATOM     17  C   UNL     1       1.873  -0.135  23.446  0.00  0.00    +0.067 A 
ATOM     20  C   UNL     1       2.595   0.978  23.017  0.00  0.00    +0.048 A 
ATOM     21  C   UNL     1       2.542  -1.304  23.807  0.00  0.00    +0.028 A 
ATOM     22  C   UNL     1       3.987   0.922  22.948  0.00  0.00    +0.046 A 
ATOM     23  C   UNL     1       3.934  -1.359  23.741  0.00  0.00    +0.007 A 
ATOM     25  C   UNL     1       4.657  -0.246  23.311  0.00  0.00    -0.032 A 
ATOM     29  C   UNL     1       6.147  -0.346  23.253  0.00  0.00    +0.045 C 
ENDBRANCH   4  17
ENDBRANCH   7  10
BRANCH   9   2
ATOM      2  O   UNL     1      -6.011   0.694  24.661  0.00  0.00    -0.443 OA
BRANCH   2  18
ATOM      3  O   UNL     1      -6.338   1.939  26.562  0.00  0.00    -0.226 OA
ATOM      6  N   UNL     1      -4.692   2.488  25.022  0.00  0.00    -0.275 N 
ATOM     18  C   UNL     1      -5.734   1.731  25.515  0.00  0.00    +0.401 C 
ATOM     33  H   UNL     1      -4.252   2.179  24.160  0.00  0.00    +0.153 HD
BRANCH   6  19
ATOM     19  C   UNL     1      -4.160   3.653  25.691  0.00  0.00    +0.103 C 
ATOM     26  C   UNL     1      -4.861   4.913  25.187  0.00  0.00    +0.033 C 
BRANCH  19  24
ATOM     24  C   UNL     1      -2.654   3.732  25.557  0.00  0.00    -0.027 A 
ATOM     27  C   UNL     1      -1.858   2.681  26.011  0.00  0.00    +0.005 A 
ATOM     28  C   UNL     1      -2.063   4.855  24.979  0.00  0.00    +0.005 A 
ATOM     30  C   UNL     1      -0.471   2.752  25.887  0.00  0.00    +0.000 A 
ATOM     31  C   UNL     1      -0.676   4.928  24.855  0.00  0.00    +0.000 A 
ATOM     32  C   UNL     1       0.120   3.877  25.310  0.00  0.00    +0.000 A 
ENDBRANCH  19  24
ENDBRANCH   6  19
ENDBRANCH   2  18
ENDBRANCH   9   2
TORSDOF 6
ENDMDL
