MODEL 1
REMARK VINA RESULT:      -0.5      0.000      0.000
REMARK  Name = 38028765
REMARK  11 active torsions:
REMARK  status: ('A' for Active; 'I' for Inactive)
REMARK    1  A    between atoms: O_3  and  C_28
REMARK    2  A    between atoms: O_3  and  C_31
REMARK    3  A    between atoms: N_5  and  C_15
REMARK    4  A    between atoms: N_6  and  C_25
REMARK    5  A    between atoms: C_7  and  C_11
REMARK    6  A    between atoms: C_8  and  C_15
REMARK    7  A    between atoms: C_10  and  C_14
REMARK    8  A    between atoms: C_11  and  C_16
REMARK    9  A    between atoms: C_11  and  C_17
REMARK   10  A    between atoms: C_12  and  C_18
REMARK   11  A    between atoms: C_14  and  C_19
REMARK                            x       y       z     vdW  Elec       q    Type
REMARK                         _______ _______ _______ _____ _____    ______ ____
ROOT
ATOM      7  C   UNL     1      -3.333   2.193  23.937  0.00  0.00    +0.000 C 
ATOM      8  C   UNL     1      -3.484   3.523  24.718  0.00  0.00    +0.032 C 
ATOM      9  C   UNL     1      -4.703   1.521  23.754  0.00  0.00    +0.012 C 
ATOM     10  C   UNL     1      -5.389   1.221  25.100  0.00  0.00    +0.023 C 
ATOM     12  C   UNL     1      -5.339   2.413  26.035  0.00  0.00    -0.073 C 
ATOM     13  C   UNL     1      -4.491   3.438  25.840  0.00  0.00    -0.022 C 
ATOM     18  C   UNL     1      -6.321   2.422  27.174  0.00  0.00    +0.039 C 
ENDROOT
BRANCH   7  11
ATOM     11  C   UNL     1      -2.674   2.407  22.571  0.00  0.00    -0.013 C 
ATOM     16  C   UNL     1      -2.407   1.067  21.893  0.00  0.00    +0.007 C 
ATOM     17  C   UNL     1      -3.549   3.293  21.690  0.00  0.00    +0.007 C 
ENDBRANCH   7  11
BRANCH  10  14
ATOM     14  C   UNL     1      -4.786  -0.022  25.763  0.00  0.00    +0.103 C 
BRANCH  14  19
ATOM      1  O   UNL     1      -4.896  -1.378  23.808  0.00  0.00    -0.276 OA
ATOM      4  N   UNL     1      -2.844  -1.197  24.854  0.00  0.00    -0.301 N 
ATOM     19  C   UNL     1      -4.192  -0.926  24.713  0.00  0.00    +0.216 C 
ATOM     20  C   UNL     1      -2.124  -2.057  23.926  0.00  0.00    +0.108 C 
ATOM     21  C   UNL     1      -1.956  -0.692  25.896  0.00  0.00    +0.108 C 
ATOM     22  C   UNL     1      -0.656  -1.819  24.248  0.00  0.00    +0.020 C 
ATOM     23  C   UNL     1      -0.682  -1.511  25.740  0.00  0.00    +0.020 C 
ENDBRANCH  14  19
ENDBRANCH  10  14
BRANCH   8  15
ATOM     15  C   UNL     1      -2.134   3.991  25.276  0.00  0.00    +0.113 C 
BRANCH  15   5
ATOM      2  O   UNL     1      -0.330   3.371  23.139  0.00  0.00    -0.253 OA
ATOM      5  N   UNL     1      -1.177   2.929  25.246  0.00  0.00    -0.299 N 
ATOM      6  N   UNL     1       0.504   1.585  24.413  0.00  0.00    -0.269 N 
ATOM     24  C   UNL     1      -0.320   2.684  24.158  0.00  0.00    +0.304 C 
ATOM     32  H   UNL     1      -1.059   2.361  26.079  0.00  0.00    +0.150 HD
ATOM     33  H   UNL     1       0.382   1.122  25.311  0.00  0.00    +0.156 HD
BRANCH   6  25
ATOM     25  C   UNL     1       1.493   1.027  23.570  0.00  0.00    +0.038 A 
ATOM     26  C   UNL     1       2.843   1.269  23.824  0.00  0.00    +0.069 A 
ATOM     27  C   UNL     1       1.118   0.235  22.485  0.00  0.00    +0.023 A 
ATOM     28  C   UNL     1       3.818   0.719  22.990  0.00  0.00    +0.122 A 
ATOM     29  C   UNL     1       2.093  -0.314  21.652  0.00  0.00    +0.005 A 
ATOM     30  C   UNL     1       3.443  -0.073  21.905  0.00  0.00    +0.046 A 
BRANCH  28   3
ATOM      3  O   UNL     1       5.136   0.956  23.237  0.00  0.00    -0.495 OA
ATOM     31  C   UNL     1       5.897  -0.119  23.785  0.00  0.00    +0.277 C 
ENDBRANCH  28   3
ENDBRANCH   6  25
ENDBRANCH  15   5
ENDBRANCH   8  15
TORSDOF 7
ENDMDL
MODEL 2
REMARK VINA RESULT:      -0.1      1.505      2.498
REMARK  Name = 38028765
REMARK  11 active torsions:
REMARK  status: ('A' for Active; 'I' for Inactive)
REMARK    1  A    between atoms: O_3  and  C_28
REMARK    2  A    between atoms: O_3  and  C_31
REMARK    3  A    between atoms: N_5  and  C_15
REMARK    4  A    between atoms: N_6  and  C_25
REMARK    5  A    between atoms: C_7  and  C_11
REMARK    6  A    between atoms: C_8  and  C_15
REMARK    7  A    between atoms: C_10  and  C_14
REMARK    8  A    between atoms: C_11  and  C_16
REMARK    9  A    between atoms: C_11  and  C_17
REMARK   10  A    between atoms: C_12  and  C_18
REMARK   11  A    between atoms: C_14  and  C_19
REMARK                            x       y       z     vdW  Elec       q    Type
REMARK                         _______ _______ _______ _____ _____    ______ ____
ROOT
ATOM      7  C   UNL     1      -2.300   4.157  24.972  0.00  0.00    +0.000 C 
ATOM      8  C   UNL     1      -2.555   3.668  26.420  0.00  0.00    +0.032 C 
ATOM      9  C   UNL     1      -3.617   4.601  24.316  0.00  0.00    +0.012 C 
ATOM     10  C   UNL     1      -4.657   3.465  24.271  0.00  0.00    +0.023 C 
ATOM     12  C   UNL     1      -4.770   2.753  25.605  0.00  0.00    -0.073 C 
ATOM     13  C   UNL     1      -3.828   2.866  26.557  0.00  0.00    -0.022 C 
ATOM     18  C   UNL     1      -6.017   1.944  25.836  0.00  0.00    +0.039 C 
ENDROOT
BRANCH   7  11
ATOM     11  C   UNL     1      -1.287   5.305  24.929  0.00  0.00    -0.013 C 
ATOM     16  C   UNL     1      -0.286   5.090  23.800  0.00  0.00    +0.007 C 
ATOM     17  C   UNL     1      -2.004   6.642  24.769  0.00  0.00    +0.007 C 
ENDBRANCH   7  11
BRANCH  10  14
ATOM     14  C   UNL     1      -4.345   2.473  23.145  0.00  0.00    +0.103 C 
BRANCH  14  19
ATOM      1  O   UNL     1      -1.994   2.170  23.387  0.00  0.00    -0.276 OA
ATOM      4  N   UNL     1      -3.351   0.378  23.922  0.00  0.00    -0.301 N 
ATOM     19  C   UNL     1      -3.117   1.672  23.494  0.00  0.00    +0.216 C 
ATOM     20  C   UNL     1      -2.272  -0.526  24.291  0.00  0.00    +0.108 C 
ATOM     21  C   UNL     1      -4.650  -0.268  24.075  0.00  0.00    +0.108 C 
ATOM     22  C   UNL     1      -2.967  -1.683  24.993  0.00  0.00    +0.020 C 
ATOM     23  C   UNL     1      -4.320  -1.738  24.295  0.00  0.00    +0.020 C 
ENDBRANCH  14  19
ENDBRANCH  10  14
BRANCH   8  15
ATOM     15  C   UNL     1      -1.373   2.842  26.940  0.00  0.00    +0.113 C 
BRANCH  15   5
ATOM      2  O   UNL     1       0.935   2.840  25.243  0.00  0.00    -0.253 OA
ATOM      5  N   UNL     1      -1.006   1.832  25.998  0.00  0.00    -0.299 N 
ATOM      6  N   UNL     1       0.246   0.771  24.374  0.00  0.00    -0.269 N 
ATOM     24  C   UNL     1       0.148   1.898  25.195  0.00  0.00    +0.304 C 
ATOM     32  H   UNL     1      -1.568   0.988  25.950  0.00  0.00    +0.150 HD
ATOM     33  H   UNL     1      -0.497   0.081  24.456  0.00  0.00    +0.156 HD
BRANCH   6  25
ATOM     25  C   UNL     1       1.256   0.470  23.431  0.00  0.00    +0.038 A 
ATOM     26  C   UNL     1       2.578   0.838  23.682  0.00  0.00    +0.069 A 
ATOM     27  C   UNL     1       0.930  -0.196  22.249  0.00  0.00    +0.023 A 
ATOM     28  C   UNL     1       3.573   0.542  22.751  0.00  0.00    +0.122 A 
ATOM     29  C   UNL     1       1.925  -0.491  21.318  0.00  0.00    +0.005 A 
ATOM     30  C   UNL     1       3.247  -0.124  21.569  0.00  0.00    +0.046 A 
BRANCH  28   3
ATOM      3  O   UNL     1       4.863   0.902  22.996  0.00  0.00    -0.495 OA
ATOM     31  C   UNL     1       5.618   0.058  23.864  0.00  0.00    +0.277 C 
ENDBRANCH  28   3
ENDBRANCH   6  25
ENDBRANCH  15   5
ENDBRANCH   8  15
TORSDOF 7
ENDMDL
MODEL 3
REMARK VINA RESULT:       2.5      2.062      4.122
REMARK  Name = 38028765
REMARK  11 active torsions:
REMARK  status: ('A' for Active; 'I' for Inactive)
REMARK    1  A    between atoms: O_3  and  C_28
REMARK    2  A    between atoms: O_3  and  C_31
REMARK    3  A    between atoms: N_5  and  C_15
REMARK    4  A    between atoms: N_6  and  C_25
REMARK    5  A    between atoms: C_7  and  C_11
REMARK    6  A    between atoms: C_8  and  C_15
REMARK    7  A    between atoms: C_10  and  C_14
REMARK    8  A    between atoms: C_11  and  C_16
REMARK    9  A    between atoms: C_11  and  C_17
REMARK   10  A    between atoms: C_12  and  C_18
REMARK   11  A    between atoms: C_14  and  C_19
REMARK                            x       y       z     vdW  Elec       q    Type
REMARK                         _______ _______ _______ _____ _____    ______ ____
ROOT
ATOM      7  C   UNL     1      -2.399   1.479  24.995  0.00  0.00    +0.000 C 
ATOM      8  C   UNL     1      -1.601   0.527  24.069  0.00  0.00    +0.032 C 
ATOM      9  C   UNL     1      -3.212   0.673  26.021  0.00  0.00    +0.012 C 
ATOM     10  C   UNL     1      -4.201  -0.296  25.348  0.00  0.00    +0.023 C 
ATOM     12  C   UNL     1      -3.546  -1.086  24.232  0.00  0.00    -0.073 C 
ATOM     13  C   UNL     1      -2.378  -0.710  23.682  0.00  0.00    -0.022 C 
ATOM     18  C   UNL     1      -4.242  -2.344  23.794  0.00  0.00    +0.039 C 
ENDROOT
BRANCH   7  11
ATOM     11  C   UNL     1      -1.481   2.467  25.721  0.00  0.00    -0.013 C 
ATOM     16  C   UNL     1      -0.230   1.758  26.229  0.00  0.00    +0.007 C 
ATOM     17  C   UNL     1      -1.110   3.625  24.800  0.00  0.00    +0.007 C 
ENDBRANCH   7  11
BRANCH  10  14
ATOM     14  C   UNL     1      -5.442   0.446  24.839  0.00  0.00    +0.103 C 
BRANCH  14  19
ATOM      1  O   UNL     1      -6.197   1.753  26.681  0.00  0.00    -0.276 OA
ATOM      4  N   UNL     1      -5.083   2.861  24.987  0.00  0.00    -0.301 N 
ATOM     19  C   UNL     1      -5.613   1.738  25.596  0.00  0.00    +0.216 C 
ATOM     20  C   UNL     1      -5.171   4.184  25.587  0.00  0.00    +0.108 C 
ATOM     21  C   UNL     1      -4.378   2.910  23.711  0.00  0.00    +0.108 C 
ATOM     22  C   UNL     1      -4.203   5.034  24.776  0.00  0.00    +0.020 C 
ATOM     23  C   UNL     1      -4.268   4.396  23.395  0.00  0.00    +0.020 C 
ENDBRANCH  14  19
ENDBRANCH  10  14
BRANCH   8  15
ATOM     15  C   UNL     1      -1.132   1.253  22.803  0.00  0.00    +0.113 C 
BRANCH  15   5
ATOM      2  O   UNL     1       0.790  -0.755  23.492  0.00  0.00    -0.253 OA
ATOM      5  N   UNL     1       0.290   1.394  22.795  0.00  0.00    -0.299 N 
ATOM      6  N   UNL     1       2.503   0.785  23.044  0.00  0.00    -0.269 N 
ATOM     24  C   UNL     1       1.176   0.359  23.147  0.00  0.00    +0.304 C 
ATOM     32  H   UNL     1       0.689   2.262  22.453  0.00  0.00    +0.150 HD
ATOM     33  H   UNL     1       2.651   1.746  22.746  0.00  0.00    +0.156 HD
BRANCH   6  25
ATOM     25  C   UNL     1       3.677   0.043  23.312  0.00  0.00    +0.038 A 
ATOM     26  C   UNL     1       4.925   0.661  23.237  0.00  0.00    +0.069 A 
ATOM     27  C   UNL     1       3.585  -1.308  23.650  0.00  0.00    +0.023 A 
ATOM     28  C   UNL     1       6.083  -0.073  23.499  0.00  0.00    +0.122 A 
ATOM     29  C   UNL     1       4.743  -2.040  23.912  0.00  0.00    +0.005 A 
ATOM     30  C   UNL     1       5.991  -1.423  23.837  0.00  0.00    +0.046 A 
BRANCH  28   3
ATOM      3  O   UNL     1       7.301   0.530  23.425  0.00  0.00    -0.495 OA
ATOM     31  C   UNL     1       8.409  -0.289  23.056  0.00  0.00    +0.277 C 
ENDBRANCH  28   3
ENDBRANCH   6  25
ENDBRANCH  15   5
ENDBRANCH   8  15
TORSDOF 7
ENDMDL
MODEL 4
REMARK VINA RESULT:       3.1      2.083      4.608
REMARK  Name = 38028765
REMARK  11 active torsions:
REMARK  status: ('A' for Active; 'I' for Inactive)
REMARK    1  A    between atoms: O_3  and  C_28
REMARK    2  A    between atoms: O_3  and  C_31
REMARK    3  A    between atoms: N_5  and  C_15
REMARK    4  A    between atoms: N_6  and  C_25
REMARK    5  A    between atoms: C_7  and  C_11
REMARK    6  A    between atoms: C_8  and  C_15
REMARK    7  A    between atoms: C_10  and  C_14
REMARK    8  A    between atoms: C_11  and  C_16
REMARK    9  A    between atoms: C_11  and  C_17
REMARK   10  A    between atoms: C_12  and  C_18
REMARK   11  A    between atoms: C_14  and  C_19
REMARK                            x       y       z     vdW  Elec       q    Type
REMARK                         _______ _______ _______ _____ _____    ______ ____
ROOT
ATOM      7  C   UNL     1      -1.404   0.788  24.639  0.00  0.00    +0.000 C 
ATOM      8  C   UNL     1      -0.663  -0.482  24.150  0.00  0.00    +0.032 C 
ATOM      9  C   UNL     1      -2.359   0.440  25.792  0.00  0.00    +0.012 C 
ATOM     10  C   UNL     1      -3.409  -0.610  25.382  0.00  0.00    +0.023 C 
ATOM     12  C   UNL     1      -2.780  -1.778  24.648  0.00  0.00    -0.073 C 
ATOM     13  C   UNL     1      -1.548  -1.706  24.116  0.00  0.00    -0.022 C 
ATOM     18  C   UNL     1      -3.584  -3.047  24.580  0.00  0.00    +0.039 C 
ENDROOT
BRANCH   7  11
ATOM     11  C   UNL     1      -0.427   1.879  25.086  0.00  0.00    -0.013 C 
ATOM     16  C   UNL     1      -0.525   3.091  24.165  0.00  0.00    +0.007 C 
ATOM     17  C   UNL     1      -0.700   2.278  26.533  0.00  0.00    +0.007 C 
ENDBRANCH   7  11
BRANCH  10  14
ATOM     14  C   UNL     1      -4.528   0.023  24.549  0.00  0.00    +0.103 C 
BRANCH  14  19
ATOM      1  O   UNL     1      -5.869   1.046  26.231  0.00  0.00    -0.276 OA
ATOM      4  N   UNL     1      -4.714   2.449  24.804  0.00  0.00    -0.301 N 
ATOM     19  C   UNL     1      -5.103   1.210  25.280  0.00  0.00    +0.216 C 
ATOM     20  C   UNL     1      -5.186   3.691  25.397  0.00  0.00    +0.108 C 
ATOM     21  C   UNL     1      -3.809   2.711  23.690  0.00  0.00    +0.108 C 
ATOM     22  C   UNL     1      -4.283   4.763  24.804  0.00  0.00    +0.020 C 
ATOM     23  C   UNL     1      -3.954   4.203  23.425  0.00  0.00    +0.020 C 
ENDBRANCH  14  19
ENDBRANCH  10  14
BRANCH   8  15
ATOM     15  C   UNL     1      -0.044  -0.260  22.764  0.00  0.00    +0.113 C 
BRANCH  15   5
ATOM      2  O   UNL     1       2.257   1.270  23.516  0.00  0.00    -0.253 OA
ATOM      5  N   UNL     1       1.317  -0.696  22.741  0.00  0.00    -0.299 N 
ATOM      6  N   UNL     1       3.608  -0.579  22.999  0.00  0.00    -0.269 N 
ATOM     24  C   UNL     1       2.400   0.114  23.126  0.00  0.00    +0.304 C 
ATOM     32  H   UNL     1       1.511  -1.663  22.497  0.00  0.00    +0.150 HD
ATOM     33  H   UNL     1       3.551  -1.535  22.657  0.00  0.00    +0.156 HD
BRANCH   6  25
ATOM     25  C   UNL     1       4.911  -0.111  23.285  0.00  0.00    +0.038 A 
ATOM     26  C   UNL     1       6.018  -0.729  22.703  0.00  0.00    +0.069 A 
ATOM     27  C   UNL     1       5.090   0.969  24.150  0.00  0.00    +0.023 A 
ATOM     28  C   UNL     1       7.304  -0.268  22.987  0.00  0.00    +0.122 A 
ATOM     29  C   UNL     1       6.376   1.429  24.434  0.00  0.00    +0.005 A 
ATOM     30  C   UNL     1       7.483   0.812  23.852  0.00  0.00    +0.046 A 
BRANCH  28   3
ATOM      3  O   UNL     1       8.383  -0.872  22.419  0.00  0.00    -0.495 OA
ATOM     31  C   UNL     1       9.670  -0.372  22.778  0.00  0.00    +0.277 C 
ENDBRANCH  28   3
ENDBRANCH   6  25
ENDBRANCH  15   5
ENDBRANCH   8  15
TORSDOF 7
ENDMDL
MODEL 5
REMARK VINA RESULT:       3.3      1.880      4.042
REMARK  Name = 38028765
REMARK  11 active torsions:
REMARK  status: ('A' for Active; 'I' for Inactive)
REMARK    1  A    between atoms: O_3  and  C_28
REMARK    2  A    between atoms: O_3  and  C_31
REMARK    3  A    between atoms: N_5  and  C_15
REMARK    4  A    between atoms: N_6  and  C_25
REMARK    5  A    between atoms: C_7  and  C_11
REMARK    6  A    between atoms: C_8  and  C_15
REMARK    7  A    between atoms: C_10  and  C_14
REMARK    8  A    between atoms: C_11  and  C_16
REMARK    9  A    between atoms: C_11  and  C_17
REMARK   10  A    between atoms: C_12  and  C_18
REMARK   11  A    between atoms: C_14  and  C_19
REMARK                            x       y       z     vdW  Elec       q    Type
REMARK                         _______ _______ _______ _____ _____    ______ ____
ROOT
ATOM      7  C   UNL     1      -2.339   0.950  25.237  0.00  0.00    +0.000 C 
ATOM      8  C   UNL     1      -3.132  -0.380  25.182  0.00  0.00    +0.032 C 
ATOM      9  C   UNL     1      -3.176   2.045  25.918  0.00  0.00    +0.012 C 
ATOM     10  C   UNL     1      -4.507   2.299  25.187  0.00  0.00    +0.023 C 
ATOM     12  C   UNL     1      -5.225   1.006  24.856  0.00  0.00    -0.073 C 
ATOM     13  C   UNL     1      -4.597  -0.183  24.873  0.00  0.00    -0.022 C 
ATOM     18  C   UNL     1      -6.694   1.105  24.552  0.00  0.00    +0.039 C 
ENDROOT
BRANCH   7  11
ATOM     11  C   UNL     1      -1.004   0.786  25.969  0.00  0.00    -0.013 C 
ATOM     16  C   UNL     1      -0.544   2.123  26.541  0.00  0.00    +0.007 C 
ATOM     17  C   UNL     1      -1.126  -0.260  27.072  0.00  0.00    +0.007 C 
ENDBRANCH   7  11
BRANCH  10  14
ATOM     14  C   UNL     1      -4.292   3.145  23.926  0.00  0.00    +0.103 C 
BRANCH  14  19
ATOM      1  O   UNL     1      -2.727   1.974  22.565  0.00  0.00    -0.276 OA
ATOM      4  N   UNL     1      -1.923   3.740  23.819  0.00  0.00    -0.301 N 
ATOM     19  C   UNL     1      -2.916   2.891  23.367  0.00  0.00    +0.216 C 
ATOM     20  C   UNL     1      -0.540   3.623  23.379  0.00  0.00    +0.108 C 
ATOM     21  C   UNL     1      -2.081   4.844  24.761  0.00  0.00    +0.108 C 
ATOM     22  C   UNL     1       0.118   4.913  23.846  0.00  0.00    +0.020 C 
ATOM     23  C   UNL     1      -0.656   5.249  25.114  0.00  0.00    +0.020 C 
ENDBRANCH  14  19
ENDBRANCH  10  14
BRANCH   8  15
ATOM     15  C   UNL     1      -2.519  -1.346  24.161  0.00  0.00    +0.113 C 
BRANCH  15   5
ATOM      2  O   UNL     1       0.269  -1.438  24.808  0.00  0.00    -0.253 OA
ATOM      5  N   UNL     1      -1.455  -0.718  23.443  0.00  0.00    -0.299 N 
ATOM      6  N   UNL     1       0.709  -0.095  22.934  0.00  0.00    -0.269 N 
ATOM     24  C   UNL     1      -0.103  -0.808  23.822  0.00  0.00    +0.304 C 
ATOM     32  H   UNL     1      -1.673  -0.237  22.576  0.00  0.00    +0.150 HD
ATOM     33  H   UNL     1       0.239   0.377  22.166  0.00  0.00    +0.156 HD
BRANCH   6  25
ATOM     25  C   UNL     1       2.115   0.056  22.974  0.00  0.00    +0.038 A 
ATOM     26  C   UNL     1       2.915  -0.987  23.441  0.00  0.00    +0.069 A 
ATOM     27  C   UNL     1       2.700   1.248  22.545  0.00  0.00    +0.023 A 
ATOM     28  C   UNL     1       4.302  -0.836  23.481  0.00  0.00    +0.122 A 
ATOM     29  C   UNL     1       4.086   1.398  22.586  0.00  0.00    +0.005 A 
ATOM     30  C   UNL     1       4.887   0.356  23.053  0.00  0.00    +0.046 A 
BRANCH  28   3
ATOM      3  O   UNL     1       5.083  -1.853  23.938  0.00  0.00    -0.495 OA
ATOM     31  C   UNL     1       6.283  -1.493  24.622  0.00  0.00    +0.277 C 
ENDBRANCH  28   3
ENDBRANCH   6  25
ENDBRANCH  15   5
ENDBRANCH   8  15
TORSDOF 7
ENDMDL
