MODEL 1
REMARK VINA RESULT:       6.6      0.000      0.000
REMARK  Name = 51137146
REMARK  6 active torsions:
REMARK  status: ('A' for Active; 'I' for Inactive)
REMARK    1  A    between atoms: S_1  and  C_25
REMARK    2  A    between atoms: S_1  and  C_27
REMARK    3  A    between atoms: N_6  and  C_9
REMARK    4  A    between atoms: C_10  and  C_18
REMARK    5  A    between atoms: C_19  and  C_22
REMARK    6  A    between atoms: C_27  and  C_28
REMARK                            x       y       z     vdW  Elec       q    Type
REMARK                         _______ _______ _______ _____ _____    ______ ____
ROOT
ATOM      6  N   UNL     1      -5.606 -10.673  11.312  0.00  0.00    -0.299 NA
ATOM     10  C   UNL     1      -3.434 -10.602  12.195  0.00  0.00    +0.090 C 
ATOM     11  C   UNL     1      -4.212 -10.587  10.872  0.00  0.00    +0.097 C 
ATOM     12  C   UNL     1      -5.699  -9.761  12.452  0.00  0.00    +0.085 C 
ATOM     13  C   UNL     1      -4.432 -10.071  13.239  0.00  0.00    +0.029 C 
ENDROOT
BRANCH  10  18
ATOM      2  O   UNL     1      -1.422  -9.989  10.965  0.00  0.00    -0.439 OA
ATOM      8  N   UNL     1      -1.585  -9.060  13.025  0.00  0.00    -0.213 NA
ATOM     18  C   UNL     1      -2.129  -9.843  12.120  0.00  0.00    +0.201 A 
ATOM     20  C   UNL     1      -0.419  -8.648  12.428  0.00  0.00    +0.111 A 
ATOM     21  C   UNL     1      -0.316  -9.215  11.166  0.00  0.00    +0.155 A 
ATOM     23  C   UNL     1       0.605  -7.800  12.877  0.00  0.00    +0.058 A 
ATOM     24  C   UNL     1       0.742  -9.007  10.290  0.00  0.00    +0.050 A 
ATOM     25  C   UNL     1       1.690  -7.567  12.019  0.00  0.00    +0.090 A 
ATOM     26  C   UNL     1       1.755  -8.160  10.752  0.00  0.00    +0.030 A 
BRANCH  25   1
ATOM      1  S   UNL     1       2.983  -6.514  12.544  0.00  0.00    -0.003 S 
ATOM      4  O   UNL     1       2.626  -5.140  12.229  0.00  0.00    -0.169 OA
ATOM      5  O   UNL     1       3.329  -6.879  13.909  0.00  0.00    -0.169 OA
BRANCH   1  27
ATOM     27  C   UNL     1       4.354  -6.947  11.497  0.00  0.00    +0.168 C 
ATOM     28  C   UNL     1       5.473  -7.591  12.285  0.00  0.00    +0.028 C 
ENDBRANCH   1  27
ENDBRANCH  25   1
ENDBRANCH  10  18
BRANCH   6   9
ATOM      3  O   UNL     1      -8.538  -6.310   8.124  0.00  0.00    -0.276 OA
ATOM      7  N   UNL     1      -8.362  -8.454   9.001  0.00  0.00    -0.302 N 
ATOM      9  C   UNL     1      -6.548 -10.334  10.249  0.00  0.00    +0.060 C 
ATOM     14  C   UNL     1      -7.930 -10.034  10.845  0.00  0.00    +0.038 C 
ATOM     15  C   UNL     1      -6.034  -9.127   9.454  0.00  0.00    +0.038 C 
ATOM     16  C   UNL     1      -8.908  -9.585   9.761  0.00  0.00    +0.109 C 
ATOM     17  C   UNL     1      -7.050  -8.697   8.398  0.00  0.00    +0.109 C 
ATOM     19  C   UNL     1      -9.003  -7.234   8.796  0.00  0.00    +0.212 C 
ATOM     22  C   UNL     1     -10.350  -7.060   9.454  0.00  0.00    +0.109 C 
ENDBRANCH   6   9
TORSDOF 4
ENDMDL
