MODEL 1
REMARK VINA RESULT:      12.2      0.000      0.000
REMARK  Name = 26742312
REMARK  4 active torsions:
REMARK  status: ('A' for Active; 'I' for Inactive)
REMARK    1  A    between atoms: N_4  and  C_15
REMARK    2  A    between atoms: N_6  and  C_23
REMARK    3  A    between atoms: N_7  and  C_26
REMARK    4  A    between atoms: C_29  and  C_32
REMARK                            x       y       z     vdW  Elec       q    Type
REMARK                         _______ _______ _______ _____ _____    ______ ____
ROOT
ATOM      2  O   UNL     1      -3.192  -7.006  11.317  0.00  0.00    -0.266 OA
ATOM      4  N   UNL     1      -7.377  -9.726  10.847  0.00  0.00    -0.298 NA
ATOM      5  N   UNL     1      -4.483  -8.570  10.157  0.00  0.00    -0.310 N 
ATOM      9  C   UNL     1      -6.761  -8.007   9.129  0.00  0.00    +0.024 C 
ATOM     10  C   UNL     1      -5.869 -10.278   8.933  0.00  0.00    +0.050 C 
ATOM     11  C   UNL     1      -6.415  -9.102   8.129  0.00  0.00    +0.017 C 
ATOM     12  C   UNL     1      -7.817  -8.522  10.132  0.00  0.00    +0.090 C 
ATOM     13  C   UNL     1      -6.953 -10.781   9.914  0.00  0.00    +0.094 C 
ATOM     14  C   UNL     1      -5.473  -7.538   9.817  0.00  0.00    +0.130 C 
ATOM     16  C   UNL     1      -4.614  -9.880   9.687  0.00  0.00    +0.026 A 
ATOM     19  C   UNL     1      -3.644 -10.781   9.917  0.00  0.00    +0.024 A 
ATOM     20  C   UNL     1      -3.358  -8.151  10.894  0.00  0.00    +0.273 A 
ATOM     23  C   UNL     1      -2.311  -9.190  11.150  0.00  0.00    +0.100 A 
ATOM     24  C   UNL     1      -2.471 -10.427  10.666  0.00  0.00    +0.030 A 
ENDROOT
BRANCH   4  15
ATOM      1  O   UNL     1     -10.171  -9.730  13.980  0.00  0.00    -0.380 OA
ATOM     15  C   UNL     1      -8.421 -10.212  11.746  0.00  0.00    +0.061 C 
ATOM     17  C   UNL     1      -7.922 -10.208  13.193  0.00  0.00    +0.047 C 
ATOM     18  C   UNL     1      -9.691  -9.361  11.627  0.00  0.00    +0.047 C 
ATOM     21  C   UNL     1      -9.049 -10.598  14.143  0.00  0.00    +0.161 C 
ATOM     22  C   UNL     1     -10.719  -9.798  12.664  0.00  0.00    +0.161 C 
ENDBRANCH   4  15
BRANCH  23   6
ATOM      3  O   UNL     1      -0.183  -7.532  10.247  0.00  0.00    -0.252 OA
ATOM      6  N   UNL     1      -1.212  -8.829  11.871  0.00  0.00    -0.265 N 
ATOM      7  N   UNL     1       0.793  -7.825  12.362  0.00  0.00    -0.269 N 
ATOM     25  C   UNL     1      -0.188  -8.007  11.381  0.00  0.00    +0.308 C 
ATOM     33  H   UNL     1      -1.010  -9.373  12.706  0.00  0.00    +0.157 HD
ATOM     34  H   UNL     1       0.637  -8.287  13.254  0.00  0.00    +0.156 HD
BRANCH   7  26
ATOM     26  C   UNL     1       1.985  -7.069  12.268  0.00  0.00    +0.036 A 
ATOM     27  C   UNL     1       3.220  -7.716  12.226  0.00  0.00    +0.042 A 
ATOM     28  C   UNL     1       1.924  -5.676  12.219  0.00  0.00    +0.023 A 
ATOM     29  C   UNL     1       4.395  -6.970  12.133  0.00  0.00    +0.054 A 
ATOM     30  C   UNL     1       3.100  -4.930  12.126  0.00  0.00    +0.003 A 
ATOM     31  C   UNL     1       4.334  -5.577  12.084  0.00  0.00    +0.019 A 
BRANCH  29  32
ATOM      8  N   UNL     1       6.689  -8.169  12.054  0.00  0.00    -0.191 NA
ATOM     32  C   UNL     1       5.661  -7.631  12.090  0.00  0.00    +0.099 C 
ENDBRANCH  29  32
ENDBRANCH   7  26
ENDBRANCH  23   6
TORSDOF 4
ENDMDL
