MODEL 1
REMARK VINA RESULT:      -2.5      0.000      0.000
REMARK  Name = 75366980
REMARK  11 active torsions:
REMARK  status: ('A' for Active; 'I' for Inactive)
REMARK    1  A    between atoms: O_3  and  C_11
REMARK    2  A    between atoms: N_6  and  C_15
REMARK    3  A    between atoms: N_8  and  C_20
REMARK    4  A    between atoms: N_8  and  C_22
REMARK    5  A    between atoms: N_8  and  C_23
REMARK    6  A    between atoms: C_9  and  C_14
REMARK    7  A    between atoms: C_10  and  C_15
REMARK    8  A    between atoms: C_14  and  C_16
REMARK    9  A    between atoms: C_18  and  C_20
REMARK   10  A    between atoms: C_19  and  C_21
REMARK   11  A    between atoms: C_22  and  C_24
REMARK                            x       y       z     vdW  Elec       q    Type
REMARK                         _______ _______ _______ _____ _____    ______ ____
ROOT
ATOM      2  O   UNL     1      -2.631  -0.126  24.572  0.00  0.00    -0.369 OA
ATOM      9  C   UNL     1      -3.020  -1.373  23.990  0.00  0.00    +0.125 C 
ATOM     10  C   UNL     1      -1.220   0.039  24.771  0.00  0.00    +0.164 C 
ATOM     11  C   UNL     1      -0.638  -1.103  25.612  0.00  0.00    +0.145 C 
ATOM     12  C   UNL     1      -2.561  -2.540  24.861  0.00  0.00    +0.034 C 
ATOM     13  C   UNL     1      -1.053  -2.478  25.093  0.00  0.00    +0.036 C 
ENDROOT
BRANCH  11   3
ATOM      3  O   UNL     1      -1.118  -0.981  26.953  0.00  0.00    -0.389 OA
ATOM     35  H   UNL     1      -1.470  -1.847  27.220  0.00  0.00    +0.210 HD
ENDBRANCH  11   3
BRANCH   9  14
ATOM     14  C   UNL     1      -4.538  -1.361  23.856  0.00  0.00    +0.090 C 
BRANCH  14  16
ATOM      4  O   UNL     1      -6.611   1.446  24.758  0.00  0.00    -0.358 OA
ATOM      7  N   UNL     1      -6.372   0.265  24.065  0.00  0.00    -0.083 NA
ATOM     16  C   UNL     1      -5.138  -0.102  24.422  0.00  0.00    +0.086 A 
ATOM     17  C   UNL     1      -4.555   0.801  25.328  0.00  0.00    +0.072 A 
ATOM     18  C   UNL     1      -5.521   1.754  25.506  0.00  0.00    +0.151 A 
BRANCH  18  20
ATOM     20  C   UNL     1      -5.602   2.982  26.308  0.00  0.00    +0.161 C 
BRANCH  20   8
ATOM      8  N   UNL     1      -4.941   4.134  25.673  0.00  0.00    -0.294 NA
ATOM     23  C   UNL     1      -5.919   5.179  25.392  0.00  0.00    +0.105 C 
BRANCH   8  22
ATOM     22  C   UNL     1      -3.876   4.638  26.533  0.00  0.00    +0.119 C 
BRANCH  22  24
ATOM     24  C   UNL     1      -2.512   4.343  25.967  0.00  0.00    -0.033 A 
ATOM     27  C   UNL     1      -1.903   5.253  25.103  0.00  0.00    +0.005 A 
ATOM     28  C   UNL     1      -1.856   3.159  26.308  0.00  0.00    +0.005 A 
ATOM     32  C   UNL     1      -0.639   4.979  24.579  0.00  0.00    +0.000 A 
ATOM     33  C   UNL     1      -0.593   2.886  25.785  0.00  0.00    +0.000 A 
ATOM     34  C   UNL     1       0.016   3.796  24.921  0.00  0.00    +0.000 A 
ENDBRANCH  22  24
ENDBRANCH   8  22
ENDBRANCH  20   8
ENDBRANCH  18  20
ENDBRANCH  14  16
ENDBRANCH   9  14
BRANCH  10  15
ATOM     15  C   UNL     1      -0.495   0.231  23.441  0.00  0.00    +0.138 C 
BRANCH  15   6
ATOM      5  O   UNL     1       1.480  -0.391  21.451  0.00  0.00    -0.270 OA
ATOM      6  N   UNL     1       0.925   0.213  23.622  0.00  0.00    -0.309 N 
ATOM     19  C   UNL     1       1.814  -0.102  22.598  0.00  0.00    +0.244 C 
ATOM     36  H   UNL     1       1.267   0.316  24.572  0.00  0.00    +0.149 HD
BRANCH  19  21
ATOM      1  F   UNL     1       5.770  -2.361  24.300  0.00  0.00    -0.205 F 
ATOM     21  C   UNL     1       3.256  -0.102  22.955  0.00  0.00    +0.039 A 
ATOM     25  C   UNL     1       3.848  -1.254  23.471  0.00  0.00    +0.051 A 
ATOM     26  C   UNL     1       4.019   1.053  22.774  0.00  0.00    +0.013 A 
ATOM     29  C   UNL     1       5.202  -1.253  23.806  0.00  0.00    +0.124 A 
ATOM     30  C   UNL     1       5.373   1.054  23.110  0.00  0.00    +0.004 A 
ATOM     31  C   UNL     1       5.964  -0.099  23.626  0.00  0.00    +0.038 A 
ENDBRANCH  19  21
ENDBRANCH  15   6
ENDBRANCH  10  15
TORSDOF 10
ENDMDL
MODEL 2
REMARK VINA RESULT:      -2.3      1.218      1.784
REMARK  Name = 75366980
REMARK  11 active torsions:
REMARK  status: ('A' for Active; 'I' for Inactive)
REMARK    1  A    between atoms: O_3  and  C_11
REMARK    2  A    between atoms: N_6  and  C_15
REMARK    3  A    between atoms: N_8  and  C_20
REMARK    4  A    between atoms: N_8  and  C_22
REMARK    5  A    between atoms: N_8  and  C_23
REMARK    6  A    between atoms: C_9  and  C_14
REMARK    7  A    between atoms: C_10  and  C_15
REMARK    8  A    between atoms: C_14  and  C_16
REMARK    9  A    between atoms: C_18  and  C_20
REMARK   10  A    between atoms: C_19  and  C_21
REMARK   11  A    between atoms: C_22  and  C_24
REMARK                            x       y       z     vdW  Elec       q    Type
REMARK                         _______ _______ _______ _____ _____    ______ ____
ROOT
ATOM      2  O   UNL     1      -2.814  -0.709  25.091  0.00  0.00    -0.369 OA
ATOM      9  C   UNL     1      -3.853  -1.038  24.165  0.00  0.00    +0.125 C 
ATOM     10  C   UNL     1      -1.521  -1.236  24.767  0.00  0.00    +0.164 C 
ATOM     11  C   UNL     1      -1.566  -2.760  24.592  0.00  0.00    +0.145 C 
ATOM     12  C   UNL     1      -4.013  -2.552  24.049  0.00  0.00    +0.034 C 
ATOM     13  C   UNL     1      -2.689  -3.204  23.659  0.00  0.00    +0.036 C 
ENDROOT
BRANCH  11   3
ATOM      3  O   UNL     1      -1.795  -3.364  25.867  0.00  0.00    -0.389 OA
ATOM     35  H   UNL     1      -2.396  -4.115  25.733  0.00  0.00    +0.210 HD
ENDBRANCH  11   3
BRANCH   9  14
ATOM     14  C   UNL     1      -5.138  -0.394  24.672  0.00  0.00    +0.090 C 
BRANCH  14  16
ATOM      4  O   UNL     1      -5.620   3.153  25.090  0.00  0.00    -0.358 OA
ATOM      7  N   UNL     1      -6.027   1.831  25.229  0.00  0.00    -0.083 NA
ATOM     16  C   UNL     1      -5.039   1.108  24.694  0.00  0.00    +0.086 A 
ATOM     17  C   UNL     1      -3.993   1.910  24.206  0.00  0.00    +0.072 A 
ATOM     18  C   UNL     1      -4.407   3.186  24.479  0.00  0.00    +0.151 A 
BRANCH  18  20
ATOM     20  C   UNL     1      -3.825   4.515  24.251  0.00  0.00    +0.161 C 
BRANCH  20   8
ATOM      8  N   UNL     1      -3.295   5.135  25.477  0.00  0.00    -0.294 NA
ATOM     23  C   UNL     1      -3.479   4.236  26.611  0.00  0.00    +0.105 C 
BRANCH   8  22
ATOM     22  C   UNL     1      -1.886   5.469  25.301  0.00  0.00    +0.119 C 
BRANCH  22  24
ATOM     24  C   UNL     1      -1.022   4.237  25.238  0.00  0.00    -0.033 A 
ATOM     27  C   UNL     1      -0.946   3.381  26.336  0.00  0.00    +0.005 A 
ATOM     28  C   UNL     1      -0.297   3.953  24.080  0.00  0.00    +0.005 A 
ATOM     32  C   UNL     1      -0.144   2.241  26.277  0.00  0.00    +0.000 A 
ATOM     33  C   UNL     1       0.504   2.812  24.021  0.00  0.00    +0.000 A 
ATOM     34  C   UNL     1       0.580   1.956  25.119  0.00  0.00    +0.000 A 
ENDBRANCH  22  24
ENDBRANCH   8  22
ENDBRANCH  20   8
ENDBRANCH  18  20
ENDBRANCH  14  16
ENDBRANCH   9  14
BRANCH  10  15
ATOM     15  C   UNL     1      -0.918  -0.515  23.563  0.00  0.00    +0.138 C 
BRANCH  15   6
ATOM      5  O   UNL     1       1.023  -0.443  21.448  0.00  0.00    -0.270 OA
ATOM      6  N   UNL     1       0.499  -0.370  23.708  0.00  0.00    -0.309 N 
ATOM     19  C   UNL     1       1.371  -0.345  22.623  0.00  0.00    +0.244 C 
ATOM     36  H   UNL     1       0.870  -0.412  24.651  0.00  0.00    +0.149 HD
BRANCH  19  21
ATOM      1  F   UNL     1       5.529  -2.195  24.338  0.00  0.00    -0.205 F 
ATOM     21  C   UNL     1       2.816  -0.214  22.942  0.00  0.00    +0.039 A 
ATOM     25  C   UNL     1       3.508  -1.287  23.502  0.00  0.00    +0.051 A 
ATOM     26  C   UNL     1       3.481   0.986  22.682  0.00  0.00    +0.013 A 
ATOM     29  C   UNL     1       4.865  -1.163  23.802  0.00  0.00    +0.124 A 
ATOM     30  C   UNL     1       4.838   1.109  22.983  0.00  0.00    +0.004 A 
ATOM     31  C   UNL     1       5.529   0.035  23.543  0.00  0.00    +0.038 A 
ENDBRANCH  19  21
ENDBRANCH  15   6
ENDBRANCH  10  15
TORSDOF 10
ENDMDL
MODEL 3
REMARK VINA RESULT:      -2.0      2.076      7.011
REMARK  Name = 75366980
REMARK  11 active torsions:
REMARK  status: ('A' for Active; 'I' for Inactive)
REMARK    1  A    between atoms: O_3  and  C_11
REMARK    2  A    between atoms: N_6  and  C_15
REMARK    3  A    between atoms: N_8  and  C_20
REMARK    4  A    between atoms: N_8  and  C_22
REMARK    5  A    between atoms: N_8  and  C_23
REMARK    6  A    between atoms: C_9  and  C_14
REMARK    7  A    between atoms: C_10  and  C_15
REMARK    8  A    between atoms: C_14  and  C_16
REMARK    9  A    between atoms: C_18  and  C_20
REMARK   10  A    between atoms: C_19  and  C_21
REMARK   11  A    between atoms: C_22  and  C_24
REMARK                            x       y       z     vdW  Elec       q    Type
REMARK                         _______ _______ _______ _____ _____    ______ ____
ROOT
ATOM      2  O   UNL     1      -4.580   3.203  26.555  0.00  0.00    -0.369 OA
ATOM      9  C   UNL     1      -3.470   3.531  25.716  0.00  0.00    +0.125 C 
ATOM     10  C   UNL     1      -5.835   3.057  25.877  0.00  0.00    +0.164 C 
ATOM     11  C   UNL     1      -6.181   4.313  25.066  0.00  0.00    +0.145 C 
ATOM     12  C   UNL     1      -3.724   4.842  24.975  0.00  0.00    +0.034 C 
ATOM     13  C   UNL     1      -5.025   4.769  24.180  0.00  0.00    +0.036 C 
ENDROOT
BRANCH  11   3
ATOM      3  O   UNL     1      -6.482   5.378  25.971  0.00  0.00    -0.389 OA
ATOM     35  H   UNL     1      -7.448   5.485  25.988  0.00  0.00    +0.210 HD
ENDBRANCH  11   3
BRANCH   9  14
ATOM     14  C   UNL     1      -2.239   3.640  26.607  0.00  0.00    +0.090 C 
BRANCH  14  16
ATOM      4  O   UNL     1       0.909   2.056  25.854  0.00  0.00    -0.358 OA
ATOM      7  N   UNL     1      -0.017   2.594  26.740  0.00  0.00    -0.083 NA
ATOM     16  C   UNL     1      -1.034   2.999  25.974  0.00  0.00    +0.086 A 
ATOM     17  C   UNL     1      -0.807   2.746  24.610  0.00  0.00    +0.072 A 
ATOM     18  C   UNL     1       0.427   2.153  24.589  0.00  0.00    +0.151 A 
BRANCH  18  20
ATOM     20  C   UNL     1       1.284   1.630  23.518  0.00  0.00    +0.161 C 
BRANCH  20   8
ATOM      8  N   UNL     1       0.947   0.251  23.125  0.00  0.00    -0.294 NA
ATOM     23  C   UNL     1      -0.367   0.220  22.492  0.00  0.00    +0.105 C 
BRANCH   8  22
ATOM     22  C   UNL     1       1.968  -0.279  22.229  0.00  0.00    +0.119 C 
BRANCH  22  24
ATOM     24  C   UNL     1       3.330  -0.284  22.872  0.00  0.00    -0.033 A 
ATOM     27  C   UNL     1       4.140   0.849  22.801  0.00  0.00    +0.005 A 
ATOM     28  C   UNL     1       3.782  -1.423  23.540  0.00  0.00    +0.005 A 
ATOM     32  C   UNL     1       5.401   0.843  23.396  0.00  0.00    +0.000 A 
ATOM     33  C   UNL     1       5.043  -1.428  24.136  0.00  0.00    +0.000 A 
ATOM     34  C   UNL     1       5.852  -0.295  24.064  0.00  0.00    +0.000 A 
ENDBRANCH  22  24
ENDBRANCH   8  22
ENDBRANCH  20   8
ENDBRANCH  18  20
ENDBRANCH  14  16
ENDBRANCH   9  14
BRANCH  10  15
ATOM     15  C   UNL     1      -5.864   1.780  25.040  0.00  0.00    +0.138 C 
BRANCH  15   6
ATOM      5  O   UNL     1      -5.333  -0.880  24.096  0.00  0.00    -0.270 OA
ATOM      6  N   UNL     1      -4.632   1.060  25.159  0.00  0.00    -0.309 N 
ATOM     19  C   UNL     1      -4.461  -0.233  24.671  0.00  0.00    +0.244 C 
ATOM     36  H   UNL     1      -3.909   1.480  25.733  0.00  0.00    +0.149 HD
BRANCH  19  21
ATOM      1  F   UNL     1      -1.154  -3.668  23.714  0.00  0.00    -0.205 F 
ATOM     21  C   UNL     1      -3.130  -0.852  24.897  0.00  0.00    +0.039 A 
ATOM     25  C   UNL     1      -2.760  -1.993  24.186  0.00  0.00    +0.051 A 
ATOM     26  C   UNL     1      -2.249  -0.290  25.823  0.00  0.00    +0.013 A 
ATOM     29  C   UNL     1      -1.509  -2.573  24.399  0.00  0.00    +0.124 A 
ATOM     30  C   UNL     1      -0.998  -0.872  26.037  0.00  0.00    +0.004 A 
ATOM     31  C   UNL     1      -0.629  -2.013  25.324  0.00  0.00    +0.038 A 
ENDBRANCH  19  21
ENDBRANCH  15   6
ENDBRANCH  10  15
TORSDOF 10
ENDMDL
MODEL 4
REMARK VINA RESULT:       0.0      1.574      4.485
REMARK  Name = 75366980
REMARK  11 active torsions:
REMARK  status: ('A' for Active; 'I' for Inactive)
REMARK    1  A    between atoms: O_3  and  C_11
REMARK    2  A    between atoms: N_6  and  C_15
REMARK    3  A    between atoms: N_8  and  C_20
REMARK    4  A    between atoms: N_8  and  C_22
REMARK    5  A    between atoms: N_8  and  C_23
REMARK    6  A    between atoms: C_9  and  C_14
REMARK    7  A    between atoms: C_10  and  C_15
REMARK    8  A    between atoms: C_14  and  C_16
REMARK    9  A    between atoms: C_18  and  C_20
REMARK   10  A    between atoms: C_19  and  C_21
REMARK   11  A    between atoms: C_22  and  C_24
REMARK                            x       y       z     vdW  Elec       q    Type
REMARK                         _______ _______ _______ _____ _____    ______ ____
ROOT
ATOM      2  O   UNL     1      -2.180   3.297  24.076  0.00  0.00    -0.369 OA
ATOM      9  C   UNL     1      -2.372   4.012  25.300  0.00  0.00    +0.125 C 
ATOM     10  C   UNL     1      -0.826   2.911  23.803  0.00  0.00    +0.164 C 
ATOM     11  C   UNL     1       0.115   4.122  23.823  0.00  0.00    +0.145 C 
ATOM     12  C   UNL     1      -1.539   5.292  25.313  0.00  0.00    +0.034 C 
ATOM     13  C   UNL     1      -0.065   4.978  25.074  0.00  0.00    +0.036 C 
ENDROOT
BRANCH  11   3
ATOM      3  O   UNL     1      -0.168   4.945  22.688  0.00  0.00    -0.389 OA
ATOM     35  H   UNL     1      -0.517   5.790  23.018  0.00  0.00    +0.210 HD
ENDBRANCH  11   3
BRANCH   9  14
ATOM     14  C   UNL     1      -3.857   4.330  25.415  0.00  0.00    +0.090 C 
BRANCH  14  16
ATOM      4  O   UNL     1      -6.493   1.884  25.179  0.00  0.00    -0.358 OA
ATOM      7  N   UNL     1      -6.024   3.165  25.444  0.00  0.00    -0.083 NA
ATOM     16  C   UNL     1      -4.707   3.102  25.225  0.00  0.00    +0.086 A 
ATOM     17  C   UNL     1      -4.293   1.820  24.824  0.00  0.00    +0.072 A 
ATOM     18  C   UNL     1      -5.453   1.093  24.811  0.00  0.00    +0.151 A 
BRANCH  18  20
ATOM     20  C   UNL     1      -5.772  -0.304  24.492  0.00  0.00    +0.161 C 
BRANCH  20   8
ATOM      8  N   UNL     1      -4.740  -0.964  23.675  0.00  0.00    -0.294 NA
ATOM     23  C   UNL     1      -3.642  -0.040  23.415  0.00  0.00    +0.105 C 
BRANCH   8  22
ATOM     22  C   UNL     1      -4.260  -2.165  24.349  0.00  0.00    +0.119 C 
BRANCH  22  24
ATOM     24  C   UNL     1      -2.855  -1.995  24.865  0.00  0.00    -0.033 A 
ATOM     27  C   UNL     1      -2.605  -1.144  25.940  0.00  0.00    +0.005 A 
ATOM     28  C   UNL     1      -1.804  -2.691  24.267  0.00  0.00    +0.005 A 
ATOM     32  C   UNL     1      -1.303  -0.986  26.417  0.00  0.00    +0.000 A 
ATOM     33  C   UNL     1      -0.503  -2.534  24.744  0.00  0.00    +0.000 A 
ATOM     34  C   UNL     1      -0.253  -1.682  25.819  0.00  0.00    +0.000 A 
ENDBRANCH  22  24
ENDBRANCH   8  22
ENDBRANCH  20   8
ENDBRANCH  18  20
ENDBRANCH  14  16
ENDBRANCH   9  14
BRANCH  10  15
ATOM     15  C   UNL     1      -0.374   1.789  24.735  0.00  0.00    +0.138 C 
BRANCH  15   6
ATOM      5  O   UNL     1       0.573  -0.023  22.719  0.00  0.00    -0.270 OA
ATOM      6  N   UNL     1       0.988   1.428  24.482  0.00  0.00    -0.309 N 
ATOM     19  C   UNL     1       1.360   0.537  23.479  0.00  0.00    +0.244 C 
ATOM     36  H   UNL     1       1.680   1.750  25.150  0.00  0.00    +0.149 HD
BRANCH  19  21
ATOM      1  F   UNL     1       5.161  -2.438  24.077  0.00  0.00    -0.205 F 
ATOM     21  C   UNL     1       2.812   0.246  23.362  0.00  0.00    +0.039 A 
ATOM     25  C   UNL     1       3.315  -0.984  23.784  0.00  0.00    +0.051 A 
ATOM     26  C   UNL     1       3.674   1.207  22.829  0.00  0.00    +0.013 A 
ATOM     29  C   UNL     1       4.679  -1.256  23.673  0.00  0.00    +0.124 A 
ATOM     30  C   UNL     1       5.038   0.934  22.719  0.00  0.00    +0.004 A 
ATOM     31  C   UNL     1       5.540  -0.296  23.142  0.00  0.00    +0.038 A 
ENDBRANCH  19  21
ENDBRANCH  15   6
ENDBRANCH  10  15
TORSDOF 10
ENDMDL
MODEL 5
REMARK VINA RESULT:       1.1      2.176      7.504
REMARK  Name = 75366980
REMARK  11 active torsions:
REMARK  status: ('A' for Active; 'I' for Inactive)
REMARK    1  A    between atoms: O_3  and  C_11
REMARK    2  A    between atoms: N_6  and  C_15
REMARK    3  A    between atoms: N_8  and  C_20
REMARK    4  A    between atoms: N_8  and  C_22
REMARK    5  A    between atoms: N_8  and  C_23
REMARK    6  A    between atoms: C_9  and  C_14
REMARK    7  A    between atoms: C_10  and  C_15
REMARK    8  A    between atoms: C_14  and  C_16
REMARK    9  A    between atoms: C_18  and  C_20
REMARK   10  A    between atoms: C_19  and  C_21
REMARK   11  A    between atoms: C_22  and  C_24
REMARK                            x       y       z     vdW  Elec       q    Type
REMARK                         _______ _______ _______ _____ _____    ______ ____
ROOT
ATOM      2  O   UNL     1      -2.649   3.249  25.941  0.00  0.00    -0.369 OA
ATOM      9  C   UNL     1      -1.558   3.750  25.164  0.00  0.00    +0.125 C 
ATOM     10  C   UNL     1      -3.937   3.776  25.596  0.00  0.00    +0.164 C 
ATOM     11  C   UNL     1      -3.947   5.309  25.658  0.00  0.00    +0.145 C 
ATOM     12  C   UNL     1      -1.459   5.269  25.292  0.00  0.00    +0.034 C 
ATOM     13  C   UNL     1      -2.778   5.929  24.898  0.00  0.00    +0.036 C 
ENDROOT
BRANCH  11   3
ATOM      3  O   UNL     1      -3.844   5.716  27.024  0.00  0.00    -0.389 OA
ATOM     35  H   UNL     1      -4.319   5.062  27.563  0.00  0.00    +0.210 HD
ENDBRANCH  11   3
BRANCH   9  14
ATOM     14  C   UNL     1      -0.288   3.079  25.672  0.00  0.00    +0.090 C 
BRANCH  14  16
ATOM      4  O   UNL     1      -0.220  -0.493  25.200  0.00  0.00    -0.358 OA
ATOM      7  N   UNL     1      -0.432   0.642  25.973  0.00  0.00    -0.083 NA
ATOM     16  C   UNL     1      -0.161   1.668  25.162  0.00  0.00    +0.086 A 
ATOM     17  C   UNL     1       0.225   1.246  23.878  0.00  0.00    +0.072 A 
ATOM     18  C   UNL     1       0.170  -0.119  23.954  0.00  0.00    +0.151 A 
BRANCH  18  20
ATOM     20  C   UNL     1       0.440  -1.202  22.999  0.00  0.00    +0.161 C 
BRANCH  20   8
ATOM      8  N   UNL     1       1.460  -0.851  21.997  0.00  0.00    -0.294 NA
ATOM     23  C   UNL     1       0.832  -0.635  20.699  0.00  0.00    +0.105 C 
BRANCH   8  22
ATOM     22  C   UNL     1       2.194   0.335  22.423  0.00  0.00    +0.119 C 
BRANCH  22  24
ATOM     24  C   UNL     1       3.530  -0.017  23.023  0.00  0.00    -0.033 A 
ATOM     27  C   UNL     1       3.756  -1.301  23.518  0.00  0.00    +0.005 A 
ATOM     28  C   UNL     1       4.542   0.941  23.082  0.00  0.00    +0.005 A 
ATOM     32  C   UNL     1       4.993  -1.626  24.074  0.00  0.00    +0.000 A 
ATOM     33  C   UNL     1       5.779   0.616  23.637  0.00  0.00    +0.000 A 
ATOM     34  C   UNL     1       6.005  -0.668  24.133  0.00  0.00    +0.000 A 
ENDBRANCH  22  24
ENDBRANCH   8  22
ENDBRANCH  20   8
ENDBRANCH  18  20
ENDBRANCH  14  16
ENDBRANCH   9  14
BRANCH  10  15
ATOM     15  C   UNL     1      -4.413   3.230  24.252  0.00  0.00    +0.138 C 
BRANCH  15   6
ATOM      5  O   UNL     1      -5.494   1.053  25.780  0.00  0.00    -0.270 OA
ATOM      6  N   UNL     1      -4.084   1.843  24.115  0.00  0.00    -0.309 N 
ATOM     19  C   UNL     1      -4.659   0.848  24.902  0.00  0.00    +0.244 C 
ATOM     36  H   UNL     1      -3.311   1.613  23.500  0.00  0.00    +0.149 HD
BRANCH  19  21
ATOM      1  F   UNL     1      -1.664  -2.862  25.857  0.00  0.00    -0.205 F 
ATOM     21  C   UNL     1      -4.192  -0.540  24.653  0.00  0.00    +0.039 A 
ATOM     25  C   UNL     1      -3.125  -1.060  25.386  0.00  0.00    +0.051 A 
ATOM     26  C   UNL     1      -4.822  -1.324  23.686  0.00  0.00    +0.013 A 
ATOM     29  C   UNL     1      -2.687  -2.363  25.152  0.00  0.00    +0.124 A 
ATOM     30  C   UNL     1      -4.383  -2.628  23.452  0.00  0.00    +0.004 A 
ATOM     31  C   UNL     1      -3.316  -3.147  24.185  0.00  0.00    +0.038 A 
ENDBRANCH  19  21
ENDBRANCH  15   6
ENDBRANCH  10  15
TORSDOF 10
ENDMDL
