MODEL 1
REMARK VINA RESULT:      -0.3      0.000      0.000
REMARK  Name = 26745471
REMARK  8 active torsions:
REMARK  status: ('A' for Active; 'I' for Inactive)
REMARK    1  A    between atoms: S_2  and  N_7
REMARK    2  A    between atoms: S_2  and  C_15
REMARK    3  A    between atoms: O_5  and  C_16
REMARK    4  A    between atoms: O_5  and  C_25
REMARK    5  A    between atoms: N_8  and  C_17
REMARK    6  A    between atoms: C_10  and  C_16
REMARK    7  A    between atoms: C_15  and  C_19
REMARK    8  A    between atoms: C_17  and  C_20
REMARK                            x       y       z     vdW  Elec       q    Type
REMARK                         _______ _______ _______ _____ _____    ______ ____
ROOT
ATOM      7  N   UNL     1      -1.171   2.628  24.889  0.00  0.00    -0.161 NA
ATOM      8  N   UNL     1       0.359  -0.584  23.733  0.00  0.00    -0.328 N 
ATOM      9  N   UNL     1      -0.702  -1.461  25.494  0.00  0.00    -0.240 NA
ATOM     10  C   UNL     1      -1.291   2.197  26.328  0.00  0.00    +0.194 C 
ATOM     11  C   UNL     1      -0.150   1.894  24.054  0.00  0.00    +0.165 C 
ATOM     12  C   UNL     1      -1.624   0.694  26.454  0.00  0.00    +0.089 C 
ATOM     13  C   UNL     1      -0.215   0.459  24.395  0.00  0.00    +0.057 A 
ATOM     14  C   UNL     1      -0.855  -0.102  25.472  0.00  0.00    +0.066 A 
ATOM     18  C   UNL     1       0.037  -1.721  24.433  0.00  0.00    +0.200 A 
ENDROOT
BRANCH   7   2
ATOM      2  S   UNL     1      -1.299   4.307  24.577  0.00  0.00    +0.037 S 
ATOM      3  O   UNL     1      -0.208   4.704  23.715  0.00  0.00    -0.158 OA
ATOM      4  O   UNL     1      -1.573   4.990  25.822  0.00  0.00    -0.158 OA
BRANCH   2  15
ATOM     15  C   UNL     1      -2.789   4.303  23.613  0.00  0.00    +0.220 C 
BRANCH  15  19
ATOM     19  C   UNL     1      -3.751   3.358  24.264  0.00  0.00    -0.025 A 
ATOM     21  C   UNL     1      -3.843   2.040  23.821  0.00  0.00    +0.005 A 
ATOM     22  C   UNL     1      -4.557   3.798  25.315  0.00  0.00    +0.005 A 
ATOM     26  C   UNL     1      -4.741   1.160  24.429  0.00  0.00    +0.000 A 
ATOM     27  C   UNL     1      -5.453   2.920  25.922  0.00  0.00    +0.000 A 
ATOM     30  C   UNL     1      -5.545   1.601  25.478  0.00  0.00    +0.000 A 
ENDBRANCH  15  19
ENDBRANCH   2  15
ENDBRANCH   7   2
BRANCH  10  16
ATOM      6  O   UNL     1       0.990   2.940  26.490  0.00  0.00    -0.249 OA
ATOM     16  C   UNL     1      -0.029   2.554  27.047  0.00  0.00    +0.326 C 
BRANCH  16   5
ATOM      5  O   UNL     1      -0.203   2.381  28.388  0.00  0.00    -0.467 OA
ATOM     25  C   UNL     1       0.994   2.404  29.172  0.00  0.00    +0.280 C 
ENDBRANCH  16   5
ENDBRANCH  10  16
BRANCH   8  17
ATOM     17  C   UNL     1       1.160  -0.525  22.535  0.00  0.00    +0.158 C 
BRANCH  17  20
ATOM      1 CL   UNL     1       7.037   0.186  23.628  0.00  0.00    -0.084 Cl
ATOM     20  C   UNL     1       2.633  -0.348  22.808  0.00  0.00    -0.028 A 
ATOM     23  C   UNL     1       3.277   0.830  22.426  0.00  0.00    +0.007 A 
ATOM     24  C   UNL     1       3.352  -1.361  23.443  0.00  0.00    +0.007 A 
ATOM     28  C   UNL     1       4.638   0.995  22.679  0.00  0.00    +0.020 A 
ATOM     29  C   UNL     1       4.714  -1.196  23.696  0.00  0.00    +0.020 A 
ATOM     31  C   UNL     1       5.357  -0.018  23.313  0.00  0.00    +0.041 A 
ENDBRANCH  17  20
ENDBRANCH   8  17
TORSDOF 7
ENDMDL
MODEL 2
REMARK VINA RESULT:      -0.1      2.633      4.421
REMARK  Name = 26745471
REMARK  8 active torsions:
REMARK  status: ('A' for Active; 'I' for Inactive)
REMARK    1  A    between atoms: S_2  and  N_7
REMARK    2  A    between atoms: S_2  and  C_15
REMARK    3  A    between atoms: O_5  and  C_16
REMARK    4  A    between atoms: O_5  and  C_25
REMARK    5  A    between atoms: N_8  and  C_17
REMARK    6  A    between atoms: C_10  and  C_16
REMARK    7  A    between atoms: C_15  and  C_19
REMARK    8  A    between atoms: C_17  and  C_20
REMARK                            x       y       z     vdW  Elec       q    Type
REMARK                         _______ _______ _______ _____ _____    ______ ____
ROOT
ATOM      7  N   UNL     1      -3.290   1.401  25.149  0.00  0.00    -0.161 NA
ATOM      8  N   UNL     1       0.196   1.642  23.813  0.00  0.00    -0.328 N 
ATOM      9  N   UNL     1       0.269   3.547  24.978  0.00  0.00    -0.240 NA
ATOM     10  C   UNL     1      -3.454   2.887  25.337  0.00  0.00    +0.194 C 
ATOM     11  C   UNL     1      -2.238   0.963  24.158  0.00  0.00    +0.165 C 
ATOM     12  C   UNL     1      -2.135   3.561  25.775  0.00  0.00    +0.089 C 
ATOM     13  C   UNL     1      -1.051   1.824  24.331  0.00  0.00    +0.057 A 
ATOM     14  C   UNL     1      -0.982   2.999  25.037  0.00  0.00    +0.066 A 
ATOM     18  C   UNL     1       0.956   2.706  24.231  0.00  0.00    +0.200 A 
ENDROOT
BRANCH   7   2
ATOM      2  S   UNL     1      -4.723   0.464  25.153  0.00  0.00    +0.037 S 
ATOM      3  O   UNL     1      -4.907  -0.110  23.838  0.00  0.00    -0.158 OA
ATOM      4  O   UNL     1      -5.769   1.219  25.807  0.00  0.00    -0.158 OA
BRANCH   2  15
ATOM     15  C   UNL     1      -4.212  -0.832  26.252  0.00  0.00    +0.220 C 
BRANCH  15  19
ATOM     19  C   UNL     1      -2.993  -1.473  25.664  0.00  0.00    -0.025 A 
ATOM     21  C   UNL     1      -1.727  -1.133  26.140  0.00  0.00    +0.005 A 
ATOM     22  C   UNL     1      -3.124  -2.411  24.640  0.00  0.00    +0.005 A 
ATOM     26  C   UNL     1      -0.592  -1.733  25.591  0.00  0.00    +0.000 A 
ATOM     27  C   UNL     1      -1.991  -3.010  24.092  0.00  0.00    +0.000 A 
ATOM     30  C   UNL     1      -0.724  -2.670  24.568  0.00  0.00    +0.000 A 
ENDBRANCH  15  19
ENDBRANCH   2  15
ENDBRANCH   7   2
BRANCH  10  16
ATOM      6  O   UNL     1      -3.753   3.039  22.955  0.00  0.00    -0.249 OA
ATOM     16  C   UNL     1      -3.992   3.477  24.072  0.00  0.00    +0.326 C 
BRANCH  16   5
ATOM      5  O   UNL     1      -4.772   4.555  24.369  0.00  0.00    -0.467 OA
ATOM     25  C   UNL     1      -5.676   4.377  25.463  0.00  0.00    +0.280 C 
ENDBRANCH  16   5
ENDBRANCH  10  16
BRANCH   8  17
ATOM     17  C   UNL     1       0.646   0.555  22.979  0.00  0.00    +0.158 C 
BRANCH  17  20
ATOM      1 CL   UNL     1       6.566  -0.463  23.375  0.00  0.00    -0.084 Cl
ATOM     20  C   UNL     1       2.129   0.299  23.077  0.00  0.00    -0.028 A 
ATOM     23  C   UNL     1       3.035   1.298  22.719  0.00  0.00    +0.007 A 
ATOM     24  C   UNL     1       2.596  -0.937  23.527  0.00  0.00    +0.007 A 
ATOM     28  C   UNL     1       4.406   1.062  22.811  0.00  0.00    +0.020 A 
ATOM     29  C   UNL     1       3.968  -1.173  23.618  0.00  0.00    +0.020 A 
ATOM     31  C   UNL     1       4.873  -0.173  23.259  0.00  0.00    +0.041 A 
ENDBRANCH  17  20
ENDBRANCH   8  17
TORSDOF 7
ENDMDL
MODEL 3
REMARK VINA RESULT:       0.5      2.946      6.862
REMARK  Name = 26745471
REMARK  8 active torsions:
REMARK  status: ('A' for Active; 'I' for Inactive)
REMARK    1  A    between atoms: S_2  and  N_7
REMARK    2  A    between atoms: S_2  and  C_15
REMARK    3  A    between atoms: O_5  and  C_16
REMARK    4  A    between atoms: O_5  and  C_25
REMARK    5  A    between atoms: N_8  and  C_17
REMARK    6  A    between atoms: C_10  and  C_16
REMARK    7  A    between atoms: C_15  and  C_19
REMARK    8  A    between atoms: C_17  and  C_20
REMARK                            x       y       z     vdW  Elec       q    Type
REMARK                         _______ _______ _______ _____ _____    ______ ____
ROOT
ATOM      7  N   UNL     1      -0.508   1.739  23.850  0.00  0.00    -0.161 NA
ATOM      8  N   UNL     1      -4.058   2.659  24.587  0.00  0.00    -0.328 N 
ATOM      9  N   UNL     1      -3.193   4.649  25.124  0.00  0.00    -0.240 NA
ATOM     10  C   UNL     1       0.082   2.755  24.793  0.00  0.00    +0.194 C 
ATOM     11  C   UNL     1      -1.935   1.327  24.118  0.00  0.00    +0.165 C 
ATOM     12  C   UNL     1      -0.748   4.057  24.830  0.00  0.00    +0.089 C 
ATOM     13  C   UNL     1      -2.705   2.531  24.486  0.00  0.00    +0.057 A 
ATOM     14  C   UNL     1      -2.198   3.761  24.824  0.00  0.00    +0.066 A 
ATOM     18  C   UNL     1      -4.303   3.954  24.974  0.00  0.00    +0.200 A 
ENDROOT
BRANCH   7   2
ATOM      2  S   UNL     1       0.531   0.480  23.329  0.00  0.00    +0.037 S 
ATOM      3  O   UNL     1       0.047  -0.029  22.065  0.00  0.00    -0.158 OA
ATOM      4  O   UNL     1       0.797  -0.394  24.450  0.00  0.00    -0.158 OA
BRANCH   2  15
ATOM     15  C   UNL     1       1.994   1.432  23.015  0.00  0.00    +0.220 C 
BRANCH  15  19
ATOM     19  C   UNL     1       3.176   0.548  23.266  0.00  0.00    -0.025 A 
ATOM     21  C   UNL     1       2.992  -0.814  23.501  0.00  0.00    +0.005 A 
ATOM     22  C   UNL     1       4.463   1.088  23.266  0.00  0.00    +0.005 A 
ATOM     26  C   UNL     1       4.095  -1.637  23.734  0.00  0.00    +0.000 A 
ATOM     27  C   UNL     1       5.564   0.266  23.499  0.00  0.00    +0.000 A 
ATOM     30  C   UNL     1       5.380  -1.096  23.734  0.00  0.00    +0.000 A 
ENDBRANCH  15  19
ENDBRANCH   2  15
ENDBRANCH   7   2
BRANCH  10  16
ATOM      6  O   UNL     1      -0.419   1.159  26.520  0.00  0.00    -0.249 OA
ATOM     16  C   UNL     1       0.216   2.136  26.148  0.00  0.00    +0.326 C 
BRANCH  16   5
ATOM      5  O   UNL     1       1.140   2.827  26.875  0.00  0.00    -0.467 OA
ATOM     25  C   UNL     1       1.142   2.559  28.281  0.00  0.00    +0.280 C 
ENDBRANCH  16   5
ENDBRANCH  10  16
BRANCH   8  17
ATOM     17  C   UNL     1      -5.052   1.643  24.348  0.00  0.00    +0.158 C 
BRANCH  17  20
ATOM      1 CL   UNL     1      -3.046  -3.942  25.356  0.00  0.00    -0.084 Cl
ATOM     20  C   UNL     1      -4.551   0.243  24.601  0.00  0.00    -0.028 A 
ATOM     23  C   UNL     1      -4.595  -0.709  23.583  0.00  0.00    +0.007 A 
ATOM     24  C   UNL     1      -4.041  -0.099  25.854  0.00  0.00    +0.007 A 
ATOM     28  C   UNL     1      -4.130  -2.003  23.816  0.00  0.00    +0.020 A 
ATOM     29  C   UNL     1      -3.577  -1.394  26.088  0.00  0.00    +0.020 A 
ATOM     31  C   UNL     1      -3.622  -2.346  25.069  0.00  0.00    +0.041 A 
ENDBRANCH  17  20
ENDBRANCH   8  17
TORSDOF 7
ENDMDL
MODEL 4
REMARK VINA RESULT:       1.1      2.292      3.709
REMARK  Name = 26745471
REMARK  8 active torsions:
REMARK  status: ('A' for Active; 'I' for Inactive)
REMARK    1  A    between atoms: S_2  and  N_7
REMARK    2  A    between atoms: S_2  and  C_15
REMARK    3  A    between atoms: O_5  and  C_16
REMARK    4  A    between atoms: O_5  and  C_25
REMARK    5  A    between atoms: N_8  and  C_17
REMARK    6  A    between atoms: C_10  and  C_16
REMARK    7  A    between atoms: C_15  and  C_19
REMARK    8  A    between atoms: C_17  and  C_20
REMARK                            x       y       z     vdW  Elec       q    Type
REMARK                         _______ _______ _______ _____ _____    ______ ____
ROOT
ATOM      7  N   UNL     1      -3.302   2.151  25.191  0.00  0.00    -0.161 NA
ATOM      8  N   UNL     1       0.324   1.490  24.554  0.00  0.00    -0.328 N 
ATOM      9  N   UNL     1       0.638   2.722  26.392  0.00  0.00    -0.240 NA
ATOM     10  C   UNL     1      -3.064   3.435  25.944  0.00  0.00    +0.194 C 
ATOM     11  C   UNL     1      -2.200   1.707  24.261  0.00  0.00    +0.165 C 
ATOM     12  C   UNL     1      -1.776   3.374  26.793  0.00  0.00    +0.089 C 
ATOM     13  C   UNL     1      -0.905   1.946  24.928  0.00  0.00    +0.057 A 
ATOM     14  C   UNL     1      -0.686   2.700  26.053  0.00  0.00    +0.066 A 
ATOM     18  C   UNL     1       1.222   1.985  25.468  0.00  0.00    +0.200 A 
ENDROOT
BRANCH   7   2
ATOM      2  S   UNL     1      -4.894   1.881  24.619  0.00  0.00    +0.037 S 
ATOM      3  O   UNL     1      -4.832   1.538  23.216  0.00  0.00    -0.158 OA
ATOM      4  O   UNL     1      -5.748   2.941  25.106  0.00  0.00    -0.158 OA
BRANCH   2  15
ATOM     15  C   UNL     1      -5.275   0.407  25.529  0.00  0.00    +0.220 C 
BRANCH  15  19
ATOM     19  C   UNL     1      -4.260  -0.631  25.162  0.00  0.00    -0.025 A 
ATOM     21  C   UNL     1      -3.123  -0.806  25.951  0.00  0.00    +0.005 A 
ATOM     22  C   UNL     1      -4.450  -1.423  24.029  0.00  0.00    +0.005 A 
ATOM     26  C   UNL     1      -2.178  -1.773  25.608  0.00  0.00    +0.000 A 
ATOM     27  C   UNL     1      -3.506  -2.390  23.687  0.00  0.00    +0.000 A 
ATOM     30  C   UNL     1      -2.369  -2.564  24.476  0.00  0.00    +0.000 A 
ENDBRANCH  15  19
ENDBRANCH   2  15
ENDBRANCH   7   2
BRANCH  10  16
ATOM      6  O   UNL     1      -3.732   4.620  23.960  0.00  0.00    -0.249 OA
ATOM     16  C   UNL     1      -3.041   4.570  24.969  0.00  0.00    +0.326 C 
BRANCH  16   5
ATOM      5  O   UNL     1      -2.146   5.510  25.386  0.00  0.00    -0.467 OA
ATOM     25  C   UNL     1      -0.967   5.634  24.584  0.00  0.00    +0.280 C 
ENDBRANCH  16   5
ENDBRANCH  10  16
BRANCH   8  17
ATOM     17  C   UNL     1       0.640   0.660  23.419  0.00  0.00    +0.158 C 
BRANCH  17  20
ATOM      1 CL   UNL     1       6.521  -0.508  22.884  0.00  0.00    -0.084 Cl
ATOM     20  C   UNL     1       2.114   0.366  23.284  0.00  0.00    -0.028 A 
ATOM     23  C   UNL     1       2.982   1.354  22.819  0.00  0.00    +0.007 A 
ATOM     24  C   UNL     1       2.608  -0.893  23.624  0.00  0.00    +0.007 A 
ATOM     28  C   UNL     1       4.345   1.084  22.696  0.00  0.00    +0.020 A 
ATOM     29  C   UNL     1       3.972  -1.164  23.499  0.00  0.00    +0.020 A 
ATOM     31  C   UNL     1       4.839  -0.175  23.035  0.00  0.00    +0.041 A 
ENDBRANCH  17  20
ENDBRANCH   8  17
TORSDOF 7
ENDMDL
MODEL 5
REMARK VINA RESULT:       1.9      3.361      6.143
REMARK  Name = 26745471
REMARK  8 active torsions:
REMARK  status: ('A' for Active; 'I' for Inactive)
REMARK    1  A    between atoms: S_2  and  N_7
REMARK    2  A    between atoms: S_2  and  C_15
REMARK    3  A    between atoms: O_5  and  C_16
REMARK    4  A    between atoms: O_5  and  C_25
REMARK    5  A    between atoms: N_8  and  C_17
REMARK    6  A    between atoms: C_10  and  C_16
REMARK    7  A    between atoms: C_15  and  C_19
REMARK    8  A    between atoms: C_17  and  C_20
REMARK                            x       y       z     vdW  Elec       q    Type
REMARK                         _______ _______ _______ _____ _____    ______ ____
ROOT
ATOM      7  N   UNL     1      -0.318   0.638  24.459  0.00  0.00    -0.161 NA
ATOM      8  N   UNL     1      -3.321  -1.575  24.179  0.00  0.00    -0.328 N 
ATOM      9  N   UNL     1      -2.009  -3.098  25.153  0.00  0.00    -0.240 NA
ATOM     10  C   UNL     1       0.673  -0.498  24.468  0.00  0.00    +0.194 C 
ATOM     11  C   UNL     1      -1.670   0.342  23.857  0.00  0.00    +0.165 C 
ATOM     12  C   UNL     1       0.125  -1.735  25.214  0.00  0.00    +0.089 C 
ATOM     13  C   UNL     1      -2.089  -1.004  24.295  0.00  0.00    +0.057 A 
ATOM     14  C   UNL     1      -1.302  -1.958  24.891  0.00  0.00    +0.066 A 
ATOM     18  C   UNL     1      -3.222  -2.837  24.710  0.00  0.00    +0.200 A 
ENDROOT
BRANCH   7   2
ATOM      2  S   UNL     1       0.306   2.197  24.124  0.00  0.00    +0.037 S 
ATOM      3  O   UNL     1      -0.641   2.908  23.294  0.00  0.00    -0.158 OA
ATOM      4  O   UNL     1       1.698   2.070  23.754  0.00  0.00    -0.158 OA
BRANCH   2  15
ATOM     15  C   UNL     1       0.233   2.888  25.756  0.00  0.00    +0.220 C 
BRANCH  15  19
ATOM     19  C   UNL     1      -0.920   3.843  25.796  0.00  0.00    -0.025 A 
ATOM     21  C   UNL     1      -2.031   3.564  26.590  0.00  0.00    +0.005 A 
ATOM     22  C   UNL     1      -0.883   5.013  25.036  0.00  0.00    +0.005 A 
ATOM     26  C   UNL     1      -3.105   4.455  26.626  0.00  0.00    +0.000 A 
ATOM     27  C   UNL     1      -1.955   5.903  25.072  0.00  0.00    +0.000 A 
ATOM     30  C   UNL     1      -3.066   5.624  25.867  0.00  0.00    +0.000 A 
ENDBRANCH  15  19
ENDBRANCH   2  15
ENDBRANCH   7   2
BRANCH  10  16
ATOM      6  O   UNL     1       0.252  -0.950  22.143  0.00  0.00    -0.249 OA
ATOM     16  C   UNL     1       1.055  -0.817  23.057  0.00  0.00    +0.326 C 
BRANCH  16   5
ATOM      5  O   UNL     1       2.411  -0.931  22.967  0.00  0.00    -0.467 OA
ATOM     25  C   UNL     1       3.066   0.102  22.224  0.00  0.00    +0.280 C 
ENDBRANCH  16   5
ENDBRANCH  10  16
BRANCH   8  17
ATOM     17  C   UNL     1      -4.505  -0.987  23.604  0.00  0.00    +0.158 C 
BRANCH  17  20
ATOM      1 CL   UNL     1      -5.827   4.433  25.866  0.00  0.00    -0.084 Cl
ATOM     20  C   UNL     1      -4.836   0.371  24.172  0.00  0.00    -0.028 A 
ATOM     23  C   UNL     1      -4.319   1.522  23.576  0.00  0.00    +0.007 A 
ATOM     24  C   UNL     1      -5.660   0.477  25.293  0.00  0.00    +0.007 A 
ATOM     28  C   UNL     1      -4.625   2.777  24.100  0.00  0.00    +0.020 A 
ATOM     29  C   UNL     1      -5.965   1.734  25.818  0.00  0.00    +0.020 A 
ATOM     31  C   UNL     1      -5.447   2.883  25.221  0.00  0.00    +0.041 A 
ENDBRANCH  17  20
ENDBRANCH   8  17
TORSDOF 7
ENDMDL
MODEL 6
REMARK VINA RESULT:       2.3      2.328      6.033
REMARK  Name = 26745471
REMARK  8 active torsions:
REMARK  status: ('A' for Active; 'I' for Inactive)
REMARK    1  A    between atoms: S_2  and  N_7
REMARK    2  A    between atoms: S_2  and  C_15
REMARK    3  A    between atoms: O_5  and  C_16
REMARK    4  A    between atoms: O_5  and  C_25
REMARK    5  A    between atoms: N_8  and  C_17
REMARK    6  A    between atoms: C_10  and  C_16
REMARK    7  A    between atoms: C_15  and  C_19
REMARK    8  A    between atoms: C_17  and  C_20
REMARK                            x       y       z     vdW  Elec       q    Type
REMARK                         _______ _______ _______ _____ _____    ______ ____
ROOT
ATOM      7  N   UNL     1      -1.658   2.411  24.170  0.00  0.00    -0.161 NA
ATOM      8  N   UNL     1      -4.843   0.665  25.062  0.00  0.00    -0.328 N 
ATOM      9  N   UNL     1      -5.815   2.499  24.237  0.00  0.00    -0.240 NA
ATOM     10  C   UNL     1      -2.246   3.796  24.258  0.00  0.00    +0.194 C 
ATOM     11  C   UNL     1      -2.384   1.326  24.927  0.00  0.00    +0.165 C 
ATOM     12  C   UNL     1      -3.711   3.831  23.772  0.00  0.00    +0.089 C 
ATOM     13  C   UNL     1      -3.835   1.527  24.749  0.00  0.00    +0.057 A 
ATOM     14  C   UNL     1      -4.456   2.644  24.249  0.00  0.00    +0.066 A 
ATOM     18  C   UNL     1      -6.018   1.296  24.735  0.00  0.00    +0.200 A 
ENDROOT
BRANCH   7   2
ATOM      2  S   UNL     1       0.052   2.301  24.194  0.00  0.00    +0.037 S 
ATOM      3  O   UNL     1       0.480   2.020  25.546  0.00  0.00    -0.158 OA
ATOM      4  O   UNL     1       0.598   3.404  23.436  0.00  0.00    -0.158 OA
BRANCH   2  15
ATOM     15  C   UNL     1       0.253   0.822  23.234  0.00  0.00    +0.220 C 
BRANCH  15  19
ATOM     19  C   UNL     1       1.717   0.514  23.173  0.00  0.00    -0.025 A 
ATOM     21  C   UNL     1       2.169  -0.783  23.414  0.00  0.00    +0.005 A 
ATOM     22  C   UNL     1       2.631   1.526  22.877  0.00  0.00    +0.005 A 
ATOM     26  C   UNL     1       3.534  -1.069  23.357  0.00  0.00    +0.000 A 
ATOM     27  C   UNL     1       3.994   1.241  22.820  0.00  0.00    +0.000 A 
ATOM     30  C   UNL     1       4.446  -0.057  23.061  0.00  0.00    +0.000 A 
ENDBRANCH  15  19
ENDBRANCH   2  15
ENDBRANCH   7   2
BRANCH  10  16
ATOM      6  O   UNL     1      -2.381   3.624  26.654  0.00  0.00    -0.249 OA
ATOM     16  C   UNL     1      -2.109   4.290  25.664  0.00  0.00    +0.326 C 
BRANCH  16   5
ATOM      5  O   UNL     1      -1.641   5.571  25.653  0.00  0.00    -0.467 OA
ATOM     25  C   UNL     1      -0.761   5.895  24.572  0.00  0.00    +0.280 C 
ENDBRANCH  16   5
ENDBRANCH  10  16
BRANCH   8  17
ATOM     17  C   UNL     1      -4.719  -0.653  25.635  0.00  0.00    +0.158 C 
BRANCH  17  20
ATOM      1 CL   UNL     1       0.864  -2.880  25.307  0.00  0.00    -0.084 Cl
ATOM     20  C   UNL     1      -3.320  -1.212  25.554  0.00  0.00    -0.028 A 
ATOM     23  C   UNL     1      -2.990  -2.124  24.552  0.00  0.00    +0.007 A 
ATOM     24  C   UNL     1      -2.355  -0.815  26.481  0.00  0.00    +0.007 A 
ATOM     28  C   UNL     1      -1.697  -2.640  24.476  0.00  0.00    +0.020 A 
ATOM     29  C   UNL     1      -1.062  -1.333  26.405  0.00  0.00    +0.020 A 
ATOM     31  C   UNL     1      -0.733  -2.245  25.402  0.00  0.00    +0.041 A 
ENDBRANCH  17  20
ENDBRANCH   8  17
TORSDOF 7
ENDMDL
MODEL 7
REMARK VINA RESULT:       3.0      3.076      6.643
REMARK  Name = 26745471
REMARK  8 active torsions:
REMARK  status: ('A' for Active; 'I' for Inactive)
REMARK    1  A    between atoms: S_2  and  N_7
REMARK    2  A    between atoms: S_2  and  C_15
REMARK    3  A    between atoms: O_5  and  C_16
REMARK    4  A    between atoms: O_5  and  C_25
REMARK    5  A    between atoms: N_8  and  C_17
REMARK    6  A    between atoms: C_10  and  C_16
REMARK    7  A    between atoms: C_15  and  C_19
REMARK    8  A    between atoms: C_17  and  C_20
REMARK                            x       y       z     vdW  Elec       q    Type
REMARK                         _______ _______ _______ _____ _____    ______ ____
ROOT
ATOM      7  N   UNL     1      -0.726   0.748  25.068  0.00  0.00    -0.161 NA
ATOM      8  N   UNL     1      -3.771  -1.297  24.333  0.00  0.00    -0.328 N 
ATOM      9  N   UNL     1      -2.412  -3.035  24.688  0.00  0.00    -0.240 NA
ATOM     10  C   UNL     1       0.247  -0.324  24.652  0.00  0.00    +0.194 C 
ATOM     11  C   UNL     1      -2.122   0.641  24.503  0.00  0.00    +0.165 C 
ATOM     12  C   UNL     1      -0.262  -1.737  25.014  0.00  0.00    +0.089 C 
ATOM     13  C   UNL     1      -2.526  -0.778  24.531  0.00  0.00    +0.057 A 
ATOM     14  C   UNL     1      -1.711  -1.862  24.743  0.00  0.00    +0.066 A 
ATOM     18  C   UNL     1      -3.651  -2.661  24.437  0.00  0.00    +0.200 A 
ENDROOT
BRANCH   7   2
ATOM      2  S   UNL     1      -0.108   2.341  25.189  0.00  0.00    +0.037 S 
ATOM      3  O   UNL     1      -0.765   3.171  24.204  0.00  0.00    -0.158 OA
ATOM      4  O   UNL     1       1.333   2.272  25.288  0.00  0.00    -0.158 OA
BRANCH   2  15
ATOM     15  C   UNL     1      -0.747   2.772  26.787  0.00  0.00    +0.220 C 
BRANCH  15  19
ATOM     19  C   UNL     1       0.387   2.718  27.762  0.00  0.00    -0.025 A 
ATOM     21  C   UNL     1       0.160   2.308  29.076  0.00  0.00    +0.005 A 
ATOM     22  C   UNL     1       1.673   3.078  27.358  0.00  0.00    +0.005 A 
ATOM     26  C   UNL     1       1.219   2.258  29.984  0.00  0.00    +0.000 A 
ATOM     27  C   UNL     1       2.730   3.028  28.265  0.00  0.00    +0.000 A 
ATOM     30  C   UNL     1       2.503   2.618  29.578  0.00  0.00    +0.000 A 
ENDBRANCH  15  19
ENDBRANCH   2  15
ENDBRANCH   7   2
BRANCH  10  16
ATOM      6  O   UNL     1      -0.275   0.274  22.381  0.00  0.00    -0.249 OA
ATOM     16  C   UNL     1       0.522  -0.185  23.188  0.00  0.00    +0.326 C 
BRANCH  16   5
ATOM      5  O   UNL     1       1.777  -0.644  22.915  0.00  0.00    -0.467 OA
ATOM     25  C   UNL     1       2.761   0.367  22.671  0.00  0.00    +0.280 C 
ENDBRANCH  16   5
ENDBRANCH  10  16
BRANCH   8  17
ATOM     17  C   UNL     1      -4.986  -0.571  24.056  0.00  0.00    +0.158 C 
BRANCH  17  20
ATOM      1 CL   UNL     1      -4.790   5.174  25.845  0.00  0.00    -0.084 Cl
ATOM     20  C   UNL     1      -4.938   0.869  24.503  0.00  0.00    -0.028 A 
ATOM     23  C   UNL     1      -5.570   1.254  25.686  0.00  0.00    +0.007 A 
ATOM     24  C   UNL     1      -4.260   1.816  23.735  0.00  0.00    +0.007 A 
ATOM     28  C   UNL     1      -5.525   2.585  26.100  0.00  0.00    +0.020 A 
ATOM     29  C   UNL     1      -4.215   3.148  24.149  0.00  0.00    +0.020 A 
ATOM     31  C   UNL     1      -4.848   3.531  25.332  0.00  0.00    +0.041 A 
ENDBRANCH  17  20
ENDBRANCH   8  17
TORSDOF 7
ENDMDL
MODEL 8
REMARK VINA RESULT:       3.2      3.127      5.137
REMARK  Name = 26745471
REMARK  8 active torsions:
REMARK  status: ('A' for Active; 'I' for Inactive)
REMARK    1  A    between atoms: S_2  and  N_7
REMARK    2  A    between atoms: S_2  and  C_15
REMARK    3  A    between atoms: O_5  and  C_16
REMARK    4  A    between atoms: O_5  and  C_25
REMARK    5  A    between atoms: N_8  and  C_17
REMARK    6  A    between atoms: C_10  and  C_16
REMARK    7  A    between atoms: C_15  and  C_19
REMARK    8  A    between atoms: C_17  and  C_20
REMARK                            x       y       z     vdW  Elec       q    Type
REMARK                         _______ _______ _______ _____ _____    ______ ____
ROOT
ATOM      7  N   UNL     1      -4.258   2.680  25.083  0.00  0.00    -0.161 NA
ATOM      8  N   UNL     1      -0.627   3.435  25.573  0.00  0.00    -0.328 N 
ATOM      9  N   UNL     1      -1.235   5.536  25.117  0.00  0.00    -0.240 NA
ATOM     10  C   UNL     1      -4.508   3.857  24.176  0.00  0.00    +0.194 C 
ATOM     11  C   UNL     1      -2.828   2.207  25.187  0.00  0.00    +0.165 C 
ATOM     12  C   UNL     1      -3.670   5.088  24.585  0.00  0.00    +0.089 C 
ATOM     13  C   UNL     1      -1.950   3.392  25.250  0.00  0.00    +0.057 A 
ATOM     14  C   UNL     1      -2.298   4.690  24.972  0.00  0.00    +0.066 A 
ATOM     18  C   UNL     1      -0.241   4.750  25.478  0.00  0.00    +0.200 A 
ENDROOT
BRANCH   7   2
ATOM      2  S   UNL     1      -5.439   1.440  25.075  0.00  0.00    +0.037 S 
ATOM      3  O   UNL     1      -6.693   1.996  24.618  0.00  0.00    -0.158 OA
ATOM      4  O   UNL     1      -5.341   0.698  26.313  0.00  0.00    -0.158 OA
BRANCH   2  15
ATOM     15  C   UNL     1      -4.779   0.429  23.776  0.00  0.00    +0.220 C 
BRANCH  15  19
ATOM     19  C   UNL     1      -4.173  -0.787  24.406  0.00  0.00    -0.025 A 
ATOM     21  C   UNL     1      -4.234  -2.017  23.752  0.00  0.00    +0.005 A 
ATOM     22  C   UNL     1      -3.547  -0.689  25.650  0.00  0.00    +0.005 A 
ATOM     26  C   UNL     1      -3.669  -3.149  24.342  0.00  0.00    +0.000 A 
ATOM     27  C   UNL     1      -2.983  -1.819  26.238  0.00  0.00    +0.000 A 
ATOM     30  C   UNL     1      -3.044  -3.050  25.584  0.00  0.00    +0.000 A 
ENDBRANCH  15  19
ENDBRANCH   2  15
ENDBRANCH   7   2
BRANCH  10  16
ATOM      6  O   UNL     1      -4.678   4.033  21.784  0.00  0.00    -0.249 OA
ATOM     16  C   UNL     1      -4.244   3.442  22.763  0.00  0.00    +0.326 C 
BRANCH  16   5
ATOM      5  O   UNL     1      -3.459   2.327  22.755  0.00  0.00    -0.467 OA
ATOM     25  C   UNL     1      -2.493   2.264  21.701  0.00  0.00    +0.280 C 
ENDBRANCH  16   5
ENDBRANCH  10  16
BRANCH   8  17
ATOM     17  C   UNL     1       0.221   2.326  25.935  0.00  0.00    +0.158 C 
BRANCH  17  20
ATOM      1 CL   UNL     1       1.434  -1.363  21.335  0.00  0.00    -0.084 Cl
ATOM     20  C   UNL     1       0.524   1.402  24.782  0.00  0.00    -0.028 A 
ATOM     23  C   UNL     1       1.587   1.683  23.923  0.00  0.00    +0.007 A 
ATOM     24  C   UNL     1      -0.259   0.266  24.574  0.00  0.00    +0.007 A 
ATOM     28  C   UNL     1       1.868   0.829  22.857  0.00  0.00    +0.020 A 
ATOM     29  C   UNL     1       0.022  -0.589  23.507  0.00  0.00    +0.020 A 
ATOM     31  C   UNL     1       1.086  -0.307  22.649  0.00  0.00    +0.041 A 
ENDBRANCH  17  20
ENDBRANCH   8  17
TORSDOF 7
ENDMDL
MODEL 9
REMARK VINA RESULT:       3.2      3.903      6.828
REMARK  Name = 26745471
REMARK  8 active torsions:
REMARK  status: ('A' for Active; 'I' for Inactive)
REMARK    1  A    between atoms: S_2  and  N_7
REMARK    2  A    between atoms: S_2  and  C_15
REMARK    3  A    between atoms: O_5  and  C_16
REMARK    4  A    between atoms: O_5  and  C_25
REMARK    5  A    between atoms: N_8  and  C_17
REMARK    6  A    between atoms: C_10  and  C_16
REMARK    7  A    between atoms: C_15  and  C_19
REMARK    8  A    between atoms: C_17  and  C_20
REMARK                            x       y       z     vdW  Elec       q    Type
REMARK                         _______ _______ _______ _____ _____    ______ ____
ROOT
ATOM      7  N   UNL     1      -0.272   1.939  24.022  0.00  0.00    -0.161 NA
ATOM      8  N   UNL     1      -3.008   4.490  24.093  0.00  0.00    -0.328 N 
ATOM      9  N   UNL     1      -1.393   5.872  24.782  0.00  0.00    -0.240 NA
ATOM     10  C   UNL     1       0.572   2.635  25.059  0.00  0.00    +0.194 C 
ATOM     11  C   UNL     1      -1.743   2.277  24.022  0.00  0.00    +0.165 C 
ATOM     12  C   UNL     1       0.477   4.172  24.943  0.00  0.00    +0.089 C 
ATOM     13  C   UNL     1      -1.887   3.729  24.243  0.00  0.00    +0.057 A 
ATOM     14  C   UNL     1      -0.914   4.597  24.669  0.00  0.00    +0.066 A 
ATOM     18  C   UNL     1      -2.659   5.775  24.429  0.00  0.00    +0.200 A 
ENDROOT
BRANCH   7   2
ATOM      2  S   UNL     1       0.102   0.299  23.702  0.00  0.00    +0.037 S 
ATOM      3  O   UNL     1       1.537   0.131  23.756  0.00  0.00    -0.158 OA
ATOM      4  O   UNL     1      -0.673  -0.139  22.563  0.00  0.00    -0.158 OA
BRANCH   2  15
ATOM     15  C   UNL     1      -0.594  -0.439  25.157  0.00  0.00    +0.220 C 
BRANCH  15  19
ATOM     19  C   UNL     1      -1.834  -1.173  24.748  0.00  0.00    -0.025 A 
ATOM     21  C   UNL     1      -3.042  -0.487  24.624  0.00  0.00    +0.005 A 
ATOM     22  C   UNL     1      -1.781  -2.544  24.492  0.00  0.00    +0.005 A 
ATOM     26  C   UNL     1      -4.196  -1.173  24.243  0.00  0.00    +0.000 A 
ATOM     27  C   UNL     1      -2.934  -3.227  24.112  0.00  0.00    +0.000 A 
ATOM     30  C   UNL     1      -4.142  -2.542  23.988  0.00  0.00    +0.000 A 
ENDBRANCH  15  19
ENDBRANCH   2  15
ENDBRANCH   7   2
BRANCH  10  16
ATOM      6  O   UNL     1      -0.897   1.600  26.658  0.00  0.00    -0.249 OA
ATOM     16  C   UNL     1       0.170   2.148  26.415  0.00  0.00    +0.326 C 
BRANCH  16   5
ATOM      5  O   UNL     1       1.167   2.411  27.308  0.00  0.00    -0.467 OA
ATOM     25  C   UNL     1       0.785   2.370  28.686  0.00  0.00    +0.280 C 
ENDBRANCH  16   5
ENDBRANCH  10  16
BRANCH   8  17
ATOM     17  C   UNL     1      -4.314   4.048  23.673  0.00  0.00    +0.158 C 
BRANCH  17  20
ATOM      1 CL   UNL     1      -7.172   0.764  27.830  0.00  0.00    -0.084 Cl
ATOM     20  C   UNL     1      -5.032   3.226  24.715  0.00  0.00    -0.028 A 
ATOM     23  C   UNL     1      -5.683   2.048  24.348  0.00  0.00    +0.007 A 
ATOM     24  C   UNL     1      -5.042   3.643  26.046  0.00  0.00    +0.007 A 
ATOM     28  C   UNL     1      -6.345   1.288  25.311  0.00  0.00    +0.020 A 
ATOM     29  C   UNL     1      -5.706   2.882  27.010  0.00  0.00    +0.020 A 
ATOM     31  C   UNL     1      -6.357   1.704  26.641  0.00  0.00    +0.041 A 
ENDBRANCH  17  20
ENDBRANCH   8  17
TORSDOF 7
ENDMDL
MODEL 10
REMARK VINA RESULT:       3.3      3.743      6.939
REMARK  Name = 26745471
REMARK  8 active torsions:
REMARK  status: ('A' for Active; 'I' for Inactive)
REMARK    1  A    between atoms: S_2  and  N_7
REMARK    2  A    between atoms: S_2  and  C_15
REMARK    3  A    between atoms: O_5  and  C_16
REMARK    4  A    between atoms: O_5  and  C_25
REMARK    5  A    between atoms: N_8  and  C_17
REMARK    6  A    between atoms: C_10  and  C_16
REMARK    7  A    between atoms: C_15  and  C_19
REMARK    8  A    between atoms: C_17  and  C_20
REMARK                            x       y       z     vdW  Elec       q    Type
REMARK                         _______ _______ _______ _____ _____    ______ ____
ROOT
ATOM      7  N   UNL     1      -1.182   0.163  24.532  0.00  0.00    -0.161 NA
ATOM      8  N   UNL     1      -3.004   2.941  22.813  0.00  0.00    -0.328 N 
ATOM      9  N   UNL     1      -2.311   1.934  20.942  0.00  0.00    -0.240 NA
ATOM     10  C   UNL     1      -0.226  -0.082  23.394  0.00  0.00    +0.194 C 
ATOM     11  C   UNL     1      -1.832   1.525  24.580  0.00  0.00    +0.165 C 
ATOM     12  C   UNL     1      -0.900   0.128  22.020  0.00  0.00    +0.089 C 
ATOM     13  C   UNL     1      -2.203   1.911  23.205  0.00  0.00    +0.057 A 
ATOM     14  C   UNL     1      -1.788   1.312  22.041  0.00  0.00    +0.066 A 
ATOM     18  C   UNL     1      -3.039   2.914  21.440  0.00  0.00    +0.200 A 
ENDROOT
BRANCH   7   2
ATOM      2  S   UNL     1      -0.748  -0.493  26.054  0.00  0.00    +0.037 S 
ATOM      3  O   UNL     1      -0.253   0.573  26.895  0.00  0.00    -0.158 OA
ATOM      4  O   UNL     1       0.010  -1.706  25.836  0.00  0.00    -0.158 OA
BRANCH   2  15
ATOM     15  C   UNL     1      -2.360  -0.950  26.635  0.00  0.00    +0.220 C 
BRANCH  15  19
ATOM     19  C   UNL     1      -3.102  -1.565  25.489  0.00  0.00    -0.025 A 
ATOM     21  C   UNL     1      -4.027  -0.809  24.770  0.00  0.00    +0.005 A 
ATOM     22  C   UNL     1      -2.868  -2.896  25.140  0.00  0.00    +0.005 A 
ATOM     26  C   UNL     1      -4.718  -1.384  23.702  0.00  0.00    +0.000 A 
ATOM     27  C   UNL     1      -3.557  -3.469  24.073  0.00  0.00    +0.000 A 
ATOM     30  C   UNL     1      -4.483  -2.713  23.354  0.00  0.00    +0.000 A 
ENDBRANCH  15  19
ENDBRANCH   2  15
ENDBRANCH   7   2
BRANCH  10  16
ATOM      6  O   UNL     1       0.976   1.822  24.239  0.00  0.00    -0.249 OA
ATOM     16  C   UNL     1       0.972   0.797  23.571  0.00  0.00    +0.326 C 
BRANCH  16   5
ATOM      5  O   UNL     1       2.026   0.275  22.883  0.00  0.00    -0.467 OA
ATOM     25  C   UNL     1       3.229   1.049  22.921  0.00  0.00    +0.280 C 
ENDBRANCH  16   5
ENDBRANCH  10  16
BRANCH   8  17
ATOM     17  C   UNL     1      -3.683   3.890  23.660  0.00  0.00    +0.158 C 
BRANCH  17  20
ATOM      1 CL   UNL     1      -7.296   1.302  27.721  0.00  0.00    -0.084 Cl
ATOM     20  C   UNL     1      -4.589   3.243  24.678  0.00  0.00    -0.028 A 
ATOM     23  C   UNL     1      -5.480   2.244  24.284  0.00  0.00    +0.007 A 
ATOM     24  C   UNL     1      -4.536   3.642  26.014  0.00  0.00    +0.007 A 
ATOM     28  C   UNL     1      -6.317   1.644  25.225  0.00  0.00    +0.020 A 
ATOM     29  C   UNL     1      -5.374   3.043  26.955  0.00  0.00    +0.020 A 
ATOM     31  C   UNL     1      -6.264   2.044  26.560  0.00  0.00    +0.041 A 
ENDBRANCH  17  20
ENDBRANCH   8  17
TORSDOF 7
ENDMDL
