MODEL 1
REMARK VINA RESULT:       0.5      0.000      0.000
REMARK  Name = 40779311
REMARK  10 active torsions:
REMARK  status: ('A' for Active; 'I' for Inactive)
REMARK    1  A    between atoms: O_2  and  C_29
REMARK    2  A    between atoms: N_6  and  C_16
REMARK    3  A    between atoms: N_7  and  C_28
REMARK    4  A    between atoms: C_10  and  C_17
REMARK    5  A    between atoms: C_11  and  C_16
REMARK    6  A    between atoms: C_18  and  C_21
REMARK    7  A    between atoms: C_18  and  C_24
REMARK    8  A    between atoms: C_21  and  C_26
REMARK    9  A    between atoms: C_24  and  C_29
REMARK   10  A    between atoms: C_27  and  C_30
REMARK                            x       y       z     vdW  Elec       q    Type
REMARK                         _______ _______ _______ _____ _____    ______ ____
ROOT
ATOM      5  N   UNL     1      -4.589   4.254  24.578  0.00  0.00    -0.297 NA
ATOM      9  C   UNL     1      -2.923   3.758  26.520  0.00  0.00    +0.002 C 
ATOM     10  C   UNL     1      -2.165   4.079  25.205  0.00  0.00    +0.055 C 
ATOM     11  C   UNL     1      -4.960   2.984  25.258  0.00  0.00    +0.074 C 
ATOM     12  C   UNL     1      -3.880   2.572  26.284  0.00  0.00    +0.024 C 
ATOM     13  C   UNL     1      -3.799   4.988  26.833  0.00  0.00    +0.019 C 
ATOM     14  C   UNL     1      -3.201   4.170  24.054  0.00  0.00    +0.094 C 
ATOM     15  C   UNL     1      -4.639   5.339  25.590  0.00  0.00    +0.085 C 
ENDROOT
BRANCH  10  17
ATOM      7  N   UNL     1      -0.181   2.710  25.991  0.00  0.00    -0.270 N 
ATOM      8  N   UNL     1       0.831   1.929  25.579  0.00  0.00    -0.168 NA
ATOM     17  C   UNL     1      -0.964   3.177  24.977  0.00  0.00    +0.044 A 
ATOM     25  C   UNL     1      -0.427   2.666  23.821  0.00  0.00    +0.056 A 
ATOM     27  C   UNL     1       0.677   1.906  24.253  0.00  0.00    +0.128 A 
ATOM     28  C   UNL     1      -0.341   2.971  27.403  0.00  0.00    +0.172 C 
BRANCH  27  30
ATOM      4  O   UNL     1       2.911   1.426  23.224  0.00  0.00    -0.461 OA
ATOM     30  C   UNL     1       1.590   1.148  23.378  0.00  0.00    +0.155 A 
ATOM     31  C   UNL     1       1.231   0.067  22.607  0.00  0.00    +0.051 A 
ATOM     32  C   UNL     1       2.407  -0.346  21.936  0.00  0.00    +0.042 A 
ATOM     33  C   UNL     1       3.401   0.513  22.346  0.00  0.00    +0.196 A 
ENDBRANCH  27  30
ENDBRANCH  10  17
BRANCH  11  16
ATOM     16  C   UNL     1      -5.273   1.861  24.268  0.00  0.00    +0.123 C 
BRANCH  16   6
ATOM      1  O   UNL     1      -3.117   1.562  22.362  0.00  0.00    -0.276 OA
ATOM      6  N   UNL     1      -4.242   0.870  24.276  0.00  0.00    -0.314 N 
ATOM     26  C   UNL     1      -3.234   0.796  23.315  0.00  0.00    +0.214 C 
ATOM     34  H   UNL     1      -4.282   0.160  25.002  0.00  0.00    +0.149 HD
BRANCH  26  21
ATOM     21  C   UNL     1      -2.279  -0.354  23.579  0.00  0.00    +0.103 C 
BRANCH  21  18
ATOM     18  C   UNL     1      -2.871  -1.404  24.531  0.00  0.00    -0.011 C 
ATOM     19  C   UNL     1      -4.406  -1.484  24.368  0.00  0.00    +0.008 C 
ATOM     20  C   UNL     1      -2.351  -2.815  24.164  0.00  0.00    +0.008 C 
ATOM     22  C   UNL     1      -4.652  -2.733  23.535  0.00  0.00    +0.001 C 
ATOM     23  C   UNL     1      -3.591  -3.692  24.037  0.00  0.00    +0.001 C 
BRANCH  18  24
ATOM     24  C   UNL     1      -2.501  -1.039  25.973  0.00  0.00    +0.127 C 
BRANCH  24  29
ATOM      3  O   UNL     1      -0.180  -1.597  25.477  0.00  0.00    -0.251 OA
ATOM     29  C   UNL     1      -1.013  -1.032  26.170  0.00  0.00    +0.305 C 
BRANCH  29   2
ATOM      2  O   UNL     1      -0.706  -0.286  27.261  0.00  0.00    -0.481 OA
ATOM     35  H   UNL     1      -1.427   0.336  27.495  0.00  0.00    +0.295 HD
ENDBRANCH  29   2
ENDBRANCH  24  29
ENDBRANCH  18  24
ENDBRANCH  21  18
ENDBRANCH  26  21
ENDBRANCH  16   6
ENDBRANCH  11  16
TORSDOF 9
ENDMDL
MODEL 2
REMARK VINA RESULT:       0.8      1.906      5.187
REMARK  Name = 40779311
REMARK  10 active torsions:
REMARK  status: ('A' for Active; 'I' for Inactive)
REMARK    1  A    between atoms: O_2  and  C_29
REMARK    2  A    between atoms: N_6  and  C_16
REMARK    3  A    between atoms: N_7  and  C_28
REMARK    4  A    between atoms: C_10  and  C_17
REMARK    5  A    between atoms: C_11  and  C_16
REMARK    6  A    between atoms: C_18  and  C_21
REMARK    7  A    between atoms: C_18  and  C_24
REMARK    8  A    between atoms: C_21  and  C_26
REMARK    9  A    between atoms: C_24  and  C_29
REMARK   10  A    between atoms: C_27  and  C_30
REMARK                            x       y       z     vdW  Elec       q    Type
REMARK                         _______ _______ _______ _____ _____    ______ ____
ROOT
ATOM      5  N   UNL     1      -3.635  -1.990  25.853  0.00  0.00    -0.297 NA
ATOM      9  C   UNL     1      -2.882  -1.905  23.360  0.00  0.00    +0.002 C 
ATOM     10  C   UNL     1      -1.658  -1.996  24.308  0.00  0.00    +0.055 C 
ATOM     11  C   UNL     1      -4.303  -0.859  25.156  0.00  0.00    +0.074 C 
ATOM     12  C   UNL     1      -3.730  -0.671  23.733  0.00  0.00    +0.024 C 
ATOM     13  C   UNL     1      -3.749  -3.148  23.640  0.00  0.00    +0.019 C 
ATOM     14  C   UNL     1      -2.158  -1.846  25.767  0.00  0.00    +0.094 C 
ATOM     15  C   UNL     1      -4.021  -3.242  25.154  0.00  0.00    +0.085 C 
ENDROOT
BRANCH  10  17
ATOM      7  N   UNL     1      -0.692   0.126  23.309  0.00  0.00    -0.270 N 
ATOM      8  N   UNL     1       0.452   0.760  23.004  0.00  0.00    -0.168 NA
ATOM     17  C   UNL     1      -0.509  -1.099  23.881  0.00  0.00    +0.044 A 
ATOM     25  C   UNL     1       0.851  -1.278  23.956  0.00  0.00    +0.056 A 
ATOM     27  C   UNL     1       1.391  -0.103  23.400  0.00  0.00    +0.128 A 
ATOM     28  C   UNL     1      -1.954   0.767  23.018  0.00  0.00    +0.172 C 
BRANCH  27  30
ATOM      4  O   UNL     1       3.328   1.402  22.886  0.00  0.00    -0.461 OA
ATOM     30  C   UNL     1       2.829   0.193  23.253  0.00  0.00    +0.155 A 
ATOM     31  C   UNL     1       3.847  -0.706  23.467  0.00  0.00    +0.051 A 
ATOM     32  C   UNL     1       5.050  -0.006  23.215  0.00  0.00    +0.042 A 
ATOM     33  C   UNL     1       4.680   1.273  22.864  0.00  0.00    +0.196 A 
ENDBRANCH  27  30
ENDBRANCH  10  17
BRANCH  11  16
ATOM     16  C   UNL     1      -4.262   0.435  25.969  0.00  0.00    +0.123 C 
BRANCH  16   6
ATOM      1  O   UNL     1      -5.037   3.221  25.873  0.00  0.00    -0.276 OA
ATOM      6  N   UNL     1      -3.631   1.485  25.229  0.00  0.00    -0.314 N 
ATOM     26  C   UNL     1      -4.071   2.808  25.239  0.00  0.00    +0.214 C 
ATOM     34  H   UNL     1      -2.848   1.231  24.634  0.00  0.00    +0.149 HD
BRANCH  26  21
ATOM     21  C   UNL     1      -3.209   3.700  24.364  0.00  0.00    +0.103 C 
BRANCH  21  18
ATOM     18  C   UNL     1      -1.834   3.983  24.986  0.00  0.00    -0.011 C 
ATOM     19  C   UNL     1      -0.702   3.600  24.005  0.00  0.00    +0.008 C 
ATOM     20  C   UNL     1      -1.658   5.501  25.233  0.00  0.00    +0.008 C 
ATOM     22  C   UNL     1      -0.224   4.919  23.415  0.00  0.00    +0.001 C 
ATOM     23  C   UNL     1      -0.328   5.873  24.589  0.00  0.00    +0.001 C 
BRANCH  18  24
ATOM     24  C   UNL     1      -1.702   3.194  26.293  0.00  0.00    +0.127 C 
BRANCH  24  29
ATOM      3  O   UNL     1       0.708   2.881  26.482  0.00  0.00    -0.251 OA
ATOM     29  C   UNL     1      -0.415   2.423  26.339  0.00  0.00    +0.305 C 
BRANCH  29   2
ATOM      2  O   UNL     1      -0.677   1.099  26.195  0.00  0.00    -0.481 OA
ATOM     35  H   UNL     1      -0.292   0.568  26.925  0.00  0.00    +0.295 HD
ENDBRANCH  29   2
ENDBRANCH  24  29
ENDBRANCH  18  24
ENDBRANCH  21  18
ENDBRANCH  26  21
ENDBRANCH  16   6
ENDBRANCH  11  16
TORSDOF 9
ENDMDL
MODEL 3
REMARK VINA RESULT:       0.9      1.206      2.054
REMARK  Name = 40779311
REMARK  10 active torsions:
REMARK  status: ('A' for Active; 'I' for Inactive)
REMARK    1  A    between atoms: O_2  and  C_29
REMARK    2  A    between atoms: N_6  and  C_16
REMARK    3  A    between atoms: N_7  and  C_28
REMARK    4  A    between atoms: C_10  and  C_17
REMARK    5  A    between atoms: C_11  and  C_16
REMARK    6  A    between atoms: C_18  and  C_21
REMARK    7  A    between atoms: C_18  and  C_24
REMARK    8  A    between atoms: C_21  and  C_26
REMARK    9  A    between atoms: C_24  and  C_29
REMARK   10  A    between atoms: C_27  and  C_30
REMARK                            x       y       z     vdW  Elec       q    Type
REMARK                         _______ _______ _______ _____ _____    ______ ____
ROOT
ATOM      5  N   UNL     1      -4.510   4.308  24.604  0.00  0.00    -0.297 NA
ATOM      9  C   UNL     1      -2.867   3.754  26.549  0.00  0.00    +0.002 C 
ATOM     10  C   UNL     1      -2.094   4.101  25.249  0.00  0.00    +0.055 C 
ATOM     11  C   UNL     1      -4.896   3.025  25.249  0.00  0.00    +0.074 C 
ATOM     12  C   UNL     1      -3.829   2.580  26.275  0.00  0.00    +0.024 C 
ATOM     13  C   UNL     1      -3.737   4.982  26.884  0.00  0.00    +0.019 C 
ATOM     14  C   UNL     1      -3.118   4.228  24.092  0.00  0.00    +0.094 C 
ATOM     15  C   UNL     1      -4.563   5.369  25.642  0.00  0.00    +0.085 C 
ENDROOT
BRANCH  10  17
ATOM      7  N   UNL     1      -0.138   2.685  26.021  0.00  0.00    -0.270 N 
ATOM      8  N   UNL     1       0.875   1.910  25.600  0.00  0.00    -0.168 NA
ATOM     17  C   UNL     1      -0.897   3.197  25.011  0.00  0.00    +0.044 A 
ATOM     25  C   UNL     1      -0.341   2.724  23.847  0.00  0.00    +0.056 A 
ATOM     27  C   UNL     1       0.747   1.938  24.271  0.00  0.00    +0.128 A 
ATOM     28  C   UNL     1      -0.323   2.895  27.439  0.00  0.00    +0.172 C 
BRANCH  27  30
ATOM      4  O   UNL     1       2.979   1.523  23.211  0.00  0.00    -0.461 OA
ATOM     30  C   UNL     1       1.670   1.204  23.386  0.00  0.00    +0.155 A 
ATOM     31  C   UNL     1       1.334   0.109  22.626  0.00  0.00    +0.051 A 
ATOM     32  C   UNL     1       2.512  -0.271  21.940  0.00  0.00    +0.042 A 
ATOM     33  C   UNL     1       3.484   0.621  22.330  0.00  0.00    +0.196 A 
ENDBRANCH  27  30
ENDBRANCH  10  17
BRANCH  11  16
ATOM     16  C   UNL     1      -5.208   1.928  24.229  0.00  0.00    +0.123 C 
BRANCH  16   6
ATOM      1  O   UNL     1      -3.170   1.872  22.176  0.00  0.00    -0.276 OA
ATOM      6  N   UNL     1      -4.117   1.010  24.117  0.00  0.00    -0.314 N 
ATOM     26  C   UNL     1      -3.174   1.053  23.090  0.00  0.00    +0.214 C 
ATOM     34  H   UNL     1      -4.062   0.263  24.804  0.00  0.00    +0.149 HD
BRANCH  26  21
ATOM     21  C   UNL     1      -2.131  -0.041  23.229  0.00  0.00    +0.103 C 
BRANCH  21  18
ATOM     18  C   UNL     1      -2.335  -0.893  24.490  0.00  0.00    -0.011 C 
ATOM     19  C   UNL     1      -1.423  -2.141  24.460  0.00  0.00    +0.008 C 
ATOM     20  C   UNL     1      -1.898  -0.103  25.749  0.00  0.00    +0.008 C 
ATOM     22  C   UNL     1      -0.269  -1.812  25.394  0.00  0.00    +0.001 C 
ATOM     23  C   UNL     1      -0.941  -1.021  26.500  0.00  0.00    +0.001 C 
BRANCH  18  24
ATOM     24  C   UNL     1      -3.809  -1.305  24.585  0.00  0.00    +0.127 C 
BRANCH  24  29
ATOM      3  O   UNL     1      -3.611  -3.693  25.036  0.00  0.00    -0.251 OA
ATOM     29  C   UNL     1      -3.982  -2.773  24.324  0.00  0.00    +0.305 C 
BRANCH  29   2
ATOM      2  O   UNL     1      -4.633  -2.947  23.145  0.00  0.00    -0.481 OA
ATOM     35  H   UNL     1      -5.588  -3.129  23.277  0.00  0.00    +0.295 HD
ENDBRANCH  29   2
ENDBRANCH  24  29
ENDBRANCH  18  24
ENDBRANCH  21  18
ENDBRANCH  26  21
ENDBRANCH  16   6
ENDBRANCH  11  16
TORSDOF 9
ENDMDL
MODEL 4
REMARK VINA RESULT:       1.0      2.184      5.131
REMARK  Name = 40779311
REMARK  10 active torsions:
REMARK  status: ('A' for Active; 'I' for Inactive)
REMARK    1  A    between atoms: O_2  and  C_29
REMARK    2  A    between atoms: N_6  and  C_16
REMARK    3  A    between atoms: N_7  and  C_28
REMARK    4  A    between atoms: C_10  and  C_17
REMARK    5  A    between atoms: C_11  and  C_16
REMARK    6  A    between atoms: C_18  and  C_21
REMARK    7  A    between atoms: C_18  and  C_24
REMARK    8  A    between atoms: C_21  and  C_26
REMARK    9  A    between atoms: C_24  and  C_29
REMARK   10  A    between atoms: C_27  and  C_30
REMARK                            x       y       z     vdW  Elec       q    Type
REMARK                         _______ _______ _______ _____ _____    ______ ____
ROOT
ATOM      5  N   UNL     1      -3.612  -0.303  25.303  0.00  0.00    -0.297 NA
ATOM      9  C   UNL     1      -1.948  -2.232  24.758  0.00  0.00    +0.002 C 
ATOM     10  C   UNL     1      -1.195  -0.974  25.263  0.00  0.00    +0.055 C 
ATOM     11  C   UNL     1      -3.890  -0.850  23.948  0.00  0.00    +0.074 C 
ATOM     12  C   UNL     1      -2.799  -1.860  23.527  0.00  0.00    +0.024 C 
ATOM     13  C   UNL     1      -2.928  -2.637  25.877  0.00  0.00    +0.019 C 
ATOM     14  C   UNL     1      -2.213   0.190  25.381  0.00  0.00    +0.094 C 
ATOM     15  C   UNL     1      -3.771  -1.411  26.278  0.00  0.00    +0.085 C 
ENDROOT
BRANCH  10  17
ATOM      7  N   UNL     1       0.097  -0.035  23.294  0.00  0.00    -0.270 N 
ATOM      8  N   UNL     1       1.326   0.110  22.770  0.00  0.00    -0.168 NA
ATOM     17  C   UNL     1       0.081  -0.694  24.488  0.00  0.00    +0.044 A 
ATOM     25  C   UNL     1       1.391  -1.002  24.764  0.00  0.00    +0.056 A 
ATOM     27  C   UNL     1       2.112  -0.484  23.672  0.00  0.00    +0.128 A 
ATOM     28  C   UNL     1      -1.042   0.496  22.580  0.00  0.00    +0.172 C 
BRANCH  27  30
ATOM      4  O   UNL     1       4.334  -1.626  23.854  0.00  0.00    -0.461 OA
ATOM     30  C   UNL     1       3.574  -0.559  23.498  0.00  0.00    +0.155 A 
ATOM     31  C   UNL     1       4.358   0.433  22.955  0.00  0.00    +0.051 A 
ATOM     32  C   UNL     1       5.685  -0.056  22.979  0.00  0.00    +0.042 A 
ATOM     33  C   UNL     1       5.617  -1.313  23.537  0.00  0.00    +0.196 A 
ENDBRANCH  27  30
ENDBRANCH  10  17
BRANCH  11  16
ATOM     16  C   UNL     1      -4.091   0.249  22.903  0.00  0.00    +0.123 C 
BRANCH  16   6
ATOM      1  O   UNL     1      -3.055   2.750  21.881  0.00  0.00    -0.276 OA
ATOM      6  N   UNL     1      -4.167   1.536  23.523  0.00  0.00    -0.314 N 
ATOM     26  C   UNL     1      -3.639   2.698  22.959  0.00  0.00    +0.214 C 
ATOM     34  H   UNL     1      -4.593   1.587  24.444  0.00  0.00    +0.149 HD
BRANCH  26  21
ATOM     21  C   UNL     1      -3.871   3.913  23.839  0.00  0.00    +0.103 C 
BRANCH  21  18
ATOM     18  C   UNL     1      -2.902   3.972  25.029  0.00  0.00    -0.011 C 
ATOM     19  C   UNL     1      -1.790   2.909  24.881  0.00  0.00    +0.008 C 
ATOM     20  C   UNL     1      -2.162   5.332  25.052  0.00  0.00    +0.008 C 
ATOM     22  C   UNL     1      -0.567   3.678  24.404  0.00  0.00    +0.001 C 
ATOM     23  C   UNL     1      -0.679   4.993  25.151  0.00  0.00    +0.001 C 
BRANCH  18  24
ATOM     24  C   UNL     1      -3.688   3.752  26.327  0.00  0.00    +0.127 C 
BRANCH  24  29
ATOM      3  O   UNL     1      -6.008   4.338  25.864  0.00  0.00    -0.251 OA
ATOM     29  C   UNL     1      -5.140   3.498  26.050  0.00  0.00    +0.305 C 
BRANCH  29   2
ATOM      2  O   UNL     1      -5.369   2.160  26.031  0.00  0.00    -0.481 OA
ATOM     35  H   UNL     1      -5.695   1.857  25.157  0.00  0.00    +0.295 HD
ENDBRANCH  29   2
ENDBRANCH  24  29
ENDBRANCH  18  24
ENDBRANCH  21  18
ENDBRANCH  26  21
ENDBRANCH  16   6
ENDBRANCH  11  16
TORSDOF 9
ENDMDL
MODEL 5
REMARK VINA RESULT:       1.4      1.822      3.312
REMARK  Name = 40779311
REMARK  10 active torsions:
REMARK  status: ('A' for Active; 'I' for Inactive)
REMARK    1  A    between atoms: O_2  and  C_29
REMARK    2  A    between atoms: N_6  and  C_16
REMARK    3  A    between atoms: N_7  and  C_28
REMARK    4  A    between atoms: C_10  and  C_17
REMARK    5  A    between atoms: C_11  and  C_16
REMARK    6  A    between atoms: C_18  and  C_21
REMARK    7  A    between atoms: C_18  and  C_24
REMARK    8  A    between atoms: C_21  and  C_26
REMARK    9  A    between atoms: C_24  and  C_29
REMARK   10  A    between atoms: C_27  and  C_30
REMARK                            x       y       z     vdW  Elec       q    Type
REMARK                         _______ _______ _______ _____ _____    ______ ____
ROOT
ATOM      5  N   UNL     1      -4.506   3.224  23.694  0.00  0.00    -0.297 NA
ATOM      9  C   UNL     1      -2.719   4.868  24.639  0.00  0.00    +0.002 C 
ATOM     10  C   UNL     1      -2.062   3.545  24.166  0.00  0.00    +0.055 C 
ATOM     11  C   UNL     1      -4.932   3.732  25.025  0.00  0.00    +0.074 C 
ATOM     12  C   UNL     1      -3.805   4.555  25.688  0.00  0.00    +0.024 C 
ATOM     13  C   UNL     1      -3.437   5.466  23.413  0.00  0.00    +0.019 C 
ATOM     14  C   UNL     1      -3.188   2.544  23.801  0.00  0.00    +0.094 C 
ATOM     15  C   UNL     1      -4.353   4.394  22.792  0.00  0.00    +0.085 C 
ENDROOT
BRANCH  10  17
ATOM      7  N   UNL     1      -0.021   2.153  24.739  0.00  0.00    -0.270 N 
ATOM      8  N   UNL     1       0.840   1.841  25.722  0.00  0.00    -0.168 NA
ATOM     17  C   UNL     1      -0.982   3.048  25.110  0.00  0.00    +0.044 A 
ATOM     25  C   UNL     1      -0.731   3.341  26.429  0.00  0.00    +0.056 A 
ATOM     27  C   UNL     1       0.401   2.569  26.752  0.00  0.00    +0.128 A 
ATOM     28  C   UNL     1       0.140   1.543  23.439  0.00  0.00    +0.172 C 
BRANCH  27  30
ATOM      4  O   UNL     1       2.395   2.753  28.257  0.00  0.00    -0.461 OA
ATOM     30  C   UNL     1       1.068   2.535  28.066  0.00  0.00    +0.155 A 
ATOM     31  C   UNL     1       0.443   2.280  29.265  0.00  0.00    +0.051 A 
ATOM     32  C   UNL     1       1.449   2.346  30.256  0.00  0.00    +0.042 A 
ATOM     33  C   UNL     1       2.620   2.637  29.592  0.00  0.00    +0.196 A 
ENDBRANCH  27  30
ENDBRANCH  10  17
BRANCH  11  16
ATOM     16  C   UNL     1      -5.446   2.618  25.938  0.00  0.00    +0.123 C 
BRANCH  16   6
ATOM      1  O   UNL     1      -5.520  -0.065  24.856  0.00  0.00    -0.276 OA
ATOM      6  N   UNL     1      -4.462   1.592  26.098  0.00  0.00    -0.314 N 
ATOM     26  C   UNL     1      -4.575   0.319  25.540  0.00  0.00    +0.214 C 
ATOM     34  H   UNL     1      -3.662   1.801  26.689  0.00  0.00    +0.149 HD
BRANCH  26  21
ATOM     21  C   UNL     1      -3.381  -0.557  25.873  0.00  0.00    +0.103 C 
BRANCH  21  18
ATOM     18  C   UNL     1      -2.927  -1.413  24.682  0.00  0.00    -0.011 C 
ATOM     19  C   UNL     1      -3.108  -2.917  24.990  0.00  0.00    +0.008 C 
ATOM     20  C   UNL     1      -3.827  -1.141  23.451  0.00  0.00    +0.008 C 
ATOM     22  C   UNL     1      -4.371  -3.325  24.246  0.00  0.00    +0.001 C 
ATOM     23  C   UNL     1      -4.293  -2.510  22.970  0.00  0.00    +0.001 C 
BRANCH  18  24
ATOM     24  C   UNL     1      -1.459  -1.101  24.369  0.00  0.00    +0.127 C 
BRANCH  24  29
ATOM      3  O   UNL     1       0.246  -2.385  25.545  0.00  0.00    -0.251 OA
ATOM     29  C   UNL     1      -0.566  -1.473  25.515  0.00  0.00    +0.305 C 
BRANCH  29   2
ATOM      2  O   UNL     1      -0.789  -0.628  26.554  0.00  0.00    -0.481 OA
ATOM     35  H   UNL     1      -0.785  -1.097  27.416  0.00  0.00    +0.295 HD
ENDBRANCH  29   2
ENDBRANCH  24  29
ENDBRANCH  18  24
ENDBRANCH  21  18
ENDBRANCH  26  21
ENDBRANCH  16   6
ENDBRANCH  11  16
TORSDOF 9
ENDMDL
MODEL 6
REMARK VINA RESULT:       1.7      1.589      2.251
REMARK  Name = 40779311
REMARK  10 active torsions:
REMARK  status: ('A' for Active; 'I' for Inactive)
REMARK    1  A    between atoms: O_2  and  C_29
REMARK    2  A    between atoms: N_6  and  C_16
REMARK    3  A    between atoms: N_7  and  C_28
REMARK    4  A    between atoms: C_10  and  C_17
REMARK    5  A    between atoms: C_11  and  C_16
REMARK    6  A    between atoms: C_18  and  C_21
REMARK    7  A    between atoms: C_18  and  C_24
REMARK    8  A    between atoms: C_21  and  C_26
REMARK    9  A    between atoms: C_24  and  C_29
REMARK   10  A    between atoms: C_27  and  C_30
REMARK                            x       y       z     vdW  Elec       q    Type
REMARK                         _______ _______ _______ _____ _____    ______ ____
ROOT
ATOM      5  N   UNL     1      -3.594   4.493  24.270  0.00  0.00    -0.297 NA
ATOM      9  C   UNL     1      -1.235   4.243  25.348  0.00  0.00    +0.002 C 
ATOM     10  C   UNL     1      -1.208   3.841  23.849  0.00  0.00    +0.055 C 
ATOM     11  C   UNL     1      -3.689   3.713  25.533  0.00  0.00    +0.074 C 
ATOM     12  C   UNL     1      -2.284   3.389  26.088  0.00  0.00    +0.024 C 
ATOM     13  C   UNL     1      -1.723   5.704  25.403  0.00  0.00    +0.019 C 
ATOM     14  C   UNL     1      -2.665   3.825  23.322  0.00  0.00    +0.094 C 
ATOM     15  C   UNL     1      -3.035   5.828  24.605  0.00  0.00    +0.085 C 
ENDROOT
BRANCH  10  17
ATOM      7  N   UNL     1      -0.879   1.454  23.059  0.00  0.00    -0.270 N 
ATOM      8  N   UNL     1       0.030   0.478  22.899  0.00  0.00    -0.168 NA
ATOM     17  C   UNL     1      -0.366   2.606  23.581  0.00  0.00    +0.044 A 
ATOM     25  C   UNL     1       0.972   2.366  23.775  0.00  0.00    +0.056 A 
ATOM     27  C   UNL     1       1.159   1.040  23.340  0.00  0.00    +0.128 A 
ATOM     28  C   UNL     1      -2.253   1.208  22.682  0.00  0.00    +0.172 C 
BRANCH  27  30
ATOM      4  O   UNL     1       2.577  -0.993  23.706  0.00  0.00    -0.461 OA
ATOM     30  C   UNL     1       2.439   0.309  23.344  0.00  0.00    +0.155 A 
ATOM     31  C   UNL     1       3.655   0.842  22.985  0.00  0.00    +0.051 A 
ATOM     32  C   UNL     1       4.602  -0.199  23.135  0.00  0.00    +0.042 A 
ATOM     33  C   UNL     1       3.895  -1.295  23.578  0.00  0.00    +0.196 A 
ENDBRANCH  27  30
ENDBRANCH  10  17
BRANCH  11  16
ATOM     16  C   UNL     1      -4.553   2.461  25.383  0.00  0.00    +0.123 C 
BRANCH  16   6
ATOM      1  O   UNL     1      -5.369  -0.284  24.963  0.00  0.00    -0.276 OA
ATOM      6  N   UNL     1      -3.795   1.280  25.661  0.00  0.00    -0.314 N 
ATOM     26  C   UNL     1      -4.265  -0.012  25.428  0.00  0.00    +0.214 C 
ATOM     34  H   UNL     1      -2.883   1.401  26.093  0.00  0.00    +0.149 HD
BRANCH  26  21
ATOM     21  C   UNL     1      -3.245  -1.067  25.815  0.00  0.00    +0.103 C 
BRANCH  21  18
ATOM     18  C   UNL     1      -2.889  -2.000  24.648  0.00  0.00    -0.011 C 
ATOM     19  C   UNL     1      -3.288  -3.458  24.975  0.00  0.00    +0.008 C 
ATOM     20  C   UNL     1      -3.713  -1.627  23.392  0.00  0.00    +0.008 C 
ATOM     22  C   UNL     1      -4.579  -3.698  24.205  0.00  0.00    +0.001 C 
ATOM     23  C   UNL     1      -4.357  -2.925  22.919  0.00  0.00    +0.001 C 
BRANCH  18  24
ATOM     24  C   UNL     1      -1.385  -1.904  24.368  0.00  0.00    +0.127 C 
BRANCH  24  29
ATOM      3  O   UNL     1      -0.971  -0.174  26.035  0.00  0.00    -0.251 OA
ATOM     29  C   UNL     1      -0.663  -1.225  25.495  0.00  0.00    +0.305 C 
BRANCH  29   2
ATOM      2  O   UNL     1       0.420  -1.965  25.847  0.00  0.00    -0.481 OA
ATOM     35  H   UNL     1       1.139  -1.409  26.215  0.00  0.00    +0.295 HD
ENDBRANCH  29   2
ENDBRANCH  24  29
ENDBRANCH  18  24
ENDBRANCH  21  18
ENDBRANCH  26  21
ENDBRANCH  16   6
ENDBRANCH  11  16
TORSDOF 9
ENDMDL
MODEL 7
REMARK VINA RESULT:       2.5      1.895      5.101
REMARK  Name = 40779311
REMARK  10 active torsions:
REMARK  status: ('A' for Active; 'I' for Inactive)
REMARK    1  A    between atoms: O_2  and  C_29
REMARK    2  A    between atoms: N_6  and  C_16
REMARK    3  A    between atoms: N_7  and  C_28
REMARK    4  A    between atoms: C_10  and  C_17
REMARK    5  A    between atoms: C_11  and  C_16
REMARK    6  A    between atoms: C_18  and  C_21
REMARK    7  A    between atoms: C_18  and  C_24
REMARK    8  A    between atoms: C_21  and  C_26
REMARK    9  A    between atoms: C_24  and  C_29
REMARK   10  A    between atoms: C_27  and  C_30
REMARK                            x       y       z     vdW  Elec       q    Type
REMARK                         _______ _______ _______ _____ _____    ______ ____
ROOT
ATOM      5  N   UNL     1      -4.040  -2.012  25.634  0.00  0.00    -0.297 NA
ATOM      9  C   UNL     1      -3.024  -1.558  23.278  0.00  0.00    +0.002 C 
ATOM     10  C   UNL     1      -1.912  -1.878  24.311  0.00  0.00    +0.055 C 
ATOM     11  C   UNL     1      -4.582  -0.742  25.080  0.00  0.00    +0.074 C 
ATOM     12  C   UNL     1      -3.854  -0.355  23.774  0.00  0.00    +0.024 C 
ATOM     13  C   UNL     1      -3.968  -2.777  23.256  0.00  0.00    +0.019 C 
ATOM     14  C   UNL     1      -2.557  -1.944  25.719  0.00  0.00    +0.094 C 
ATOM     15  C   UNL     1      -4.402  -3.105  24.697  0.00  0.00    +0.085 C 
ENDROOT
BRANCH  10  17
ATOM      7  N   UNL     1      -0.442   0.085  24.958  0.00  0.00    -0.270 N 
ATOM      8  N   UNL     1       0.693   0.737  24.659  0.00  0.00    -0.168 NA
ATOM     17  C   UNL     1      -0.687  -0.992  24.158  0.00  0.00    +0.044 A 
ATOM     25  C   UNL     1       0.362  -1.049  23.273  0.00  0.00    +0.056 A 
ATOM     27  C   UNL     1       1.180   0.041  23.628  0.00  0.00    +0.128 A 
ATOM     28  C   UNL     1      -1.262   0.560  26.049  0.00  0.00    +0.172 C 
BRANCH  27  30
ATOM      4  O   UNL     1       3.379   1.236  23.511  0.00  0.00    -0.461 OA
ATOM     30  C   UNL     1       2.445   0.412  22.968  0.00  0.00    +0.155 A 
ATOM     31  C   UNL     1       2.847  -0.022  21.727  0.00  0.00    +0.051 A 
ATOM     32  C   UNL     1       4.109   0.573  21.491  0.00  0.00    +0.042 A 
ATOM     33  C   UNL     1       4.388   1.330  22.607  0.00  0.00    +0.196 A 
ENDBRANCH  27  30
ENDBRANCH  10  17
BRANCH  11  16
ATOM     16  C   UNL     1      -4.572   0.394  26.104  0.00  0.00    +0.123 C 
BRANCH  16   6
ATOM      1  O   UNL     1      -6.022   2.818  26.733  0.00  0.00    -0.276 OA
ATOM      6  N   UNL     1      -4.457   1.664  25.457  0.00  0.00    -0.314 N 
ATOM     26  C   UNL     1      -5.197   2.788  25.825  0.00  0.00    +0.214 C 
ATOM     34  H   UNL     1      -3.830   1.727  24.659  0.00  0.00    +0.149 HD
BRANCH  26  21
ATOM     21  C   UNL     1      -4.863   3.994  24.966  0.00  0.00    +0.103 C 
BRANCH  21  18
ATOM     18  C   UNL     1      -3.517   3.848  24.241  0.00  0.00    -0.011 C 
ATOM     19  C   UNL     1      -2.915   5.236  23.923  0.00  0.00    +0.008 C 
ATOM     20  C   UNL     1      -2.482   3.159  25.164  0.00  0.00    +0.008 C 
ATOM     22  C   UNL     1      -1.834   5.449  24.973  0.00  0.00    +0.001 C 
ATOM     23  C   UNL     1      -1.253   4.059  25.149  0.00  0.00    +0.001 C 
BRANCH  18  24
ATOM     24  C   UNL     1      -3.726   3.044  22.952  0.00  0.00    +0.127 C 
BRANCH  24  29
ATOM      3  O   UNL     1      -1.413   2.282  23.065  0.00  0.00    -0.251 OA
ATOM     29  C   UNL     1      -2.425   2.516  22.422  0.00  0.00    +0.305 C 
BRANCH  29   2
ATOM      2  O   UNL     1      -2.529   2.323  21.083  0.00  0.00    -0.481 OA
ATOM     35  H   UNL     1      -3.436   2.502  20.756  0.00  0.00    +0.295 HD
ENDBRANCH  29   2
ENDBRANCH  24  29
ENDBRANCH  18  24
ENDBRANCH  21  18
ENDBRANCH  26  21
ENDBRANCH  16   6
ENDBRANCH  11  16
TORSDOF 9
ENDMDL
MODEL 8
REMARK VINA RESULT:       2.6      1.893      3.668
REMARK  Name = 40779311
REMARK  10 active torsions:
REMARK  status: ('A' for Active; 'I' for Inactive)
REMARK    1  A    between atoms: O_2  and  C_29
REMARK    2  A    between atoms: N_6  and  C_16
REMARK    3  A    between atoms: N_7  and  C_28
REMARK    4  A    between atoms: C_10  and  C_17
REMARK    5  A    between atoms: C_11  and  C_16
REMARK    6  A    between atoms: C_18  and  C_21
REMARK    7  A    between atoms: C_18  and  C_24
REMARK    8  A    between atoms: C_21  and  C_26
REMARK    9  A    between atoms: C_24  and  C_29
REMARK   10  A    between atoms: C_27  and  C_30
REMARK                            x       y       z     vdW  Elec       q    Type
REMARK                         _______ _______ _______ _____ _____    ______ ____
ROOT
ATOM      5  N   UNL     1      -5.072   2.834  24.112  0.00  0.00    -0.297 NA
ATOM      9  C   UNL     1      -4.183   3.912  26.311  0.00  0.00    +0.002 C 
ATOM     10  C   UNL     1      -3.088   3.905  25.212  0.00  0.00    +0.055 C 
ATOM     11  C   UNL     1      -5.361   1.945  25.269  0.00  0.00    +0.074 C 
ATOM     12  C   UNL     1      -4.677   2.470  26.551  0.00  0.00    +0.024 C 
ATOM     13  C   UNL     1      -5.374   4.706  25.740  0.00  0.00    +0.019 C 
ATOM     14  C   UNL     1      -3.611   3.083  24.006  0.00  0.00    +0.094 C 
ATOM     15  C   UNL     1      -5.748   4.132  24.360  0.00  0.00    +0.085 C 
ENDROOT
BRANCH  10  17
ATOM      7  N   UNL     1      -0.632   3.333  24.940  0.00  0.00    -0.270 N 
ATOM      8  N   UNL     1       0.490   3.020  25.608  0.00  0.00    -0.168 NA
ATOM     17  C   UNL     1      -1.713   3.541  25.746  0.00  0.00    +0.044 A 
ATOM     25  C   UNL     1      -1.266   3.352  27.031  0.00  0.00    +0.056 A 
ATOM     27  C   UNL     1       0.098   3.032  26.885  0.00  0.00    +0.128 A 
ATOM     28  C   UNL     1      -0.596   3.416  23.498  0.00  0.00    +0.172 C 
BRANCH  27  30
ATOM      4  O   UNL     1       2.336   3.116  28.007  0.00  0.00    -0.461 OA
ATOM     30  C   UNL     1       1.032   2.738  27.987  0.00  0.00    +0.155 A 
ATOM     31  C   UNL     1       0.711   2.050  29.134  0.00  0.00    +0.051 A 
ATOM     32  C   UNL     1       1.894   2.001  29.908  0.00  0.00    +0.042 A 
ATOM     33  C   UNL     1       2.855   2.664  29.178  0.00  0.00    +0.196 A 
ENDBRANCH  27  30
ENDBRANCH  10  17
BRANCH  11  16
ATOM     16  C   UNL     1      -5.011   0.484  24.986  0.00  0.00    +0.123 C 
BRANCH  16   6
ATOM      1  O   UNL     1      -3.678  -1.936  24.127  0.00  0.00    -0.276 OA
ATOM      6  N   UNL     1      -3.770   0.382  24.281  0.00  0.00    -0.314 N 
ATOM     26  C   UNL     1      -3.194  -0.830  23.902  0.00  0.00    +0.214 C 
ATOM     34  H   UNL     1      -3.269   1.246  24.090  0.00  0.00    +0.149 HD
BRANCH  26  21
ATOM     21  C   UNL     1      -1.882  -0.631  23.167  0.00  0.00    +0.103 C 
BRANCH  21  18
ATOM     18  C   UNL     1      -0.683  -0.519  24.120  0.00  0.00    -0.011 C 
ATOM     19  C   UNL     1      -1.136  -0.011  25.508  0.00  0.00    +0.008 C 
ATOM     20  C   UNL     1      -0.071  -1.917  24.381  0.00  0.00    +0.008 C 
ATOM     22  C   UNL     1      -1.170  -1.249  26.392  0.00  0.00    +0.001 C 
ATOM     23  C   UNL     1       0.016  -2.054  25.896  0.00  0.00    +0.001 C 
BRANCH  18  24
ATOM     24  C   UNL     1       0.355   0.431  23.512  0.00  0.00    +0.127 C 
BRANCH  24  29
ATOM      3  O   UNL     1       1.013  -0.682  21.445  0.00  0.00    -0.251 OA
ATOM     29  C   UNL     1       1.275  -0.294  22.574  0.00  0.00    +0.305 C 
BRANCH  29   2
ATOM      2  O   UNL     1       2.483  -0.467  23.170  0.00  0.00    -0.481 OA
ATOM     35  H   UNL     1       3.197  -0.612  22.513  0.00  0.00    +0.295 HD
ENDBRANCH  29   2
ENDBRANCH  24  29
ENDBRANCH  18  24
ENDBRANCH  21  18
ENDBRANCH  26  21
ENDBRANCH  16   6
ENDBRANCH  11  16
TORSDOF 9
ENDMDL
MODEL 9
REMARK VINA RESULT:       3.0      1.780      4.811
REMARK  Name = 40779311
REMARK  10 active torsions:
REMARK  status: ('A' for Active; 'I' for Inactive)
REMARK    1  A    between atoms: O_2  and  C_29
REMARK    2  A    between atoms: N_6  and  C_16
REMARK    3  A    between atoms: N_7  and  C_28
REMARK    4  A    between atoms: C_10  and  C_17
REMARK    5  A    between atoms: C_11  and  C_16
REMARK    6  A    between atoms: C_18  and  C_21
REMARK    7  A    between atoms: C_18  and  C_24
REMARK    8  A    between atoms: C_21  and  C_26
REMARK    9  A    between atoms: C_24  and  C_29
REMARK   10  A    between atoms: C_27  and  C_30
REMARK                            x       y       z     vdW  Elec       q    Type
REMARK                         _______ _______ _______ _____ _____    ______ ____
ROOT
ATOM      5  N   UNL     1      -1.668   5.328  25.336  0.00  0.00    -0.297 NA
ATOM      9  C   UNL     1      -3.382   4.396  23.608  0.00  0.00    +0.002 C 
ATOM     10  C   UNL     1      -3.726   3.922  25.045  0.00  0.00    +0.055 C 
ATOM     11  C   UNL     1      -0.952   4.694  24.197  0.00  0.00    +0.074 C 
ATOM     12  C   UNL     1      -1.942   3.968  23.259  0.00  0.00    +0.024 C 
ATOM     13  C   UNL     1      -3.398   5.937  23.638  0.00  0.00    +0.019 C 
ATOM     14  C   UNL     1      -2.570   4.344  25.988  0.00  0.00    +0.094 C 
ATOM     15  C   UNL     1      -2.500   6.429  24.789  0.00  0.00    +0.085 C 
ENDROOT
BRANCH  10  17
ATOM      7  N   UNL     1      -5.384   2.076  25.565  0.00  0.00    -0.270 N 
ATOM      8  N   UNL     1      -5.575   0.746  25.534  0.00  0.00    -0.168 NA
ATOM     17  C   UNL     1      -4.163   2.469  25.102  0.00  0.00    +0.044 A 
ATOM     25  C   UNL     1      -3.508   1.315  24.743  0.00  0.00    +0.056 A 
ATOM     27  C   UNL     1      -4.425   0.287  25.032  0.00  0.00    +0.128 A 
ATOM     28  C   UNL     1      -6.440   2.929  26.061  0.00  0.00    +0.172 C 
BRANCH  27  30
ATOM      4  O   UNL     1      -3.629  -1.983  25.736  0.00  0.00    -0.461 OA
ATOM     30  C   UNL     1      -4.192  -1.154  24.819  0.00  0.00    +0.155 A 
ATOM     31  C   UNL     1      -4.511  -1.845  23.673  0.00  0.00    +0.051 A 
ATOM     32  C   UNL     1      -4.119  -3.185  23.901  0.00  0.00    +0.042 A 
ATOM     33  C   UNL     1      -3.588  -3.217  25.170  0.00  0.00    +0.196 A 
ENDBRANCH  27  30
ENDBRANCH  10  17
BRANCH  11  16
ATOM     16  C   UNL     1       0.183   3.778  24.657  0.00  0.00    +0.123 C 
BRANCH  16   6
ATOM      1  O   UNL     1       0.137   2.163  27.057  0.00  0.00    -0.276 OA
ATOM      6  N   UNL     1      -0.269   2.427  24.783  0.00  0.00    -0.314 N 
ATOM     26  C   UNL     1      -0.257   1.717  25.984  0.00  0.00    +0.214 C 
ATOM     34  H   UNL     1      -0.571   1.955  23.935  0.00  0.00    +0.149 HD
BRANCH  26  21
ATOM     21  C   UNL     1      -0.797   0.308  25.816  0.00  0.00    +0.103 C 
BRANCH  21  18
ATOM     18  C   UNL     1      -0.118  -0.450  24.666  0.00  0.00    -0.011 C 
ATOM     19  C   UNL     1       0.515  -1.764  25.179  0.00  0.00    +0.008 C 
ATOM     20  C   UNL     1      -1.170  -0.889  23.618  0.00  0.00    +0.008 C 
ATOM     22  C   UNL     1      -0.450  -2.861  24.755  0.00  0.00    +0.001 C 
ATOM     23  C   UNL     1      -0.940  -2.381  23.403  0.00  0.00    +0.001 C 
BRANCH  18  24
ATOM     24  C   UNL     1       0.948   0.450  24.032  0.00  0.00    +0.127 C 
BRANCH  24  29
ATOM      3  O   UNL     1       1.111  -0.360  21.738  0.00  0.00    -0.251 OA
ATOM     29  C   UNL     1       1.593  -0.217  22.852  0.00  0.00    +0.305 C 
BRANCH  29   2
ATOM      2  O   UNL     1       2.830  -0.654  23.200  0.00  0.00    -0.481 OA
ATOM     35  H   UNL     1       2.908  -0.797  24.168  0.00  0.00    +0.295 HD
ENDBRANCH  29   2
ENDBRANCH  24  29
ENDBRANCH  18  24
ENDBRANCH  21  18
ENDBRANCH  26  21
ENDBRANCH  16   6
ENDBRANCH  11  16
TORSDOF 9
ENDMDL
MODEL 10
REMARK VINA RESULT:       3.2      1.955      5.024
REMARK  Name = 40779311
REMARK  10 active torsions:
REMARK  status: ('A' for Active; 'I' for Inactive)
REMARK    1  A    between atoms: O_2  and  C_29
REMARK    2  A    between atoms: N_6  and  C_16
REMARK    3  A    between atoms: N_7  and  C_28
REMARK    4  A    between atoms: C_10  and  C_17
REMARK    5  A    between atoms: C_11  and  C_16
REMARK    6  A    between atoms: C_18  and  C_21
REMARK    7  A    between atoms: C_18  and  C_24
REMARK    8  A    between atoms: C_21  and  C_26
REMARK    9  A    between atoms: C_24  and  C_29
REMARK   10  A    between atoms: C_27  and  C_30
REMARK                            x       y       z     vdW  Elec       q    Type
REMARK                         _______ _______ _______ _____ _____    ______ ____
ROOT
ATOM      5  N   UNL     1      -3.742  -1.207  25.793  0.00  0.00    -0.297 NA
ATOM      9  C   UNL     1      -1.968  -2.629  24.520  0.00  0.00    +0.002 C 
ATOM     10  C   UNL     1      -1.297  -1.458  25.286  0.00  0.00    +0.055 C 
ATOM     11  C   UNL     1      -4.157  -1.394  24.377  0.00  0.00    +0.074 C 
ATOM     12  C   UNL     1      -3.034  -2.067  23.557  0.00  0.00    +0.024 C 
ATOM     13  C   UNL     1      -2.712  -3.474  25.572  0.00  0.00    +0.019 C 
ATOM     14  C   UNL     1      -2.413  -0.545  25.856  0.00  0.00    +0.094 C 
ATOM     15  C   UNL     1      -3.621  -2.552  26.409  0.00  0.00    +0.085 C 
ENDROOT
BRANCH  10  17
ATOM      7  N   UNL     1      -0.419   0.285  23.668  0.00  0.00    -0.270 N 
ATOM      8  N   UNL     1       0.687   0.737  23.053  0.00  0.00    -0.168 NA
ATOM     17  C   UNL     1      -0.196  -0.781  24.490  0.00  0.00    +0.044 A 
ATOM     25  C   UNL     1       1.150  -1.044  24.406  0.00  0.00    +0.056 A 
ATOM     27  C   UNL     1       1.642  -0.079  23.507  0.00  0.00    +0.128 A 
ATOM     28  C   UNL     1      -1.683   0.938  23.416  0.00  0.00    +0.172 C 
BRANCH  27  30
ATOM      4  O   UNL     1       4.116  -0.267  23.857  0.00  0.00    -0.461 OA
ATOM     30  C   UNL     1       3.047   0.060  23.084  0.00  0.00    +0.155 A 
ATOM     31  C   UNL     1       3.462   0.533  21.861  0.00  0.00    +0.051 A 
ATOM     32  C   UNL     1       4.876   0.495  21.883  0.00  0.00    +0.042 A 
ATOM     33  C   UNL     1       5.225   0.001  23.120  0.00  0.00    +0.196 A 
ENDBRANCH  27  30
ENDBRANCH  10  17
BRANCH  11  16
ATOM     16  C   UNL     1      -4.641  -0.094  23.733  0.00  0.00    +0.123 C 
BRANCH  16   6
ATOM      1  O   UNL     1      -6.727   1.692  24.645  0.00  0.00    -0.276 OA
ATOM      6  N   UNL     1      -4.505   1.006  24.637  0.00  0.00    -0.314 N 
ATOM     26  C   UNL     1      -5.568   1.821  25.027  0.00  0.00    +0.214 C 
ATOM     34  H   UNL     1      -3.570   1.223  24.972  0.00  0.00    +0.149 HD
BRANCH  26  21
ATOM     21  C   UNL     1      -5.128   2.905  25.995  0.00  0.00    +0.103 C 
BRANCH  21  18
ATOM     18  C   UNL     1      -4.020   3.797  25.417  0.00  0.00    -0.011 C 
ATOM     19  C   UNL     1      -3.379   3.135  24.175  0.00  0.00    +0.008 C 
ATOM     20  C   UNL     1      -4.616   5.130  24.902  0.00  0.00    +0.008 C 
ATOM     22  C   UNL     1      -3.986   3.859  22.982  0.00  0.00    +0.001 C 
ATOM     23  C   UNL     1      -4.104   5.288  23.476  0.00  0.00    +0.001 C 
BRANCH  18  24
ATOM     24  C   UNL     1      -2.962   4.048  26.497  0.00  0.00    +0.127 C 
BRANCH  24  29
ATOM      3  O   UNL     1      -0.887   2.821  26.136  0.00  0.00    -0.251 OA
ATOM     29  C   UNL     1      -1.577   3.816  25.970  0.00  0.00    +0.305 C 
BRANCH  29   2
ATOM      2  O   UNL     1      -1.178   4.899  25.256  0.00  0.00    -0.481 OA
ATOM     35  H   UNL     1      -0.350   4.726  24.759  0.00  0.00    +0.295 HD
ENDBRANCH  29   2
ENDBRANCH  24  29
ENDBRANCH  18  24
ENDBRANCH  21  18
ENDBRANCH  26  21
ENDBRANCH  16   6
ENDBRANCH  11  16
TORSDOF 9
ENDMDL
