MODEL 1
REMARK VINA RESULT:      -3.5      0.000      0.000
REMARK  Name = 75537108
REMARK  4 active torsions:
REMARK  status: ('A' for Active; 'I' for Inactive)
REMARK    1  A    between atoms: N_6  and  C_14
REMARK    2  A    between atoms: N_7  and  C_15
REMARK    3  A    between atoms: C_14  and  C_16
REMARK    4  A    between atoms: C_21  and  C_22
REMARK                            x       y       z     vdW  Elec       q    Type
REMARK                         _______ _______ _______ _____ _____    ______ ____
ROOT
ATOM      4  O   UNL     1      11.590  -4.446  32.304  0.00  0.00    -0.252 OA
ATOM      5  N   UNL     1      13.750  -5.333  32.041  0.00  0.00    -0.278 N 
ATOM      6  N   UNL     1      16.318  -5.714  30.959  0.00  0.00    -0.295 NA
ATOM      7  N   UNL     1      12.054  -6.756  32.425  0.00  0.00    -0.287 N 
ATOM      8  C   UNL     1      14.385  -6.628  32.178  0.00  0.00    +0.109 C 
ATOM      9  C   UNL     1      15.382  -6.854  31.042  0.00  0.00    +0.109 C 
ATOM     10  C   UNL     1      13.212  -7.605  32.208  0.00  0.00    +0.132 C 
ATOM     11  C   UNL     1      14.569  -4.163  31.805  0.00  0.00    +0.125 C 
ATOM     12  C   UNL     1      15.591  -4.454  30.703  0.00  0.00    +0.104 C 
ATOM     13  C   UNL     1      12.367  -5.390  32.266  0.00  0.00    +0.305 C 
ATOM     15  C   UNL     1      10.730  -7.300  32.626  0.00  0.00    +0.133 C 
ENDROOT
BRANCH   6  14
ATOM     14  C   UNL     1      17.314  -5.949  29.913  0.00  0.00    +0.119 C 
BRANCH  14  16
ATOM     16  C   UNL     1      16.788  -6.853  28.831  0.00  0.00    -0.033 A 
ATOM     17  C   UNL     1      15.998  -6.330  27.807  0.00  0.00    +0.005 A 
ATOM     18  C   UNL     1      17.090  -8.214  28.851  0.00  0.00    +0.005 A 
ATOM     19  C   UNL     1      15.512  -7.166  26.804  0.00  0.00    +0.012 A 
ATOM     20  C   UNL     1      16.603  -9.052  27.847  0.00  0.00    +0.012 A 
ATOM     21  C   UNL     1      15.813  -8.528  26.824  0.00  0.00    +0.055 A 
BRANCH  21  22
ATOM      1  F   UNL     1      16.224  -9.727  24.796  0.00  0.00    -0.166 F 
ATOM      2  F   UNL     1      14.237  -8.897  25.062  0.00  0.00    -0.166 F 
ATOM      3  F   UNL     1      14.858 -10.623  26.230  0.00  0.00    -0.166 F 
ATOM     22  C   UNL     1      15.295  -9.422  25.750  0.00  0.00    +0.417 C 
ENDBRANCH  21  22
ENDBRANCH  14  16
ENDBRANCH   6  14
TORSDOF 3
ENDMDL
MODEL 2
REMARK VINA RESULT:      -3.0      1.847      2.724
REMARK  Name = 75537108
REMARK  4 active torsions:
REMARK  status: ('A' for Active; 'I' for Inactive)
REMARK    1  A    between atoms: N_6  and  C_14
REMARK    2  A    between atoms: N_7  and  C_15
REMARK    3  A    between atoms: C_14  and  C_16
REMARK    4  A    between atoms: C_21  and  C_22
REMARK                            x       y       z     vdW  Elec       q    Type
REMARK                         _______ _______ _______ _____ _____    ______ ____
ROOT
ATOM      4  O   UNL     1       9.782  -7.858  32.238  0.00  0.00    -0.252 OA
ATOM      5  N   UNL     1      12.123  -7.970  32.418  0.00  0.00    -0.278 N 
ATOM      6  N   UNL     1      14.818  -7.240  32.085  0.00  0.00    -0.295 NA
ATOM      7  N   UNL     1      11.003  -9.853  31.921  0.00  0.00    -0.287 N 
ATOM      8  C   UNL     1      13.135  -9.005  32.414  0.00  0.00    +0.109 C 
ATOM      9  C   UNL     1      14.351  -8.557  31.606  0.00  0.00    +0.109 C 
ATOM     10  C   UNL     1      12.405 -10.224  31.855  0.00  0.00    +0.132 C 
ATOM     11  C   UNL     1      12.502  -6.608  32.729  0.00  0.00    +0.125 C 
ATOM     12  C   UNL     1      13.757  -6.222  31.943  0.00  0.00    +0.104 C 
ATOM     13  C   UNL     1      10.835  -8.481  32.202  0.00  0.00    +0.305 C 
ATOM     15  C   UNL     1       9.946 -10.780  31.581  0.00  0.00    +0.133 C 
ENDROOT
BRANCH   6  14
ATOM     14  C   UNL     1      16.019  -6.829  31.357  0.00  0.00    +0.119 C 
BRANCH  14  16
ATOM     16  C   UNL     1      15.974  -7.257  29.914  0.00  0.00    -0.033 A 
ATOM     17  C   UNL     1      16.651  -8.406  29.506  0.00  0.00    +0.005 A 
ATOM     18  C   UNL     1      15.254  -6.504  28.986  0.00  0.00    +0.005 A 
ATOM     19  C   UNL     1      16.608  -8.802  28.170  0.00  0.00    +0.012 A 
ATOM     20  C   UNL     1      15.211  -6.901  27.649  0.00  0.00    +0.012 A 
ATOM     21  C   UNL     1      15.889  -8.050  27.241  0.00  0.00    +0.055 A 
BRANCH  21  22
ATOM      1  F   UNL     1      14.573  -8.632  25.331  0.00  0.00    -0.166 F 
ATOM      2  F   UNL     1      16.463  -9.669  25.576  0.00  0.00    -0.166 F 
ATOM      3  F   UNL     1      16.441  -7.579  24.977  0.00  0.00    -0.166 F 
ATOM     22  C   UNL     1      15.841  -8.475  25.813  0.00  0.00    +0.417 C 
ENDBRANCH  21  22
ENDBRANCH  14  16
ENDBRANCH   6  14
TORSDOF 3
ENDMDL
MODEL 3
REMARK VINA RESULT:      -2.5     16.085     17.571
REMARK  Name = 75537108
REMARK  4 active torsions:
REMARK  status: ('A' for Active; 'I' for Inactive)
REMARK    1  A    between atoms: N_6  and  C_14
REMARK    2  A    between atoms: N_7  and  C_15
REMARK    3  A    between atoms: C_14  and  C_16
REMARK    4  A    between atoms: C_21  and  C_22
REMARK                            x       y       z     vdW  Elec       q    Type
REMARK                         _______ _______ _______ _____ _____    ______ ____
ROOT
ATOM      4  O   UNL     1      -2.790   4.536  26.293  0.00  0.00    -0.252 OA
ATOM      5  N   UNL     1      -2.075   2.476  25.416  0.00  0.00    -0.278 N 
ATOM      6  N   UNL     1      -0.527   0.644  23.947  0.00  0.00    -0.295 NA
ATOM      7  N   UNL     1      -4.275   2.930  25.409  0.00  0.00    -0.287 N 
ATOM      8  C   UNL     1      -2.696   1.260  24.934  0.00  0.00    +0.109 C 
ATOM      9  C   UNL     1      -1.976   0.755  23.684  0.00  0.00    +0.109 C 
ATOM     10  C   UNL     1      -4.155   1.658  24.718  0.00  0.00    +0.132 C 
ATOM     11  C   UNL     1      -0.637   2.526  25.568  0.00  0.00    +0.125 C 
ATOM     12  C   UNL     1       0.042   1.956  24.320  0.00  0.00    +0.104 C 
ATOM     13  C   UNL     1      -3.018   3.450  25.776  0.00  0.00    +0.305 C 
ATOM     15  C   UNL     1      -5.543   3.613  25.543  0.00  0.00    +0.133 C 
ENDROOT
BRANCH   6  14
ATOM     14  C   UNL     1       0.164   0.103  22.776  0.00  0.00    +0.119 C 
BRANCH  14  16
ATOM     16  C   UNL     1       1.653   0.034  22.986  0.00  0.00    -0.033 A 
ATOM     17  C   UNL     1       2.452   1.137  22.688  0.00  0.00    +0.005 A 
ATOM     18  C   UNL     1       2.233  -1.134  23.480  0.00  0.00    +0.005 A 
ATOM     19  C   UNL     1       3.831   1.072  22.883  0.00  0.00    +0.012 A 
ATOM     20  C   UNL     1       3.613  -1.199  23.676  0.00  0.00    +0.012 A 
ATOM     21  C   UNL     1       4.412  -0.096  23.376  0.00  0.00    +0.055 A 
BRANCH  21  22
ATOM      1  F   UNL     1       6.585  -0.503  22.466  0.00  0.00    -0.166 F 
ATOM      2  F   UNL     1       6.263  -1.075  24.533  0.00  0.00    -0.166 F 
ATOM      3  F   UNL     1       6.413   1.027  24.000  0.00  0.00    -0.166 F 
ATOM     22  C   UNL     1       5.886  -0.163  23.588  0.00  0.00    +0.417 C 
ENDBRANCH  21  22
ENDBRANCH  14  16
ENDBRANCH   6  14
TORSDOF 3
ENDMDL
MODEL 4
REMARK VINA RESULT:      -1.8      2.400      3.239
REMARK  Name = 75537108
REMARK  4 active torsions:
REMARK  status: ('A' for Active; 'I' for Inactive)
REMARK    1  A    between atoms: N_6  and  C_14
REMARK    2  A    between atoms: N_7  and  C_15
REMARK    3  A    between atoms: C_14  and  C_16
REMARK    4  A    between atoms: C_21  and  C_22
REMARK                            x       y       z     vdW  Elec       q    Type
REMARK                         _______ _______ _______ _____ _____    ______ ____
ROOT
ATOM      4  O   UNL     1       9.456  -8.128  31.253  0.00  0.00    -0.252 OA
ATOM      5  N   UNL     1      11.625  -8.662  31.983  0.00  0.00    -0.278 N 
ATOM      6  N   UNL     1      14.422  -8.954  31.911  0.00  0.00    -0.295 NA
ATOM      7  N   UNL     1       9.971 -10.124  32.402  0.00  0.00    -0.287 N 
ATOM      8  C   UNL     1      12.245  -9.691  32.793  0.00  0.00    +0.109 C 
ATOM      9  C   UNL     1      13.569 -10.132  32.170  0.00  0.00    +0.109 C 
ATOM     10  C   UNL     1      11.178 -10.780  32.873  0.00  0.00    +0.132 C 
ATOM     11  C   UNL     1      12.416  -7.531  31.546  0.00  0.00    +0.125 C 
ATOM     12  C   UNL     1      13.755  -8.015  30.985  0.00  0.00    +0.104 C 
ATOM     13  C   UNL     1      10.250  -8.874  31.812  0.00  0.00    +0.305 C 
ATOM     15  C   UNL     1       8.684 -10.781  32.419  0.00  0.00    +0.133 C 
ENDROOT
BRANCH   6  14
ATOM     14  C   UNL     1      15.716  -9.371  31.370  0.00  0.00    +0.119 C 
BRANCH  14  16
ATOM     16  C   UNL     1      15.697  -9.446  29.867  0.00  0.00    -0.033 A 
ATOM     17  C   UNL     1      16.320  -8.453  29.111  0.00  0.00    +0.005 A 
ATOM     18  C   UNL     1      15.057 -10.509  29.229  0.00  0.00    +0.005 A 
ATOM     19  C   UNL     1      16.304  -8.523  27.719  0.00  0.00    +0.012 A 
ATOM     20  C   UNL     1      15.040 -10.579  27.836  0.00  0.00    +0.012 A 
ATOM     21  C   UNL     1      15.663  -9.585  27.080  0.00  0.00    +0.055 A 
BRANCH  21  22
ATOM      1  F   UNL     1      16.648 -10.435  25.073  0.00  0.00    -0.166 F 
ATOM      2  F   UNL     1      15.783  -8.447  24.980  0.00  0.00    -0.166 F 
ATOM      3  F   UNL     1      14.488 -10.189  25.104  0.00  0.00    -0.166 F 
ATOM     22  C   UNL     1      15.649  -9.661  25.592  0.00  0.00    +0.417 C 
ENDBRANCH  21  22
ENDBRANCH  14  16
ENDBRANCH   6  14
TORSDOF 3
ENDMDL
MODEL 5
REMARK VINA RESULT:      -1.6     17.486     19.301
REMARK  Name = 75537108
REMARK  4 active torsions:
REMARK  status: ('A' for Active; 'I' for Inactive)
REMARK    1  A    between atoms: N_6  and  C_14
REMARK    2  A    between atoms: N_7  and  C_15
REMARK    3  A    between atoms: C_14  and  C_16
REMARK    4  A    between atoms: C_21  and  C_22
REMARK                            x       y       z     vdW  Elec       q    Type
REMARK                         _______ _______ _______ _____ _____    ______ ____
ROOT
ATOM      4  O   UNL     1      -7.021   1.960  25.335  0.00  0.00    -0.252 OA
ATOM      5  N   UNL     1      -4.866   1.353  24.624  0.00  0.00    -0.278 N 
ATOM      6  N   UNL     1      -2.500  -0.152  24.408  0.00  0.00    -0.295 NA
ATOM      7  N   UNL     1      -5.238   3.497  25.182  0.00  0.00    -0.287 N 
ATOM      8  C   UNL     1      -3.628   2.033  24.303  0.00  0.00    +0.109 C 
ATOM      9  C   UNL     1      -2.435   1.254  24.856  0.00  0.00    +0.109 C 
ATOM     10  C   UNL     1      -3.816   3.427  24.897  0.00  0.00    +0.132 C 
ATOM     11  C   UNL     1      -4.984  -0.066  24.363  0.00  0.00    +0.125 C 
ATOM     12  C   UNL     1      -3.742  -0.798  24.879  0.00  0.00    +0.104 C 
ATOM     13  C   UNL     1      -5.857   2.235  25.075  0.00  0.00    +0.305 C 
ATOM     15  C   UNL     1      -5.865   4.707  25.664  0.00  0.00    +0.133 C 
ENDROOT
BRANCH   6  14
ATOM     14  C   UNL     1      -1.330  -0.892  24.882  0.00  0.00    +0.119 C 
BRANCH  14  16
ATOM     16  C   UNL     1      -0.052  -0.360  24.289  0.00  0.00    -0.033 A 
ATOM     17  C   UNL     1       0.312   0.970  24.496  0.00  0.00    +0.005 A 
ATOM     18  C   UNL     1       0.767  -1.198  23.533  0.00  0.00    +0.005 A 
ATOM     19  C   UNL     1       1.495   1.462  23.947  0.00  0.00    +0.012 A 
ATOM     20  C   UNL     1       1.952  -0.705  22.984  0.00  0.00    +0.012 A 
ATOM     21  C   UNL     1       2.315   0.625  23.190  0.00  0.00    +0.055 A 
BRANCH  21  22
ATOM      1  F   UNL     1       3.615   2.513  22.508  0.00  0.00    -0.166 F 
ATOM      2  F   UNL     1       3.834   0.695  21.343  0.00  0.00    -0.166 F 
ATOM      3  F   UNL     1       4.680   0.811  23.343  0.00  0.00    -0.166 F 
ATOM     22  C   UNL     1       3.582   1.151  22.607  0.00  0.00    +0.417 C 
ENDBRANCH  21  22
ENDBRANCH  14  16
ENDBRANCH   6  14
TORSDOF 3
ENDMDL
MODEL 6
REMARK VINA RESULT:      -1.3      2.693      3.557
REMARK  Name = 75537108
REMARK  4 active torsions:
REMARK  status: ('A' for Active; 'I' for Inactive)
REMARK    1  A    between atoms: N_6  and  C_14
REMARK    2  A    between atoms: N_7  and  C_15
REMARK    3  A    between atoms: C_14  and  C_16
REMARK    4  A    between atoms: C_21  and  C_22
REMARK                            x       y       z     vdW  Elec       q    Type
REMARK                         _______ _______ _______ _____ _____    ______ ____
ROOT
ATOM      4  O   UNL     1       9.496  -8.115  31.120  0.00  0.00    -0.252 OA
ATOM      5  N   UNL     1      11.782  -8.245  31.650  0.00  0.00    -0.278 N 
ATOM      6  N   UNL     1      14.569  -8.179  31.281  0.00  0.00    -0.295 NA
ATOM      7  N   UNL     1      10.410  -9.827  32.462  0.00  0.00    -0.287 N 
ATOM      8  C   UNL     1      12.623  -9.048  32.512  0.00  0.00    +0.109 C 
ATOM      9  C   UNL     1      13.928  -9.404  31.800  0.00  0.00    +0.109 C 
ATOM     10  C   UNL     1      11.741 -10.242  32.870  0.00  0.00    +0.132 C 
ATOM     11  C   UNL     1      12.351  -7.101  30.969  0.00  0.00    +0.125 C 
ATOM     12  C   UNL     1      13.684  -7.487  30.322  0.00  0.00    +0.104 C 
ATOM     13  C   UNL     1      10.442  -8.657  31.677  0.00  0.00    +0.305 C 
ATOM     15  C   UNL     1       9.240 -10.636  32.725  0.00  0.00    +0.133 C 
ENDROOT
BRANCH   6  14
ATOM     14  C   UNL     1      15.850  -8.502  30.651  0.00  0.00    +0.119 C 
BRANCH  14  16
ATOM     16  C   UNL     1      16.072  -7.705  29.393  0.00  0.00    -0.033 A 
ATOM     17  C   UNL     1      15.877  -8.299  28.147  0.00  0.00    +0.005 A 
ATOM     18  C   UNL     1      16.474  -6.372  29.475  0.00  0.00    +0.005 A 
ATOM     19  C   UNL     1      16.082  -7.560  26.982  0.00  0.00    +0.012 A 
ATOM     20  C   UNL     1      16.680  -5.632  28.310  0.00  0.00    +0.012 A 
ATOM     21  C   UNL     1      16.485  -6.227  27.063  0.00  0.00    +0.055 A 
BRANCH  21  22
ATOM      1  F   UNL     1      15.543  -5.048  25.208  0.00  0.00    -0.166 F 
ATOM      2  F   UNL     1      17.403  -6.109  24.857  0.00  0.00    -0.166 F 
ATOM      3  F   UNL     1      17.400  -4.286  26.041  0.00  0.00    -0.166 F 
ATOM     22  C   UNL     1      16.701  -5.437  25.818  0.00  0.00    +0.417 C 
ENDBRANCH  21  22
ENDBRANCH  14  16
ENDBRANCH   6  14
TORSDOF 3
ENDMDL
MODEL 7
REMARK VINA RESULT:      -1.2     17.004     19.173
REMARK  Name = 75537108
REMARK  4 active torsions:
REMARK  status: ('A' for Active; 'I' for Inactive)
REMARK    1  A    between atoms: N_6  and  C_14
REMARK    2  A    between atoms: N_7  and  C_15
REMARK    3  A    between atoms: C_14  and  C_16
REMARK    4  A    between atoms: C_21  and  C_22
REMARK                            x       y       z     vdW  Elec       q    Type
REMARK                         _______ _______ _______ _____ _____    ______ ____
ROOT
ATOM      4  O   UNL     1       3.856   1.855  22.446  0.00  0.00    -0.252 OA
ATOM      5  N   UNL     1       2.354   0.123  22.962  0.00  0.00    -0.278 N 
ATOM      6  N   UNL     1       0.067  -1.147  23.994  0.00  0.00    -0.295 NA
ATOM      7  N   UNL     1       4.548  -0.240  23.280  0.00  0.00    -0.287 N 
ATOM      8  C   UNL     1       2.440  -1.269  23.352  0.00  0.00    +0.109 C 
ATOM      9  C   UNL     1       1.408  -1.583  24.434  0.00  0.00    +0.109 C 
ATOM     10  C   UNL     1       3.895  -1.436  23.783  0.00  0.00    +0.132 C 
ATOM     11  C   UNL     1       1.061   0.695  22.653  0.00  0.00    +0.125 C 
ATOM     12  C   UNL     1       0.046   0.306  23.731  0.00  0.00    +0.104 C 
ATOM     13  C   UNL     1       3.616   0.722  22.841  0.00  0.00    +0.305 C 
ATOM     15  C   UNL     1       5.978  -0.046  23.383  0.00  0.00    +0.133 C 
ENDROOT
BRANCH   6  14
ATOM     14  C   UNL     1      -0.938  -1.498  24.998  0.00  0.00    +0.119 C 
BRANCH  14  16
ATOM     16  C   UNL     1      -2.091  -0.531  24.999  0.00  0.00    -0.033 A 
ATOM     17  C   UNL     1      -3.366  -0.966  24.639  0.00  0.00    +0.005 A 
ATOM     18  C   UNL     1      -1.885   0.801  25.359  0.00  0.00    +0.005 A 
ATOM     19  C   UNL     1      -4.435  -0.070  24.640  0.00  0.00    +0.012 A 
ATOM     20  C   UNL     1      -2.954   1.697  25.361  0.00  0.00    +0.012 A 
ATOM     21  C   UNL     1      -4.229   1.262  25.000  0.00  0.00    +0.055 A 
BRANCH  21  22
ATOM      1  F   UNL     1      -5.627   2.762  26.231  0.00  0.00    -0.166 F 
ATOM      2  F   UNL     1      -6.555   1.660  24.610  0.00  0.00    -0.166 F 
ATOM      3  F   UNL     1      -5.173   3.279  24.169  0.00  0.00    -0.166 F 
ATOM     22  C   UNL     1      -5.372   2.218  25.005  0.00  0.00    +0.417 C 
ENDBRANCH  21  22
ENDBRANCH  14  16
ENDBRANCH   6  14
TORSDOF 3
ENDMDL
MODEL 8
REMARK VINA RESULT:       0.0     18.230     20.111
REMARK  Name = 75537108
REMARK  4 active torsions:
REMARK  status: ('A' for Active; 'I' for Inactive)
REMARK    1  A    between atoms: N_6  and  C_14
REMARK    2  A    between atoms: N_7  and  C_15
REMARK    3  A    between atoms: C_14  and  C_16
REMARK    4  A    between atoms: C_21  and  C_22
REMARK                            x       y       z     vdW  Elec       q    Type
REMARK                         _______ _______ _______ _____ _____    ______ ____
ROOT
ATOM      4  O   UNL     1      -3.978   5.806  23.546  0.00  0.00    -0.252 OA
ATOM      5  N   UNL     1      -2.538   4.413  24.773  0.00  0.00    -0.278 N 
ATOM      6  N   UNL     1      -0.531   2.510  25.282  0.00  0.00    -0.295 NA
ATOM      7  N   UNL     1      -4.693   4.528  25.395  0.00  0.00    -0.287 N 
ATOM      8  C   UNL     1      -2.609   3.625  25.986  0.00  0.00    +0.109 C 
ATOM      9  C   UNL     1      -1.898   2.286  25.792  0.00  0.00    +0.109 C 
ATOM     10  C   UNL     1      -4.107   3.524  26.265  0.00  0.00    +0.132 C 
ATOM     11  C   UNL     1      -1.264   4.573  24.104  0.00  0.00    +0.125 C 
ATOM     12  C   UNL     1      -0.562   3.218  23.986  0.00  0.00    +0.104 C 
ATOM     13  C   UNL     1      -3.762   5.019  24.458  0.00  0.00    +0.305 C 
ATOM     15  C   UNL     1      -6.105   4.839  25.426  0.00  0.00    +0.133 C 
ENDROOT
BRANCH   6  14
ATOM     14  C   UNL     1       0.179   1.237  25.151  0.00  0.00    +0.119 C 
BRANCH  14  16
ATOM     16  C   UNL     1      -0.766   0.092  24.900  0.00  0.00    -0.033 A 
ATOM     17  C   UNL     1      -0.391  -1.208  25.236  0.00  0.00    +0.005 A 
ATOM     18  C   UNL     1      -2.017   0.332  24.331  0.00  0.00    +0.005 A 
ATOM     19  C   UNL     1      -1.266  -2.268  25.004  0.00  0.00    +0.012 A 
ATOM     20  C   UNL     1      -2.893  -0.729  24.099  0.00  0.00    +0.012 A 
ATOM     21  C   UNL     1      -2.517  -2.029  24.435  0.00  0.00    +0.055 A 
BRANCH  21  22
ATOM      1  F   UNL     1      -3.833  -3.815  25.328  0.00  0.00    -0.166 F 
ATOM      2  F   UNL     1      -2.940  -4.132  23.376  0.00  0.00    -0.166 F 
ATOM      3  F   UNL     1      -4.616  -2.764  23.594  0.00  0.00    -0.166 F 
ATOM     22  C   UNL     1      -3.454  -3.162  24.190  0.00  0.00    +0.417 C 
ENDBRANCH  21  22
ENDBRANCH  14  16
ENDBRANCH   6  14
TORSDOF 3
ENDMDL
