MODEL 1
REMARK VINA RESULT:       4.9      0.000      0.000
REMARK  Name = 51137021
REMARK  4 active torsions:
REMARK  status: ('A' for Active; 'I' for Inactive)
REMARK    1  A    between atoms: O_3  and  C_18
REMARK    2  A    between atoms: O_3  and  C_26
REMARK    3  A    between atoms: N_7  and  C_20
REMARK    4  A    between atoms: C_8  and  C_12
REMARK                            x       y       z     vdW  Elec       q    Type
REMARK                         _______ _______ _______ _____ _____    ______ ____
ROOT
ATOM      2  O   UNL     1      -3.484   0.719  23.159  0.00  0.00    -0.252 OA
ATOM      4  N   UNL     1      -2.014  -0.349  24.563  0.00  0.00    -0.285 N 
ATOM      7  N   UNL     1      -3.271   1.454  25.363  0.00  0.00    -0.269 N 
ATOM      8  C   UNL     1      -0.291  -1.930  24.127  0.00  0.00    +0.074 C 
ATOM      9  C   UNL     1      -0.571  -1.884  25.636  0.00  0.00    +0.032 C 
ATOM     10  C   UNL     1      -1.563  -1.298  23.550  0.00  0.00    +0.120 C 
ATOM     11  C   UNL     1      -1.329  -0.577  25.832  0.00  0.00    +0.110 C 
ATOM     13  C   UNL     1      -2.976   0.628  24.278  0.00  0.00    +0.306 C 
ATOM     28  H   UNL     1      -2.765   1.297  26.230  0.00  0.00    +0.156 HD
ENDROOT
BRANCH   8  12
ATOM      5  N   UNL     1       2.222  -1.792  24.163  0.00  0.00    -0.341 N 
ATOM      6  N   UNL     1       1.180  -0.132  23.116  0.00  0.00    -0.232 NA
ATOM     12  C   UNL     1       1.024  -1.254  23.782  0.00  0.00    +0.113 A 
ATOM     14  C   UNL     1       3.216  -0.962  23.712  0.00  0.00    +0.070 A 
ATOM     15  C   UNL     1       2.540   0.066  23.062  0.00  0.00    +0.089 A 
ATOM     16  C   UNL     1       4.606  -1.022  23.814  0.00  0.00    +0.073 A 
ATOM     17  C   UNL     1       3.278   1.106  22.472  0.00  0.00    +0.033 A 
ATOM     18  C   UNL     1       5.326   0.022  23.222  0.00  0.00    +0.122 A 
ATOM     19  C   UNL     1       4.676   1.067  22.563  0.00  0.00    +0.048 A 
ATOM     27  H   UNL     1       2.353  -2.648  24.685  0.00  0.00    +0.167 HD
BRANCH  18   3
ATOM      3  O   UNL     1       6.688   0.015  23.290  0.00  0.00    -0.495 OA
ATOM     26  C   UNL     1       7.362  -1.068  22.654  0.00  0.00    +0.277 C 
ENDBRANCH  18   3
ENDBRANCH   8  12
BRANCH   7  20
ATOM      1  F   UNL     1      -6.868   5.670  25.555  0.00  0.00    -0.205 F 
ATOM     20  C   UNL     1      -4.191   2.531  25.412  0.00  0.00    +0.035 A 
ATOM     21  C   UNL     1      -5.517   2.300  25.773  0.00  0.00    +0.026 A 
ATOM     22  C   UNL     1      -3.768   3.823  25.098  0.00  0.00    +0.026 A 
ATOM     23  C   UNL     1      -6.422   3.360  25.821  0.00  0.00    +0.040 A 
ATOM     24  C   UNL     1      -4.673   4.884  25.147  0.00  0.00    +0.040 A 
ATOM     25  C   UNL     1      -6.000   4.652  25.508  0.00  0.00    +0.124 A 
ENDBRANCH   7  20
TORSDOF 3
ENDMDL
MODEL 2
REMARK VINA RESULT:       6.7      3.492      8.773
REMARK  Name = 51137021
REMARK  4 active torsions:
REMARK  status: ('A' for Active; 'I' for Inactive)
REMARK    1  A    between atoms: O_3  and  C_18
REMARK    2  A    between atoms: O_3  and  C_26
REMARK    3  A    between atoms: N_7  and  C_20
REMARK    4  A    between atoms: C_8  and  C_12
REMARK                            x       y       z     vdW  Elec       q    Type
REMARK                         _______ _______ _______ _____ _____    ______ ____
ROOT
ATOM      2  O   UNL     1       1.021  -1.551  25.784  0.00  0.00    -0.252 OA
ATOM      4  N   UNL     1      -0.782  -1.746  24.377  0.00  0.00    -0.285 N 
ATOM      7  N   UNL     1       1.296  -1.109  23.510  0.00  0.00    -0.269 N 
ATOM      8  C   UNL     1      -3.107  -1.981  24.823  0.00  0.00    +0.074 C 
ATOM      9  C   UNL     1      -2.837  -2.293  23.344  0.00  0.00    +0.032 C 
ATOM     10  C   UNL     1      -1.709  -2.128  25.437  0.00  0.00    +0.120 C 
ATOM     11  C   UNL     1      -1.460  -1.695  23.084  0.00  0.00    +0.110 C 
ATOM     13  C   UNL     1       0.566  -1.472  24.642  0.00  0.00    +0.306 C 
ATOM     28  H   UNL     1       0.801  -1.054  22.625  0.00  0.00    +0.156 HD
ENDROOT
BRANCH   8  12
ATOM      5  N   UNL     1      -3.070   0.497  25.257  0.00  0.00    -0.341 N 
ATOM      6  N   UNL     1      -5.079  -0.393  24.919  0.00  0.00    -0.232 NA
ATOM     12  C   UNL     1      -3.789  -0.635  24.994  0.00  0.00    +0.113 A 
ATOM     14  C   UNL     1      -3.954   1.541  25.359  0.00  0.00    +0.070 A 
ATOM     15  C   UNL     1      -5.201   0.959  25.144  0.00  0.00    +0.089 A 
ATOM     16  C   UNL     1      -3.776   2.900  25.612  0.00  0.00    +0.073 A 
ATOM     17  C   UNL     1      -6.349   1.768  25.180  0.00  0.00    +0.033 A 
ATOM     18  C   UNL     1      -4.930   3.691  25.645  0.00  0.00    +0.122 A 
ATOM     19  C   UNL     1      -6.194   3.137  25.433  0.00  0.00    +0.048 A 
ATOM     27  H   UNL     1      -2.066   0.557  25.361  0.00  0.00    +0.167 HD
BRANCH  18   3
ATOM      3  O   UNL     1      -4.815   5.028  25.888  0.00  0.00    -0.495 OA
ATOM     26  C   UNL     1      -3.497   5.545  26.051  0.00  0.00    +0.277 C 
ENDBRANCH  18   3
ENDBRANCH   8  12
BRANCH   7  20
ATOM      1  F   UNL     1       6.674   0.208  23.208  0.00  0.00    -0.205 F 
ATOM     20  C   UNL     1       2.669  -0.772  23.432  0.00  0.00    +0.035 A 
ATOM     21  C   UNL     1       3.058   0.450  22.886  0.00  0.00    +0.026 A 
ATOM     22  C   UNL     1       3.633  -1.665  23.902  0.00  0.00    +0.026 A 
ATOM     23  C   UNL     1       4.411   0.781  22.810  0.00  0.00    +0.040 A 
ATOM     24  C   UNL     1       4.986  -1.333  23.826  0.00  0.00    +0.040 A 
ATOM     25  C   UNL     1       5.375  -0.110  23.280  0.00  0.00    +0.124 A 
ENDBRANCH   7  20
TORSDOF 3
ENDMDL
